MODEL 1
REMARK VINA RESULT:      -9.5      0.000      0.000
REMARK  Name = 
REMARK  3 active torsions:
REMARK  status: ('A' for Active; 'I' for Inactive)
REMARK    1  A    between atoms: C_2  and  C_18
REMARK    2  A    between atoms: N_3  and  C_4
REMARK    3  A    between atoms: C_22  and  N_23
REMARK                            x       y       z     vdW  Elec       q    Type
REMARK                         _______ _______ _______ _____ _____    ______ ____
ROOT
ATOM      1  O   UNL     1       0.676   5.544  20.486  0.00  0.00    +0.000 OA
ATOM      2  C   UNL     1       1.824   5.843  20.165  0.00  0.00    +0.000 C 
ATOM      3  N   UNL     1       2.292   7.125  19.906  0.00  0.00    +0.000 N 
ATOM      4  H   UNL     1       3.158   7.217  19.387  0.00  0.00    +0.000 HD
ENDROOT
BRANCH   3   5
ATOM      5  C   UNL     1       1.544   8.310  20.138  0.00  0.00    +0.000 A 
ATOM      6  C   UNL     1       1.216   9.185  19.094  0.00  0.00    +0.000 A 
ATOM      7  C   UNL     1       0.490  10.359  19.303  0.00  0.00    +0.000 A 
ATOM      8  C   UNL     1       0.098  10.637  20.609  0.00  0.00    +0.000 A 
ATOM      9  C   UNL     1       0.389   9.790  21.675  0.00  0.00    +0.000 A 
ATOM     10  C   UNL     1       1.103   8.597  21.440  0.00  0.00    +0.000 A 
ATOM     11  N   UNL     1      -0.108  10.309  22.851  0.00  0.00    +0.000 NA
ATOM     12  C   UNL     1      -0.695  11.447  22.524  0.00  0.00    +0.000 A 
ATOM     13  N   UNL     1      -0.607  11.670  21.172  0.00  0.00    +0.000 N 
ATOM     14  C   UNL     1      -1.218  12.779  20.466  0.00  0.00    +0.000 C 
ATOM     15  C   UNL     1      -2.739  12.778  20.586  0.00  0.00    +0.000 C 
ATOM     16  C   UNL     1      -3.245  13.323  21.923  0.00  0.00    +0.000 C 
ATOM     17  C   UNL     1      -2.898  12.470  23.148  0.00  0.00    +0.000 C 
ATOM     18  C   UNL     1      -1.400  12.382  23.448  0.00  0.00    +0.000 C 
ENDBRANCH   3   5
BRANCH   2  19
ATOM     19  C   UNL     1       2.779   4.718  20.004  0.00  0.00    +0.000 A 
ATOM     20  C   UNL     1       2.555   3.553  20.744  0.00  0.00    +0.000 A 
ATOM     21  C   UNL     1       3.502   2.531  20.749  0.00  0.00    +0.000 A 
ATOM     22  C   UNL     1       4.684   2.673  20.019  0.00  0.00    +0.000 A 
ATOM     23  C   UNL     1       4.917   3.823  19.252  0.00  0.00    +0.000 A 
ATOM     24  C   UNL     1       3.957   4.852  19.269  0.00  0.00    +0.000 A 
BRANCH  23  25
ATOM     25  N   UNL     1       6.152   3.992  18.592  0.00  0.00    +0.000 N 
ATOM     26  C   UNL     1       6.304   4.240  17.214  0.00  0.00    +0.000 A 
ATOM     27  C   UNL     1       7.405   4.960  16.748  0.00  0.00    +0.000 A 
ATOM     28  N   UNL     1       7.566   5.329  15.452  0.00  0.00    +0.000 NA
ATOM     29  C   UNL     1       6.577   4.936  14.620  0.00  0.00    +0.000 A 
ATOM     30  C   UNL     1       5.500   4.187  15.054  0.00  0.00    +0.000 A 
ATOM     31  N   UNL     1       5.345   3.832  16.348  0.00  0.00    +0.000 NA
ATOM     32  H   UNL     1       6.903   3.415  18.945  0.00  0.00    +0.000 HD
ENDBRANCH  23  25
ENDBRANCH   2  19
TORSDOF 3
ENDMDL
MODEL 2
REMARK VINA RESULT:      -9.3      1.079      1.231
REMARK  Name = 
REMARK  3 active torsions:
REMARK  status: ('A' for Active; 'I' for Inactive)
REMARK    1  A    between atoms: C_2  and  C_18
REMARK    2  A    between atoms: N_3  and  C_4
REMARK    3  A    between atoms: C_22  and  N_23
REMARK                            x       y       z     vdW  Elec       q    Type
REMARK                         _______ _______ _______ _____ _____    ______ ____
ROOT
ATOM      1  O   UNL     1       2.331   7.909  18.762  0.00  0.00    +0.000 OA
ATOM      2  C   UNL     1       2.097   7.228  19.759  0.00  0.00    +0.000 C 
ATOM      3  N   UNL     1       1.387   7.640  20.880  0.00  0.00    +0.000 N 
ATOM      4  H   UNL     1       1.499   7.104  21.733  0.00  0.00    +0.000 HD
ENDROOT
BRANCH   3   5
ATOM      5  C   UNL     1       0.679   8.867  20.970  0.00  0.00    +0.000 A 
ATOM      6  C   UNL     1       0.488   9.687  19.851  0.00  0.00    +0.000 A 
ATOM      7  C   UNL     1      -0.198  10.901  19.922  0.00  0.00    +0.000 A 
ATOM      8  C   UNL     1      -0.694  11.277  21.167  0.00  0.00    +0.000 A 
ATOM      9  C   UNL     1      -0.541  10.488  22.304  0.00  0.00    +0.000 A 
ATOM     10  C   UNL     1       0.136   9.253  22.207  0.00  0.00    +0.000 A 
ATOM     11  N   UNL     1      -1.117  11.100  23.395  0.00  0.00    +0.000 NA
ATOM     12  C   UNL     1      -1.618  12.238  22.949  0.00  0.00    +0.000 A 
ATOM     13  N   UNL     1      -1.397  12.371  21.599  0.00  0.00    +0.000 N 
ATOM     14  C   UNL     1      -1.888  13.458  20.776  0.00  0.00    +0.000 C 
ATOM     15  C   UNL     1      -3.412  13.528  20.753  0.00  0.00    +0.000 C 
ATOM     16  C   UNL     1      -4.011  14.177  22.002  0.00  0.00    +0.000 C 
ATOM     17  C   UNL     1      -3.817  13.389  23.302  0.00  0.00    +0.000 C 
ATOM     18  C   UNL     1      -2.358  13.258  23.746  0.00  0.00    +0.000 C 
ENDBRANCH   3   5
BRANCH   2  19
ATOM     19  C   UNL     1       2.663   5.856  19.770  0.00  0.00    +0.000 A 
ATOM     20  C   UNL     1       2.055   4.900  20.590  0.00  0.00    +0.000 A 
ATOM     21  C   UNL     1       2.637   3.645  20.756  0.00  0.00    +0.000 A 
ATOM     22  C   UNL     1       3.836   3.342  20.109  0.00  0.00    +0.000 A 
ATOM     23  C   UNL     1       4.449   4.278  19.264  0.00  0.00    +0.000 A 
ATOM     24  C   UNL     1       3.856   5.546  19.118  0.00  0.00    +0.000 A 
BRANCH  23  25
ATOM     25  N   UNL     1       5.704   3.993  18.687  0.00  0.00    +0.000 N 
ATOM     26  C   UNL     1       6.029   4.173  17.329  0.00  0.00    +0.000 A 
ATOM     27  C   UNL     1       7.345   4.450  16.953  0.00  0.00    +0.000 A 
ATOM     28  N   UNL     1       7.716   4.740  15.680  0.00  0.00    +0.000 NA
ATOM     29  C   UNL     1       6.711   4.732  14.777  0.00  0.00    +0.000 A 
ATOM     30  C   UNL     1       5.410   4.419  15.122  0.00  0.00    +0.000 A 
ATOM     31  N   UNL     1       5.050   4.140  16.394  0.00  0.00    +0.000 NA
ATOM     32  H   UNL     1       6.172   3.183  19.072  0.00  0.00    +0.000 HD
ENDBRANCH  23  25
ENDBRANCH   2  19
TORSDOF 3
ENDMDL
MODEL 3
REMARK VINA RESULT:      -9.2      1.381      2.244
REMARK  Name = 
REMARK  3 active torsions:
REMARK  status: ('A' for Active; 'I' for Inactive)
REMARK    1  A    between atoms: C_2  and  C_18
REMARK    2  A    between atoms: N_3  and  C_4
REMARK    3  A    between atoms: C_22  and  N_23
REMARK                            x       y       z     vdW  Elec       q    Type
REMARK                         _______ _______ _______ _____ _____    ______ ____
ROOT
ATOM      1  O   UNL     1       2.178   8.033  19.120  0.00  0.00    +0.000 OA
ATOM      2  C   UNL     1       1.996   7.279  20.073  0.00  0.00    +0.000 C 
ATOM      3  N   UNL     1       1.396   7.618  21.279  0.00  0.00    +0.000 N 
ATOM      4  H   UNL     1       1.553   7.008  22.074  0.00  0.00    +0.000 HD
ENDROOT
BRANCH   3   5
ATOM      5  C   UNL     1       0.749   8.858  21.529  0.00  0.00    +0.000 A 
ATOM      6  C   UNL     1       0.072   9.101  22.730  0.00  0.00    +0.000 A 
ATOM      7  C   UNL     1      -0.578  10.309  22.991  0.00  0.00    +0.000 A 
ATOM      8  C   UNL     1      -0.530  11.282  21.996  0.00  0.00    +0.000 A 
ATOM      9  C   UNL     1       0.143  11.090  20.792  0.00  0.00    +0.000 A 
ATOM     10  C   UNL     1       0.813   9.870  20.557  0.00  0.00    +0.000 A 
ATOM     11  N   UNL     1       0.023  12.204  19.991  0.00  0.00    +0.000 NA
ATOM     12  C   UNL     1      -0.703  13.067  20.679  0.00  0.00    +0.000 A 
ATOM     13  N   UNL     1      -1.041  12.551  21.906  0.00  0.00    +0.000 N 
ATOM     14  C   UNL     1      -1.759  13.264  22.944  0.00  0.00    +0.000 C 
ATOM     15  C   UNL     1      -1.005  14.498  23.430  0.00  0.00    +0.000 C 
ATOM     16  C   UNL     1      -1.132  15.698  22.489  0.00  0.00    +0.000 C 
ATOM     17  C   UNL     1      -0.469  15.524  21.119  0.00  0.00    +0.000 C 
ATOM     18  C   UNL     1      -1.102  14.438  20.247  0.00  0.00    +0.000 C 
ENDBRANCH   3   5
BRANCH   2  19
ATOM     19  C   UNL     1       2.503   5.892  19.925  0.00  0.00    +0.000 A 
ATOM     20  C   UNL     1       1.782   4.859  20.533  0.00  0.00    +0.000 A 
ATOM     21  C   UNL     1       2.294   3.564  20.557  0.00  0.00    +0.000 A 
ATOM     22  C   UNL     1       3.536   3.296  19.979  0.00  0.00    +0.000 A 
ATOM     23  C   UNL     1       4.264   4.312  19.344  0.00  0.00    +0.000 A 
ATOM     24  C   UNL     1       3.739   5.618  19.341  0.00  0.00    +0.000 A 
BRANCH  23  25
ATOM     25  N   UNL     1       5.556   4.048  18.844  0.00  0.00    +0.000 N 
ATOM     26  C   UNL     1       5.946   4.189  17.498  0.00  0.00    +0.000 A 
ATOM     27  C   UNL     1       7.271   4.495  17.180  0.00  0.00    +0.000 A 
ATOM     28  N   UNL     1       7.698   4.751  15.918  0.00  0.00    +0.000 NA
ATOM     29  C   UNL     1       6.743   4.677  14.966  0.00  0.00    +0.000 A 
ATOM     30  C   UNL     1       5.436   4.335  15.255  0.00  0.00    +0.000 A 
ATOM     31  N   UNL     1       5.019   4.090  16.516  0.00  0.00    +0.000 NA
ATOM     32  H   UNL     1       6.028   3.268  19.282  0.00  0.00    +0.000 HD
ENDBRANCH  23  25
ENDBRANCH   2  19
TORSDOF 3
ENDMDL
MODEL 4
REMARK VINA RESULT:      -9.2      0.828      1.769
REMARK  Name = 
REMARK  3 active torsions:
REMARK  status: ('A' for Active; 'I' for Inactive)
REMARK    1  A    between atoms: C_2  and  C_18
REMARK    2  A    between atoms: N_3  and  C_4
REMARK    3  A    between atoms: C_22  and  N_23
REMARK                            x       y       z     vdW  Elec       q    Type
REMARK                         _______ _______ _______ _____ _____    ______ ____
ROOT
ATOM      1  O   UNL     1       0.574   5.471  20.597  0.00  0.00    +0.000 OA
ATOM      2  C   UNL     1       1.735   5.819  20.389  0.00  0.00    +0.000 C 
ATOM      3  N   UNL     1       2.205   7.127  20.384  0.00  0.00    +0.000 N 
ATOM      4  H   UNL     1       3.095   7.307  19.932  0.00  0.00    +0.000 HD
ENDROOT
BRANCH   3   5
ATOM      5  C   UNL     1       1.439   8.254  20.785  0.00  0.00    +0.000 A 
ATOM      6  C   UNL     1       1.248   8.566  22.136  0.00  0.00    +0.000 A 
ATOM      7  C   UNL     1       0.491   9.663  22.551  0.00  0.00    +0.000 A 
ATOM      8  C   UNL     1      -0.080  10.450  21.555  0.00  0.00    +0.000 A 
ATOM      9  C   UNL     1       0.094  10.187  20.200  0.00  0.00    +0.000 A 
ATOM     10  C   UNL     1       0.882   9.086  19.801  0.00  0.00    +0.000 A 
ATOM     11  N   UNL     1      -0.584  11.113  19.439  0.00  0.00    +0.000 NA
ATOM     12  C   UNL     1      -1.162  11.934  20.298  0.00  0.00    +0.000 A 
ATOM     13  N   UNL     1      -0.864  11.575  21.590  0.00  0.00    +0.000 N 
ATOM     14  C   UNL     1      -1.264  12.308  22.775  0.00  0.00    +0.000 C 
ATOM     15  C   UNL     1      -0.689  13.721  22.806  0.00  0.00    +0.000 C 
ATOM     16  C   UNL     1      -1.447  14.707  21.915  0.00  0.00    +0.000 C 
ATOM     17  C   UNL     1      -1.351  14.431  20.411  0.00  0.00    +0.000 C 
ATOM     18  C   UNL     1      -2.004  13.120  19.969  0.00  0.00    +0.000 C 
ENDBRANCH   3   5
BRANCH   2  19
ATOM     19  C   UNL     1       2.705   4.740  20.079  0.00  0.00    +0.000 A 
ATOM     20  C   UNL     1       2.490   3.480  20.647  0.00  0.00    +0.000 A 
ATOM     21  C   UNL     1       3.450   2.478  20.515  0.00  0.00    +0.000 A 
ATOM     22  C   UNL     1       4.634   2.734  19.821  0.00  0.00    +0.000 A 
ATOM     23  C   UNL     1       4.857   3.983  19.225  0.00  0.00    +0.000 A 
ATOM     24  C   UNL     1       3.885   4.989  19.379  0.00  0.00    +0.000 A 
BRANCH  23  25
ATOM     25  N   UNL     1       6.094   4.257  18.605  0.00  0.00    +0.000 N 
ATOM     26  C   UNL     1       6.284   4.420  17.219  0.00  0.00    +0.000 A 
ATOM     27  C   UNL     1       7.311   5.238  16.743  0.00  0.00    +0.000 A 
ATOM     28  N   UNL     1       7.490   5.527  15.429  0.00  0.00    +0.000 NA
ATOM     29  C   UNL     1       6.600   4.952  14.591  0.00  0.00    +0.000 A 
ATOM     30  C   UNL     1       5.603   4.107  15.039  0.00  0.00    +0.000 A 
ATOM     31  N   UNL     1       5.428   3.832  16.350  0.00  0.00    +0.000 NA
ATOM     32  H   UNL     1       6.891   3.808  19.034  0.00  0.00    +0.000 HD
ENDBRANCH  23  25
ENDBRANCH   2  19
TORSDOF 3
ENDMDL
MODEL 5
REMARK VINA RESULT:      -8.7      2.434      3.303
REMARK  Name = 
REMARK  3 active torsions:
REMARK  status: ('A' for Active; 'I' for Inactive)
REMARK    1  A    between atoms: C_2  and  C_18
REMARK    2  A    between atoms: N_3  and  C_4
REMARK    3  A    between atoms: C_22  and  N_23
REMARK                            x       y       z     vdW  Elec       q    Type
REMARK                         _______ _______ _______ _____ _____    ______ ____
ROOT
ATOM      1  O   UNL     1       1.461   7.928  21.123  0.00  0.00    +0.000 OA
ATOM      2  C   UNL     1       1.789   7.559  19.997  0.00  0.00    +0.000 C 
ATOM      3  N   UNL     1       1.701   8.314  18.834  0.00  0.00    +0.000 N 
ATOM      4  H   UNL     1       1.732   7.823  17.948  0.00  0.00    +0.000 HD
ENDROOT
BRANCH   3   5
ATOM      5  C   UNL     1       1.370   9.695  18.801  0.00  0.00    +0.000 A 
ATOM      6  C   UNL     1       0.061  10.139  19.023  0.00  0.00    +0.000 A 
ATOM      7  C   UNL     1      -0.287  11.491  18.985  0.00  0.00    +0.000 A 
ATOM      8  C   UNL     1       0.733  12.399  18.712  0.00  0.00    +0.000 A 
ATOM      9  C   UNL     1       2.050  12.005  18.500  0.00  0.00    +0.000 A 
ATOM     10  C   UNL     1       2.386  10.636  18.565  0.00  0.00    +0.000 A 
ATOM     11  N   UNL     1       2.845  13.101  18.244  0.00  0.00    +0.000 NA
ATOM     12  C   UNL     1       2.043  14.149  18.300  0.00  0.00    +0.000 A 
ATOM     13  N   UNL     1       0.759  13.765  18.600  0.00  0.00    +0.000 N 
ATOM     14  C   UNL     1      -0.354  14.668  18.820  0.00  0.00    +0.000 C 
ATOM     15  C   UNL     1      -0.123  15.595  20.010  0.00  0.00    +0.000 C 
ATOM     16  C   UNL     1       0.798  16.775  19.693  0.00  0.00    +0.000 C 
ATOM     17  C   UNL     1       2.252  16.401  19.382  0.00  0.00    +0.000 C 
ATOM     18  C   UNL     1       2.430  15.577  18.106  0.00  0.00    +0.000 C 
ENDBRANCH   3   5
BRANCH   2  19
ATOM     19  C   UNL     1       2.287   6.166  19.876  0.00  0.00    +0.000 A 
ATOM     20  C   UNL     1       1.496   5.137  20.397  0.00  0.00    +0.000 A 
ATOM     21  C   UNL     1       1.985   3.834  20.448  0.00  0.00    +0.000 A 
ATOM     22  C   UNL     1       3.272   3.553  19.986  0.00  0.00    +0.000 A 
ATOM     23  C   UNL     1       4.072   4.567  19.439  0.00  0.00    +0.000 A 
ATOM     24  C   UNL     1       3.569   5.881  19.407  0.00  0.00    +0.000 A 
BRANCH  23  25
ATOM     25  N   UNL     1       5.401   4.288  19.059  0.00  0.00    +0.000 N 
ATOM     26  C   UNL     1       5.880   4.290  17.735  0.00  0.00    +0.000 A 
ATOM     27  C   UNL     1       7.216   4.600  17.472  0.00  0.00    +0.000 A 
ATOM     28  N   UNL     1       7.724   4.725  16.220  0.00  0.00    +0.000 NA
ATOM     29  C   UNL     1       6.839   4.515  15.221  0.00  0.00    +0.000 A 
ATOM     30  C   UNL     1       5.524   4.167  15.461  0.00  0.00    +0.000 A 
ATOM     31  N   UNL     1       5.025   4.053  16.711  0.00  0.00    +0.000 NA
ATOM     32  H   UNL     1       5.859   3.578  19.614  0.00  0.00    +0.000 HD
ENDBRANCH  23  25
ENDBRANCH   2  19
TORSDOF 3
ENDMDL
MODEL 6
REMARK VINA RESULT:      -8.7      6.457     10.392
REMARK  Name = 
REMARK  3 active torsions:
REMARK  status: ('A' for Active; 'I' for Inactive)
REMARK    1  A    between atoms: C_2  and  C_18
REMARK    2  A    between atoms: N_3  and  C_4
REMARK    3  A    between atoms: C_22  and  N_23
REMARK                            x       y       z     vdW  Elec       q    Type
REMARK                         _______ _______ _______ _____ _____    ______ ____
ROOT
ATOM      1  O   UNL     1       8.919   9.403  19.580  0.00  0.00    +0.000 OA
ATOM      2  C   UNL     1       8.760   9.728  18.405  0.00  0.00    +0.000 C 
ATOM      3  N   UNL     1       8.101   8.983  17.435  0.00  0.00    +0.000 N 
ATOM      4  H   UNL     1       8.275   9.213  16.462  0.00  0.00    +0.000 HD
ENDROOT
BRANCH   3   5
ATOM      5  C   UNL     1       7.363   7.799  17.700  0.00  0.00    +0.000 A 
ATOM      6  C   UNL     1       7.900   6.759  18.469  0.00  0.00    +0.000 A 
ATOM      7  C   UNL     1       7.194   5.584  18.734  0.00  0.00    +0.000 A 
ATOM      8  C   UNL     1       5.915   5.479  18.195  0.00  0.00    +0.000 A 
ATOM      9  C   UNL     1       5.335   6.492  17.437  0.00  0.00    +0.000 A 
ATOM     10  C   UNL     1       6.056   7.682  17.200  0.00  0.00    +0.000 A 
ATOM     11  N   UNL     1       4.074   6.123  17.025  0.00  0.00    +0.000 NA
ATOM     12  C   UNL     1       3.873   4.913  17.517  0.00  0.00    +0.000 A 
ATOM     13  N   UNL     1       4.959   4.497  18.247  0.00  0.00    +0.000 N 
ATOM     14  C   UNL     1       5.039   3.257  18.993  0.00  0.00    +0.000 C 
ATOM     15  C   UNL     1       3.991   3.176  20.099  0.00  0.00    +0.000 C 
ATOM     16  C   UNL     1       2.597   2.803  19.592  0.00  0.00    +0.000 C 
ATOM     17  C   UNL     1       1.930   3.851  18.693  0.00  0.00    +0.000 C 
ATOM     18  C   UNL     1       2.644   4.081  17.360  0.00  0.00    +0.000 C 
ENDBRANCH   3   5
BRANCH   2  19
ATOM     19  C   UNL     1       9.365  11.018  17.987  0.00  0.00    +0.000 A 
ATOM     20  C   UNL     1      10.760  11.109  17.951  0.00  0.00    +0.000 A 
ATOM     21  C   UNL     1      11.377  12.336  17.717  0.00  0.00    +0.000 A 
ATOM     22  C   UNL     1      10.602  13.481  17.528  0.00  0.00    +0.000 A 
ATOM     23  C   UNL     1       9.202  13.406  17.539  0.00  0.00    +0.000 A 
ATOM     24  C   UNL     1       8.593  12.162  17.789  0.00  0.00    +0.000 A 
BRANCH  23  25
ATOM     25  N   UNL     1       8.432  14.584  17.436  0.00  0.00    +0.000 N 
ATOM     26  C   UNL     1       8.219  15.504  18.481  0.00  0.00    +0.000 A 
ATOM     27  C   UNL     1       7.994  16.851  18.194  0.00  0.00    +0.000 A 
ATOM     28  N   UNL     1       7.887  17.812  19.147  0.00  0.00    +0.000 NA
ATOM     29  C   UNL     1       8.001  17.371  20.418  0.00  0.00    +0.000 A 
ATOM     30  C   UNL     1       8.181  16.036  20.724  0.00  0.00    +0.000 A 
ATOM     31  N   UNL     1       8.296  15.088  19.768  0.00  0.00    +0.000 NA
ATOM     32  H   UNL     1       7.616  14.505  16.845  0.00  0.00    +0.000 HD
ENDBRANCH  23  25
ENDBRANCH   2  19
TORSDOF 3
ENDMDL
MODEL 7
REMARK VINA RESULT:      -8.7      7.302      8.628
REMARK  Name = 
REMARK  3 active torsions:
REMARK  status: ('A' for Active; 'I' for Inactive)
REMARK    1  A    between atoms: C_2  and  C_18
REMARK    2  A    between atoms: N_3  and  C_4
REMARK    3  A    between atoms: C_22  and  N_23
REMARK                            x       y       z     vdW  Elec       q    Type
REMARK                         _______ _______ _______ _____ _____    ______ ____
ROOT
ATOM      1  O   UNL     1       7.647   9.715  17.372  0.00  0.00    +0.000 OA
ATOM      2  C   UNL     1       8.170   8.922  18.152  0.00  0.00    +0.000 C 
ATOM      3  N   UNL     1       9.176   9.219  19.064  0.00  0.00    +0.000 N 
ATOM      4  H   UNL     1       9.712   8.447  19.444  0.00  0.00    +0.000 HD
ENDROOT
BRANCH   3   5
ATOM      5  C   UNL     1       9.637  10.532  19.346  0.00  0.00    +0.000 A 
ATOM      6  C   UNL     1      10.492  11.212  18.470  0.00  0.00    +0.000 A 
ATOM      7  C   UNL     1      10.963  12.500  18.734  0.00  0.00    +0.000 A 
ATOM      8  C   UNL     1      10.547  13.095  19.922  0.00  0.00    +0.000 A 
ATOM      9  C   UNL     1       9.687  12.463  20.815  0.00  0.00    +0.000 A 
ATOM     10  C   UNL     1       9.203  11.171  20.519  0.00  0.00    +0.000 A 
ATOM     11  N   UNL     1       9.448  13.271  21.905  0.00  0.00    +0.000 NA
ATOM     12  C   UNL     1      10.139  14.377  21.694  0.00  0.00    +0.000 A 
ATOM     13  N   UNL     1      10.803  14.315  20.493  0.00  0.00    +0.000 N 
ATOM     14  C   UNL     1      11.584  15.389  19.913  0.00  0.00    +0.000 C 
ATOM     15  C   UNL     1      10.743  16.631  19.630  0.00  0.00    +0.000 C 
ATOM     16  C   UNL     1      10.468  17.477  20.875  0.00  0.00    +0.000 C 
ATOM     17  C   UNL     1       9.579  16.810  21.931  0.00  0.00    +0.000 C 
ATOM     18  C   UNL     1      10.200  15.573  22.584  0.00  0.00    +0.000 C 
ENDBRANCH   3   5
BRANCH   2  19
ATOM     19  C   UNL     1       7.704   7.515  18.077  0.00  0.00    +0.000 A 
ATOM     20  C   UNL     1       8.265   6.588  18.961  0.00  0.00    +0.000 A 
ATOM     21  C   UNL     1       7.979   5.231  18.830  0.00  0.00    +0.000 A 
ATOM     22  C   UNL     1       7.137   4.792  17.807  0.00  0.00    +0.000 A 
ATOM     23  C   UNL     1       6.546   5.708  16.925  0.00  0.00    +0.000 A 
ATOM     24  C   UNL     1       6.856   7.074  17.062  0.00  0.00    +0.000 A 
BRANCH  23  25
ATOM     25  N   UNL     1       5.770   5.244  15.842  0.00  0.00    +0.000 N 
ATOM     26  C   UNL     1       6.274   4.914  14.570  0.00  0.00    +0.000 A 
ATOM     27  C   UNL     1       5.633   3.950  13.790  0.00  0.00    +0.000 A 
ATOM     28  N   UNL     1       6.116   3.502  12.603  0.00  0.00    +0.000 NA
ATOM     29  C   UNL     1       7.277   4.070  12.209  0.00  0.00    +0.000 A 
ATOM     30  C   UNL     1       7.905   5.055  12.947  0.00  0.00    +0.000 A 
ATOM     31  N   UNL     1       7.420   5.488  14.131  0.00  0.00    +0.000 NA
ATOM     32  H   UNL     1       4.849   5.655  15.776  0.00  0.00    +0.000 HD
ENDBRANCH  23  25
ENDBRANCH   2  19
TORSDOF 3
ENDMDL
MODEL 8
REMARK VINA RESULT:      -8.6      2.868     10.562
REMARK  Name = 
REMARK  3 active torsions:
REMARK  status: ('A' for Active; 'I' for Inactive)
REMARK    1  A    between atoms: C_2  and  C_18
REMARK    2  A    between atoms: N_3  and  C_4
REMARK    3  A    between atoms: C_22  and  N_23
REMARK                            x       y       z     vdW  Elec       q    Type
REMARK                         _______ _______ _______ _____ _____    ______ ____
ROOT
ATOM      1  O   UNL     1       1.214  11.620  21.116  0.00  0.00    +0.000 OA
ATOM      2  C   UNL     1       0.111  11.157  20.833  0.00  0.00    +0.000 C 
ATOM      3  N   UNL     1      -0.132  10.103  19.962  0.00  0.00    +0.000 N 
ATOM      4  H   UNL     1      -1.072   9.998  19.598  0.00  0.00    +0.000 HD
ENDROOT
BRANCH   3   5
ATOM      5  C   UNL     1       0.882   9.289  19.390  0.00  0.00    +0.000 A 
ATOM      6  C   UNL     1       1.428   9.575  18.133  0.00  0.00    +0.000 A 
ATOM      7  C   UNL     1       2.419   8.782  17.550  0.00  0.00    +0.000 A 
ATOM      8  C   UNL     1       2.851   7.675  18.275  0.00  0.00    +0.000 A 
ATOM      9  C   UNL     1       2.347   7.359  19.533  0.00  0.00    +0.000 A 
ATOM     10  C   UNL     1       1.363   8.187  20.115  0.00  0.00    +0.000 A 
ATOM     11  N   UNL     1       2.941   6.214  20.016  0.00  0.00    +0.000 NA
ATOM     12  C   UNL     1       3.794   5.829  19.084  0.00  0.00    +0.000 A 
ATOM     13  N   UNL     1       3.781   6.700  18.022  0.00  0.00    +0.000 N 
ATOM     14  C   UNL     1       4.655   6.624  16.867  0.00  0.00    +0.000 C 
ATOM     15  C   UNL     1       6.127   6.764  17.243  0.00  0.00    +0.000 C 
ATOM     16  C   UNL     1       6.735   5.481  17.813  0.00  0.00    +0.000 C 
ATOM     17  C   UNL     1       6.173   5.041  19.169  0.00  0.00    +0.000 C 
ATOM     18  C   UNL     1       4.696   4.642  19.138  0.00  0.00    +0.000 C 
ENDBRANCH   3   5
BRANCH   2  19
ATOM     19  C   UNL     1      -1.063  11.819  21.456  0.00  0.00    +0.000 A 
ATOM     20  C   UNL     1      -1.392  11.474  22.770  0.00  0.00    +0.000 A 
ATOM     21  C   UNL     1      -2.570  11.946  23.346  0.00  0.00    +0.000 A 
ATOM     22  C   UNL     1      -3.430  12.759  22.606  0.00  0.00    +0.000 A 
ATOM     23  C   UNL     1      -3.107  13.135  21.295  0.00  0.00    +0.000 A 
ATOM     24  C   UNL     1      -1.920  12.638  20.723  0.00  0.00    +0.000 A 
BRANCH  23  25
ATOM     25  N   UNL     1      -4.025  13.882  20.528  0.00  0.00    +0.000 N 
ATOM     26  C   UNL     1      -5.178  13.357  19.913  0.00  0.00    +0.000 A 
ATOM     27  C   UNL     1      -6.295  14.169  19.709  0.00  0.00    +0.000 A 
ATOM     28  N   UNL     1      -7.476  13.711  19.221  0.00  0.00    +0.000 NA
ATOM     29  C   UNL     1      -7.499  12.393  18.926  0.00  0.00    +0.000 A 
ATOM     30  C   UNL     1      -6.391  11.582  19.082  0.00  0.00    +0.000 A 
ATOM     31  N   UNL     1      -5.223  12.046  19.576  0.00  0.00    +0.000 NA
ATOM     32  H   UNL     1      -3.612  14.614  19.968  0.00  0.00    +0.000 HD
ENDBRANCH  23  25
ENDBRANCH   2  19
TORSDOF 3
ENDMDL
MODEL 9
REMARK VINA RESULT:      -8.5      7.338      9.050
REMARK  Name = 
REMARK  3 active torsions:
REMARK  status: ('A' for Active; 'I' for Inactive)
REMARK    1  A    between atoms: C_2  and  C_18
REMARK    2  A    between atoms: N_3  and  C_4
REMARK    3  A    between atoms: C_22  and  N_23
REMARK                            x       y       z     vdW  Elec       q    Type
REMARK                         _______ _______ _______ _____ _____    ______ ____
ROOT
ATOM      1  O   UNL     1       7.324   9.587  17.347  0.00  0.00    +0.000 OA
ATOM      2  C   UNL     1       7.940   8.822  18.086  0.00  0.00    +0.000 C 
ATOM      3  N   UNL     1       8.964   9.176  18.955  0.00  0.00    +0.000 N 
ATOM      4  H   UNL     1       9.573   8.439  19.293  0.00  0.00    +0.000 HD
ENDROOT
BRANCH   3   5
ATOM      5  C   UNL     1       9.343  10.515  19.241  0.00  0.00    +0.000 A 
ATOM      6  C   UNL     1       9.647  10.927  20.544  0.00  0.00    +0.000 A 
ATOM      7  C   UNL     1      10.012  12.240  20.847  0.00  0.00    +0.000 A 
ATOM      8  C   UNL     1      10.063  13.143  19.789  0.00  0.00    +0.000 A 
ATOM      9  C   UNL     1       9.783  12.776  18.476  0.00  0.00    +0.000 A 
ATOM     10  C   UNL     1       9.438  11.439  18.187  0.00  0.00    +0.000 A 
ATOM     11  N   UNL     1       9.900  13.862  17.638  0.00  0.00    +0.000 NA
ATOM     12  C   UNL     1      10.247  14.878  18.408  0.00  0.00    +0.000 A 
ATOM     13  N   UNL     1      10.373  14.477  19.716  0.00  0.00    +0.000 N 
ATOM     14  C   UNL     1      10.823  15.317  20.808  0.00  0.00    +0.000 C 
ATOM     15  C   UNL     1      12.245  15.828  20.600  0.00  0.00    +0.000 C 
ATOM     16  C   UNL     1      12.333  17.008  19.630  0.00  0.00    +0.000 C 
ATOM     17  C   UNL     1      11.970  16.684  18.177  0.00  0.00    +0.000 C 
ATOM     18  C   UNL     1      10.510  16.280  17.969  0.00  0.00    +0.000 C 
ENDBRANCH   3   5
BRANCH   2  19
ATOM     19  C   UNL     1       7.573   7.386  18.005  0.00  0.00    +0.000 A 
ATOM     20  C   UNL     1       8.208   6.495  18.877  0.00  0.00    +0.000 A 
ATOM     21  C   UNL     1       8.016   5.122  18.739  0.00  0.00    +0.000 A 
ATOM     22  C   UNL     1       7.196   4.632  17.722  0.00  0.00    +0.000 A 
ATOM     23  C   UNL     1       6.533   5.510  16.852  0.00  0.00    +0.000 A 
ATOM     24  C   UNL     1       6.748   6.893  16.995  0.00  0.00    +0.000 A 
BRANCH  23  25
ATOM     25  N   UNL     1       5.779   4.999  15.774  0.00  0.00    +0.000 N 
ATOM     26  C   UNL     1       6.285   4.741  14.485  0.00  0.00    +0.000 A 
ATOM     27  C   UNL     1       5.717   3.739  13.697  0.00  0.00    +0.000 A 
ATOM     28  N   UNL     1       6.215   3.362  12.492  0.00  0.00    +0.000 NA
ATOM     29  C   UNL     1       7.311   4.040  12.089  0.00  0.00    +0.000 A 
ATOM     30  C   UNL     1       7.863   5.063  12.836  0.00  0.00    +0.000 A 
ATOM     31  N   UNL     1       7.365   5.426  14.038  0.00  0.00    +0.000 NA
ATOM     32  H   UNL     1       4.824   5.326  15.734  0.00  0.00    +0.000 HD
ENDBRANCH  23  25
ENDBRANCH   2  19
TORSDOF 3
ENDMDL
