MODEL 1
REMARK VINA RESULT:      -8.5      0.000      0.000
REMARK  Name = 
REMARK  2 active torsions:
REMARK  status: ('A' for Active; 'I' for Inactive)
REMARK    1  A    between atoms: C_2  and  C_3
REMARK    2  A    between atoms: C_16  and  C_17
REMARK                            x       y       z     vdW  Elec       q    Type
REMARK                         _______ _______ _______ _____ _____    ______ ____
ROOT
ATOM      1  O   UNL     1       2.347   6.161  20.789  0.00  0.00    +0.000 OA
ATOM      2  C   UNL     1       2.312   6.620  19.645  0.00  0.00    +0.000 C 
ATOM      3  N   UNL     1       1.617   7.795  19.330  0.00  0.00    +0.000 N 
ATOM      4  C   UNL     1       1.507   8.403  18.002  0.00  0.00    +0.000 C 
ATOM      5  C   UNL     1       1.830   9.892  18.048  0.00  0.00    +0.000 C 
ATOM      6  C   UNL     1       1.037  10.641  19.119  0.00  0.00    +0.000 C 
ATOM      7  C   UNL     1       1.108   9.918  20.469  0.00  0.00    +0.000 C 
ATOM      8  C   UNL     1       0.798   8.425  20.362  0.00  0.00    +0.000 C 
ENDROOT
BRANCH   2   9
ATOM      9  C   UNL     1       3.132   5.922  18.606  0.00  0.00    +0.000 A 
ATOM     10  C   UNL     1       2.659   4.719  18.102  0.00  0.00    +0.000 A 
ATOM     11  C   UNL     1       3.461   4.025  17.204  0.00  0.00    +0.000 A 
ATOM     12  C   UNL     1       4.708   4.548  16.838  0.00  0.00    +0.000 A 
ATOM     13  C   UNL     1       5.568   3.870  15.960  0.00  0.00    +0.000 A 
ATOM     14  C   UNL     1       6.813   4.407  15.639  0.00  0.00    +0.000 A 
ATOM     15  C   UNL     1       7.206   5.618  16.197  0.00  0.00    +0.000 A 
ATOM     16  C   UNL     1       6.345   6.296  17.064  0.00  0.00    +0.000 A 
ATOM     17  C   UNL     1       5.094   5.789  17.389  0.00  0.00    +0.000 A 
ATOM     18  N   UNL     1       4.311   6.477  18.231  0.00  0.00    +0.000 NA
ENDBRANCH   2   9
BRANCH   6  19
ATOM     19  C   UNL     1      -0.379  10.884  18.686  0.00  0.00    +0.000 A 
ATOM     20  N   UNL     1      -1.356  11.399  19.402  0.00  0.00    +0.000 NA
ATOM     21  C   UNL     1      -2.454  11.416  18.579  0.00  0.00    +0.000 A 
ATOM     22  C   UNL     1      -3.759  11.865  18.827  0.00  0.00    +0.000 A 
ATOM     23  C   UNL     1      -4.705  11.777  17.796  0.00  0.00    +0.000 A 
ATOM     24  C   UNL     1      -4.358  11.250  16.550  0.00  0.00    +0.000 A 
ATOM     25  C   UNL     1      -3.062  10.794  16.287  0.00  0.00    +0.000 A 
ATOM     26  C   UNL     1      -2.142  10.895  17.332  0.00  0.00    +0.000 A 
ATOM     27  N   UNL     1      -0.818  10.559  17.426  0.00  0.00    +0.000 N 
ATOM     28  H   UNL     1      -0.260  10.143  16.696  0.00  0.00    +0.000 HD
ENDBRANCH   6  19
TORSDOF 2
ENDMDL
MODEL 2
REMARK VINA RESULT:      -8.2      2.520      3.779
REMARK  Name = 
REMARK  2 active torsions:
REMARK  status: ('A' for Active; 'I' for Inactive)
REMARK    1  A    between atoms: C_2  and  C_3
REMARK    2  A    between atoms: C_16  and  C_17
REMARK                            x       y       z     vdW  Elec       q    Type
REMARK                         _______ _______ _______ _____ _____    ______ ____
ROOT
ATOM      1  O   UNL     1       1.509   9.451  22.341  0.00  0.00    +0.000 OA
ATOM      2  C   UNL     1       0.988   9.293  21.235  0.00  0.00    +0.000 C 
ATOM      3  N   UNL     1      -0.024  10.135  20.756  0.00  0.00    +0.000 N 
ATOM      4  C   UNL     1      -0.711  10.014  19.468  0.00  0.00    +0.000 C 
ATOM      5  C   UNL     1      -0.745  11.350  18.733  0.00  0.00    +0.000 C 
ATOM      6  C   UNL     1      -1.284  12.491  19.596  0.00  0.00    +0.000 C 
ATOM      7  C   UNL     1      -0.599  12.520  20.967  0.00  0.00    +0.000 C 
ATOM      8  C   UNL     1      -0.573  11.152  21.649  0.00  0.00    +0.000 C 
ENDROOT
BRANCH   2   9
ATOM      9  C   UNL     1       1.550   8.213  20.365  0.00  0.00    +0.000 A 
ATOM     10  C   UNL     1       1.988   8.560  19.095  0.00  0.00    +0.000 A 
ATOM     11  C   UNL     1       2.427   7.545  18.253  0.00  0.00    +0.000 A 
ATOM     12  C   UNL     1       2.414   6.218  18.701  0.00  0.00    +0.000 A 
ATOM     13  C   UNL     1       2.817   5.154  17.878  0.00  0.00    +0.000 A 
ATOM     14  C   UNL     1       2.765   3.843  18.346  0.00  0.00    +0.000 A 
ATOM     15  C   UNL     1       2.306   3.588  19.634  0.00  0.00    +0.000 A 
ATOM     16  C   UNL     1       1.914   4.648  20.454  0.00  0.00    +0.000 A 
ATOM     17  C   UNL     1       1.969   5.965  20.016  0.00  0.00    +0.000 A 
ATOM     18  N   UNL     1       1.574   6.943  20.843  0.00  0.00    +0.000 NA
ENDBRANCH   2   9
BRANCH   6  19
ATOM     19  C   UNL     1      -2.778  12.432  19.715  0.00  0.00    +0.000 A 
ATOM     20  N   UNL     1      -3.507  12.722  20.772  0.00  0.00    +0.000 NA
ATOM     21  C   UNL     1      -4.810  12.512  20.397  0.00  0.00    +0.000 A 
ATOM     22  C   UNL     1      -5.995  12.672  21.130  0.00  0.00    +0.000 A 
ATOM     23  C   UNL     1      -7.215  12.395  20.498  0.00  0.00    +0.000 A 
ATOM     24  C   UNL     1      -7.251  11.964  19.170  0.00  0.00    +0.000 A 
ATOM     25  C   UNL     1      -6.079  11.795  18.426  0.00  0.00    +0.000 A 
ATOM     26  C   UNL     1      -4.879  12.080  19.081  0.00  0.00    +0.000 A 
ATOM     27  N   UNL     1      -3.574  12.032  18.671  0.00  0.00    +0.000 N 
ATOM     28  H   UNL     1      -3.252  11.749  17.758  0.00  0.00    +0.000 HD
ENDBRANCH   6  19
TORSDOF 2
ENDMDL
MODEL 3
REMARK VINA RESULT:      -8.1      0.392      1.161
REMARK  Name = 
REMARK  2 active torsions:
REMARK  status: ('A' for Active; 'I' for Inactive)
REMARK    1  A    between atoms: C_2  and  C_3
REMARK    2  A    between atoms: C_16  and  C_17
REMARK                            x       y       z     vdW  Elec       q    Type
REMARK                         _______ _______ _______ _____ _____    ______ ____
ROOT
ATOM      1  O   UNL     1       2.597   6.000  20.683  0.00  0.00    +0.000 OA
ATOM      2  C   UNL     1       2.494   6.459  19.543  0.00  0.00    +0.000 C 
ATOM      3  N   UNL     1       1.764   7.623  19.268  0.00  0.00    +0.000 N 
ATOM      4  C   UNL     1       1.573   8.231  17.949  0.00  0.00    +0.000 C 
ATOM      5  C   UNL     1       1.873   9.725  17.981  0.00  0.00    +0.000 C 
ATOM      6  C   UNL     1       1.126  10.460  19.094  0.00  0.00    +0.000 C 
ATOM      7  C   UNL     1       1.281   9.736  20.437  0.00  0.00    +0.000 C 
ATOM      8  C   UNL     1       0.991   8.238  20.343  0.00  0.00    +0.000 C 
ENDROOT
BRANCH   2   9
ATOM      9  C   UNL     1       3.269   5.777  18.461  0.00  0.00    +0.000 A 
ATOM     10  C   UNL     1       2.766   4.589  17.948  0.00  0.00    +0.000 A 
ATOM     11  C   UNL     1       3.528   3.907  17.007  0.00  0.00    +0.000 A 
ATOM     12  C   UNL     1       4.766   4.427  16.608  0.00  0.00    +0.000 A 
ATOM     13  C   UNL     1       5.587   3.760  15.684  0.00  0.00    +0.000 A 
ATOM     14  C   UNL     1       6.825   4.292  15.330  0.00  0.00    +0.000 A 
ATOM     15  C   UNL     1       7.251   5.488  15.900  0.00  0.00    +0.000 A 
ATOM     16  C   UNL     1       6.428   6.154  16.811  0.00  0.00    +0.000 A 
ATOM     17  C   UNL     1       5.185   5.652  17.170  0.00  0.00    +0.000 A 
ATOM     18  N   UNL     1       4.440   6.329  18.055  0.00  0.00    +0.000 NA
ENDBRANCH   2   9
BRANCH   6  19
ATOM     19  C   UNL     1      -0.315  10.679  18.738  0.00  0.00    +0.000 A 
ATOM     20  N   UNL     1      -0.971  10.170  17.717  0.00  0.00    +0.000 NA
ATOM     21  C   UNL     1      -2.249  10.662  17.810  0.00  0.00    +0.000 A 
ATOM     22  C   UNL     1      -3.363  10.439  16.988  0.00  0.00    +0.000 A 
ATOM     23  C   UNL     1      -4.573  11.065  17.317  0.00  0.00    +0.000 A 
ATOM     24  C   UNL     1      -4.668  11.895  18.436  0.00  0.00    +0.000 A 
ATOM     25  C   UNL     1      -3.567  12.131  19.264  0.00  0.00    +0.000 A 
ATOM     26  C   UNL     1      -2.375  11.494  18.913  0.00  0.00    +0.000 A 
ATOM     27  N   UNL     1      -1.131  11.493  19.483  0.00  0.00    +0.000 N 
ATOM     28  H   UNL     1      -0.859  12.005  20.309  0.00  0.00    +0.000 HD
ENDBRANCH   6  19
TORSDOF 2
ENDMDL
MODEL 4
REMARK VINA RESULT:      -8.1      2.326      4.283
REMARK  Name = 
REMARK  2 active torsions:
REMARK  status: ('A' for Active; 'I' for Inactive)
REMARK    1  A    between atoms: C_2  and  C_3
REMARK    2  A    between atoms: C_16  and  C_17
REMARK                            x       y       z     vdW  Elec       q    Type
REMARK                         _______ _______ _______ _____ _____    ______ ____
ROOT
ATOM      1  O   UNL     1       1.799  11.292  19.902  0.00  0.00    +0.000 OA
ATOM      2  C   UNL     1       1.073  10.422  19.416  0.00  0.00    +0.000 C 
ATOM      3  N   UNL     1      -0.254  10.675  19.045  0.00  0.00    +0.000 N 
ATOM      4  C   UNL     1      -1.193   9.704  18.478  0.00  0.00    +0.000 C 
ATOM      5  C   UNL     1      -1.878  10.259  17.235  0.00  0.00    +0.000 C 
ATOM      6  C   UNL     1      -2.503  11.635  17.463  0.00  0.00    +0.000 C 
ATOM      7  C   UNL     1      -1.513  12.589  18.140  0.00  0.00    +0.000 C 
ATOM      8  C   UNL     1      -0.838  11.974  19.366  0.00  0.00    +0.000 C 
ENDROOT
BRANCH   2   9
ATOM      9  C   UNL     1       1.697   9.091  19.139  0.00  0.00    +0.000 A 
ATOM     10  C   UNL     1       2.311   8.901  17.909  0.00  0.00    +0.000 A 
ATOM     11  C   UNL     1       2.812   7.639  17.614  0.00  0.00    +0.000 A 
ATOM     12  C   UNL     1       2.684   6.606  18.552  0.00  0.00    +0.000 A 
ATOM     13  C   UNL     1       3.145   5.305  18.289  0.00  0.00    +0.000 A 
ATOM     14  C   UNL     1       2.977   4.295  19.233  0.00  0.00    +0.000 A 
ATOM     15  C   UNL     1       2.344   4.576  20.439  0.00  0.00    +0.000 A 
ATOM     16  C   UNL     1       1.895   5.872  20.702  0.00  0.00    +0.000 A 
ATOM     17  C   UNL     1       2.062   6.900  19.784  0.00  0.00    +0.000 A 
ATOM     18  N   UNL     1       1.605   8.123  20.085  0.00  0.00    +0.000 NA
ENDBRANCH   2   9
BRANCH   6  19
ATOM     19  C   UNL     1      -3.793  11.533  18.222  0.00  0.00    +0.000 A 
ATOM     20  N   UNL     1      -4.742  10.633  18.069  0.00  0.00    +0.000 NA
ATOM     21  C   UNL     1      -5.716  10.956  18.980  0.00  0.00    +0.000 A 
ATOM     22  C   UNL     1      -6.941  10.329  19.250  0.00  0.00    +0.000 A 
ATOM     23  C   UNL     1      -7.760  10.865  20.253  0.00  0.00    +0.000 A 
ATOM     24  C   UNL     1      -7.368  12.001  20.965  0.00  0.00    +0.000 A 
ATOM     25  C   UNL     1      -6.152  12.640  20.706  0.00  0.00    +0.000 A 
ATOM     26  C   UNL     1      -5.356  12.084  19.703  0.00  0.00    +0.000 A 
ATOM     27  N   UNL     1      -4.133  12.435  19.200  0.00  0.00    +0.000 N 
ATOM     28  H   UNL     1      -3.577  13.223  19.494  0.00  0.00    +0.000 HD
ENDBRANCH   6  19
TORSDOF 2
ENDMDL
MODEL 5
REMARK VINA RESULT:      -8.1      2.502      4.036
REMARK  Name = 
REMARK  2 active torsions:
REMARK  status: ('A' for Active; 'I' for Inactive)
REMARK    1  A    between atoms: C_2  and  C_3
REMARK    2  A    between atoms: C_16  and  C_17
REMARK                            x       y       z     vdW  Elec       q    Type
REMARK                         _______ _______ _______ _____ _____    ______ ____
ROOT
ATOM      1  O   UNL     1       1.456   9.655  22.239  0.00  0.00    +0.000 OA
ATOM      2  C   UNL     1       0.925   9.432  21.149  0.00  0.00    +0.000 C 
ATOM      3  N   UNL     1      -0.131  10.211  20.656  0.00  0.00    +0.000 N 
ATOM      4  C   UNL     1      -0.831  10.012  19.385  0.00  0.00    +0.000 C 
ATOM      5  C   UNL     1      -0.935  11.315  18.601  0.00  0.00    +0.000 C 
ATOM      6  C   UNL     1      -1.509  12.464  19.429  0.00  0.00    +0.000 C 
ATOM      7  C   UNL     1      -0.805  12.576  20.787  0.00  0.00    +0.000 C 
ATOM      8  C   UNL     1      -0.708  11.237  21.519  0.00  0.00    +0.000 C 
ENDROOT
BRANCH   2   9
ATOM      9  C   UNL     1       1.520   8.345  20.311  0.00  0.00    +0.000 A 
ATOM     10  C   UNL     1       1.949   8.668  19.032  0.00  0.00    +0.000 A 
ATOM     11  C   UNL     1       2.419   7.643  18.219  0.00  0.00    +0.000 A 
ATOM     12  C   UNL     1       2.444   6.329  18.705  0.00  0.00    +0.000 A 
ATOM     13  C   UNL     1       2.879   5.254  17.913  0.00  0.00    +0.000 A 
ATOM     14  C   UNL     1       2.865   3.956  18.419  0.00  0.00    +0.000 A 
ATOM     15  C   UNL     1       2.412   3.725  19.713  0.00  0.00    +0.000 A 
ATOM     16  C   UNL     1       1.988   4.796  20.502  0.00  0.00    +0.000 A 
ATOM     17  C   UNL     1       2.005   6.101  20.027  0.00  0.00    +0.000 A 
ATOM     18  N   UNL     1       1.580   7.090  20.824  0.00  0.00    +0.000 NA
ENDBRANCH   2   9
BRANCH   6  19
ATOM     19  C   UNL     1      -2.997  12.346  19.577  0.00  0.00    +0.000 A 
ATOM     20  N   UNL     1      -3.847  11.829  18.714  0.00  0.00    +0.000 NA
ATOM     21  C   UNL     1      -5.087  11.950  19.290  0.00  0.00    +0.000 A 
ATOM     22  C   UNL     1      -6.345  11.559  18.811  0.00  0.00    +0.000 A 
ATOM     23  C   UNL     1      -7.469  11.794  19.615  0.00  0.00    +0.000 A 
ATOM     24  C   UNL     1      -7.341  12.408  20.863  0.00  0.00    +0.000 A 
ATOM     25  C   UNL     1      -6.094  12.807  21.354  0.00  0.00    +0.000 A 
ATOM     26  C   UNL     1      -4.992  12.560  20.533  0.00  0.00    +0.000 A 
ATOM     27  N   UNL     1      -3.655  12.806  20.690  0.00  0.00    +0.000 N 
ATOM     28  H   UNL     1      -3.226  13.252  21.487  0.00  0.00    +0.000 HD
ENDBRANCH   6  19
TORSDOF 2
ENDMDL
MODEL 6
REMARK VINA RESULT:      -8.0      2.049      3.188
REMARK  Name = 
REMARK  2 active torsions:
REMARK  status: ('A' for Active; 'I' for Inactive)
REMARK    1  A    between atoms: C_2  and  C_3
REMARK    2  A    between atoms: C_16  and  C_17
REMARK                            x       y       z     vdW  Elec       q    Type
REMARK                         _______ _______ _______ _____ _____    ______ ____
ROOT
ATOM      1  O   UNL     1       1.432   9.359  22.395  0.00  0.00    +0.000 OA
ATOM      2  C   UNL     1       0.937   9.112  21.293  0.00  0.00    +0.000 C 
ATOM      3  N   UNL     1      -0.025   9.940  20.700  0.00  0.00    +0.000 N 
ATOM      4  C   UNL     1      -0.677   9.718  19.408  0.00  0.00    +0.000 C 
ATOM      5  C   UNL     1      -0.635  10.973  18.544  0.00  0.00    +0.000 C 
ATOM      6  C   UNL     1      -1.151  12.215  19.272  0.00  0.00    +0.000 C 
ATOM      7  C   UNL     1      -0.507  12.354  20.656  0.00  0.00    +0.000 C 
ATOM      8  C   UNL     1      -0.557  11.061  21.469  0.00  0.00    +0.000 C 
ENDROOT
BRANCH   2   9
ATOM      9  C   UNL     1       1.480   7.930  20.552  0.00  0.00    +0.000 A 
ATOM     10  C   UNL     1       1.250   6.668  21.081  0.00  0.00    +0.000 A 
ATOM     11  C   UNL     1       1.829   5.576  20.445  0.00  0.00    +0.000 A 
ATOM     12  C   UNL     1       2.619   5.775  19.305  0.00  0.00    +0.000 A 
ATOM     13  C   UNL     1       3.251   4.709  18.646  0.00  0.00    +0.000 A 
ATOM     14  C   UNL     1       4.053   4.946  17.531  0.00  0.00    +0.000 A 
ATOM     15  C   UNL     1       4.231   6.247  17.074  0.00  0.00    +0.000 A 
ATOM     16  C   UNL     1       3.594   7.306  17.726  0.00  0.00    +0.000 A 
ATOM     17  C   UNL     1       2.779   7.094  18.831  0.00  0.00    +0.000 A 
ATOM     18  N   UNL     1       2.198   8.147  19.422  0.00  0.00    +0.000 NA
ENDBRANCH   2   9
BRANCH   6  19
ATOM     19  C   UNL     1      -2.649  12.224  19.346  0.00  0.00    +0.000 A 
ATOM     20  N   UNL     1      -3.397  12.622  20.355  0.00  0.00    +0.000 NA
ATOM     21  C   UNL     1      -4.696  12.437  19.954  0.00  0.00    +0.000 A 
ATOM     22  C   UNL     1      -5.894  12.700  20.633  0.00  0.00    +0.000 A 
ATOM     23  C   UNL     1      -7.106  12.424  19.985  0.00  0.00    +0.000 A 
ATOM     24  C   UNL     1      -7.120  11.896  18.692  0.00  0.00    +0.000 A 
ATOM     25  C   UNL     1      -5.935  11.625  18.002  0.00  0.00    +0.000 A 
ATOM     26  C   UNL     1      -4.744  11.910  18.672  0.00  0.00    +0.000 A 
ATOM     27  N   UNL     1      -3.431  11.779  18.309  0.00  0.00    +0.000 N 
ATOM     28  H   UNL     1      -3.094  11.415  17.431  0.00  0.00    +0.000 HD
ENDBRANCH   6  19
TORSDOF 2
ENDMDL
MODEL 7
REMARK VINA RESULT:      -7.8      1.921      3.150
REMARK  Name = 
REMARK  2 active torsions:
REMARK  status: ('A' for Active; 'I' for Inactive)
REMARK    1  A    between atoms: C_2  and  C_3
REMARK    2  A    between atoms: C_16  and  C_17
REMARK                            x       y       z     vdW  Elec       q    Type
REMARK                         _______ _______ _______ _____ _____    ______ ____
ROOT
ATOM      1  O   UNL     1       1.415   9.177  22.192  0.00  0.00    +0.000 OA
ATOM      2  C   UNL     1       0.975   8.935  21.065  0.00  0.00    +0.000 C 
ATOM      3  N   UNL     1       0.025   9.754  20.440  0.00  0.00    +0.000 N 
ATOM      4  C   UNL     1      -0.564   9.537  19.117  0.00  0.00    +0.000 C 
ATOM      5  C   UNL     1      -0.506  10.805  18.272  0.00  0.00    +0.000 C 
ATOM      6  C   UNL     1      -1.078  12.027  18.991  0.00  0.00    +0.000 C 
ATOM      7  C   UNL     1      -0.500  12.159  20.405  0.00  0.00    +0.000 C 
ATOM      8  C   UNL     1      -0.562  10.855  21.199  0.00  0.00    +0.000 C 
ENDROOT
BRANCH   2   9
ATOM      9  C   UNL     1       1.573   7.774  20.336  0.00  0.00    +0.000 A 
ATOM     10  C   UNL     1       1.382   6.505  20.862  0.00  0.00    +0.000 A 
ATOM     11  C   UNL     1       2.011   5.434  20.237  0.00  0.00    +0.000 A 
ATOM     12  C   UNL     1       2.811   5.662  19.110  0.00  0.00    +0.000 A 
ATOM     13  C   UNL     1       3.493   4.619  18.462  0.00  0.00    +0.000 A 
ATOM     14  C   UNL     1       4.301   4.885  17.360  0.00  0.00    +0.000 A 
ATOM     15  C   UNL     1       4.438   6.191  16.903  0.00  0.00    +0.000 A 
ATOM     16  C   UNL     1       3.752   7.226  17.543  0.00  0.00    +0.000 A 
ATOM     17  C   UNL     1       2.929   6.985  18.636  0.00  0.00    +0.000 A 
ATOM     18  N   UNL     1       2.300   8.017  19.216  0.00  0.00    +0.000 NA
ENDBRANCH   2   9
BRANCH   6  19
ATOM     19  C   UNL     1      -2.579  12.008  18.998  0.00  0.00    +0.000 A 
ATOM     20  N   UNL     1      -3.373  11.334  18.193  0.00  0.00    +0.000 NA
ATOM     21  C   UNL     1      -4.652  11.641  18.585  0.00  0.00    +0.000 A 
ATOM     22  C   UNL     1      -5.881  11.199  18.075  0.00  0.00    +0.000 A 
ATOM     23  C   UNL     1      -7.060  11.665  18.672  0.00  0.00    +0.000 A 
ATOM     24  C   UNL     1      -7.013  12.555  19.748  0.00  0.00    +0.000 A 
ATOM     25  C   UNL     1      -5.796  13.009  20.266  0.00  0.00    +0.000 A 
ATOM     26  C   UNL     1      -4.638  12.527  19.652  0.00  0.00    +0.000 A 
ATOM     27  N   UNL     1      -3.310  12.749  19.893  0.00  0.00    +0.000 N 
ATOM     28  H   UNL     1      -2.931  13.355  20.605  0.00  0.00    +0.000 HD
ENDBRANCH   6  19
TORSDOF 2
ENDMDL
MODEL 8
REMARK VINA RESULT:      -7.7      2.457      4.349
REMARK  Name = 
REMARK  2 active torsions:
REMARK  status: ('A' for Active; 'I' for Inactive)
REMARK    1  A    between atoms: C_2  and  C_3
REMARK    2  A    between atoms: C_16  and  C_17
REMARK                            x       y       z     vdW  Elec       q    Type
REMARK                         _______ _______ _______ _____ _____    ______ ____
ROOT
ATOM      1  O   UNL     1       1.902  11.498  19.186  0.00  0.00    +0.000 OA
ATOM      2  C   UNL     1       1.121  10.563  18.999  0.00  0.00    +0.000 C 
ATOM      3  N   UNL     1      -0.248  10.763  18.776  0.00  0.00    +0.000 N 
ATOM      4  C   UNL     1      -1.250   9.716  18.562  0.00  0.00    +0.000 C 
ATOM      5  C   UNL     1      -2.111  10.017  17.341  0.00  0.00    +0.000 C 
ATOM      6  C   UNL     1      -2.708  11.424  17.364  0.00  0.00    +0.000 C 
ATOM      7  C   UNL     1      -1.638  12.475  17.682  0.00  0.00    +0.000 C 
ATOM      8  C   UNL     1      -0.790  12.113  18.900  0.00  0.00    +0.000 C 
ENDROOT
BRANCH   2   9
ATOM      9  C   UNL     1       1.709   9.190  18.919  0.00  0.00    +0.000 A 
ATOM     10  C   UNL     1       2.367   8.829  17.752  0.00  0.00    +0.000 A 
ATOM     11  C   UNL     1       2.836   7.525  17.640  0.00  0.00    +0.000 A 
ATOM     12  C   UNL     1       2.633   6.622  18.692  0.00  0.00    +0.000 A 
ATOM     13  C   UNL     1       3.059   5.287  18.615  0.00  0.00    +0.000 A 
ATOM     14  C   UNL     1       2.817   4.409  19.669  0.00  0.00    +0.000 A 
ATOM     15  C   UNL     1       2.145   4.857  20.801  0.00  0.00    +0.000 A 
ATOM     16  C   UNL     1       1.730   6.189  20.879  0.00  0.00    +0.000 A 
ATOM     17  C   UNL     1       1.971   7.087  19.848  0.00  0.00    +0.000 A 
ATOM     18  N   UNL     1       1.544   8.352  19.973  0.00  0.00    +0.000 NA
ENDBRANCH   2   9
BRANCH   6  19
ATOM     19  C   UNL     1      -3.875  11.510  18.302  0.00  0.00    +0.000 A 
ATOM     20  N   UNL     1      -4.018  12.322  19.328  0.00  0.00    +0.000 NA
ATOM     21  C   UNL     1      -5.240  12.023  19.877  0.00  0.00    +0.000 A 
ATOM     22  C   UNL     1      -5.893  12.587  20.982  0.00  0.00    +0.000 A 
ATOM     23  C   UNL     1      -7.159  12.097  21.332  0.00  0.00    +0.000 A 
ATOM     24  C   UNL     1      -7.756  11.068  20.599  0.00  0.00    +0.000 A 
ATOM     25  C   UNL     1      -7.116  10.493  19.497  0.00  0.00    +0.000 A 
ATOM     26  C   UNL     1      -5.857  11.001  19.171  0.00  0.00    +0.000 A 
ATOM     27  N   UNL     1      -4.968  10.688  18.179  0.00  0.00    +0.000 N 
ATOM     28  H   UNL     1      -5.093   9.974  17.477  0.00  0.00    +0.000 HD
ENDBRANCH   6  19
TORSDOF 2
ENDMDL
MODEL 9
REMARK VINA RESULT:      -7.7      1.920      3.285
REMARK  Name = 
REMARK  2 active torsions:
REMARK  status: ('A' for Active; 'I' for Inactive)
REMARK    1  A    between atoms: C_2  and  C_3
REMARK    2  A    between atoms: C_16  and  C_17
REMARK                            x       y       z     vdW  Elec       q    Type
REMARK                         _______ _______ _______ _____ _____    ______ ____
ROOT
ATOM      1  O   UNL     1       1.262   8.713  22.089  0.00  0.00    +0.000 OA
ATOM      2  C   UNL     1       1.014   8.825  20.886  0.00  0.00    +0.000 C 
ATOM      3  N   UNL     1       0.065   9.733  20.398  0.00  0.00    +0.000 N 
ATOM      4  C   UNL     1      -0.306   9.923  18.994  0.00  0.00    +0.000 C 
ATOM      5  C   UNL     1      -0.289  11.399  18.613  0.00  0.00    +0.000 C 
ATOM      6  C   UNL     1      -1.100  12.271  19.571  0.00  0.00    +0.000 C 
ATOM      7  C   UNL     1      -0.742  11.972  21.031  0.00  0.00    +0.000 C 
ATOM      8  C   UNL     1      -0.751  10.478  21.353  0.00  0.00    +0.000 C 
ENDROOT
BRANCH   2   9
ATOM      9  C   UNL     1       1.845   8.015  19.942  0.00  0.00    +0.000 A 
ATOM     10  C   UNL     1       2.267   8.616  18.765  0.00  0.00    +0.000 A 
ATOM     11  C   UNL     1       2.962   7.839  17.845  0.00  0.00    +0.000 A 
ATOM     12  C   UNL     1       3.212   6.490  18.125  0.00  0.00    +0.000 A 
ATOM     13  C   UNL     1       3.881   5.656  17.215  0.00  0.00    +0.000 A 
ATOM     14  C   UNL     1       4.089   4.311  17.515  0.00  0.00    +0.000 A 
ATOM     15  C   UNL     1       3.625   3.792  18.719  0.00  0.00    +0.000 A 
ATOM     16  C   UNL     1       2.968   4.626  19.626  0.00  0.00    +0.000 A 
ATOM     17  C   UNL     1       2.760   5.973  19.358  0.00  0.00    +0.000 A 
ATOM     18  N   UNL     1       2.117   6.725  20.261  0.00  0.00    +0.000 NA
ENDBRANCH   2   9
BRANCH   6  19
ATOM     19  C   UNL     1      -2.573  12.143  19.316  0.00  0.00    +0.000 A 
ATOM     20  N   UNL     1      -3.159  11.609  18.266  0.00  0.00    +0.000 NA
ATOM     21  C   UNL     1      -4.508  11.729  18.488  0.00  0.00    +0.000 A 
ATOM     22  C   UNL     1      -5.591  11.322  17.696  0.00  0.00    +0.000 A 
ATOM     23  C   UNL     1      -6.890  11.559  18.165  0.00  0.00    +0.000 A 
ATOM     24  C   UNL     1      -7.103  12.190  19.393  0.00  0.00    +0.000 A 
ATOM     25  C   UNL     1      -6.035  12.605  20.194  0.00  0.00    +0.000 A 
ATOM     26  C   UNL     1      -4.752  12.355  19.701  0.00  0.00    +0.000 A 
ATOM     27  N   UNL     1      -3.507  12.614  20.207  0.00  0.00    +0.000 N 
ATOM     28  H   UNL     1      -3.308  13.073  21.083  0.00  0.00    +0.000 HD
ENDBRANCH   6  19
TORSDOF 2
ENDMDL
