MODEL 1
REMARK VINA RESULT:      -8.7      0.000      0.000
REMARK  Name = 
REMARK  8 active torsions:
REMARK  status: ('A' for Active; 'I' for Inactive)
REMARK    1  A    between atoms: C_1  and  N_2
REMARK    2  A    between atoms: C_6  and  N_7
REMARK    3  A    between atoms: C_8  and  C_9
REMARK    4  A    between atoms: C_9  and  C_10
REMARK    5  A    between atoms: C_14  and  N_15
REMARK    6  A    between atoms: C_20  and  C_21
REMARK    7  A    between atoms: C_21  and  O_22
REMARK    8  A    between atoms: C_24  and  C_25
REMARK                            x       y       z     vdW  Elec       q    Type
REMARK                         _______ _______ _______ _____ _____    ______ ____
ROOT
ATOM      1  N   UNL     1       4.174   4.457  19.022  0.00  0.00    +0.000 N 
ATOM      2  C   UNL     1       5.513   5.081  19.172  0.00  0.00    +0.000 C 
ATOM      3  C   UNL     1       6.046   5.021  17.774  0.00  0.00    +0.000 A 
ATOM      4  C   UNL     1       5.435   3.933  17.143  0.00  0.00    +0.000 A 
ATOM      5  C   UNL     1       5.589   3.654  15.797  0.00  0.00    +0.000 A 
ATOM      6  C   UNL     1       6.376   4.529  15.040  0.00  0.00    +0.000 A 
ATOM      7  C   UNL     1       6.982   5.645  15.669  0.00  0.00    +0.000 A 
ATOM      8  C   UNL     1       6.825   5.915  17.047  0.00  0.00    +0.000 A 
ATOM      9  C   UNL     1       4.336   3.466  18.021  0.00  0.00    +0.000 C 
ATOM     10  O   UNL     1       3.606   2.518  17.755  0.00  0.00    +0.000 OA
ENDROOT
BRANCH   1  15
ATOM     11  C   UNL     1       1.968   7.225  19.927  0.00  0.00    +0.000 A 
ATOM     12  C   UNL     1       2.344   8.130  18.928  0.00  0.00    +0.000 A 
ATOM     13  C   UNL     1       2.987   7.683  17.774  0.00  0.00    +0.000 A 
ATOM     14  C   UNL     1       3.349   6.345  17.658  0.00  0.00    +0.000 A 
ATOM     15  C   UNL     1       3.172   5.480  18.746  0.00  0.00    +0.000 A 
ATOM     16  C   UNL     1       2.339   5.879  19.802  0.00  0.00    +0.000 A 
BRANCH  11  17
ATOM     17  C   UNL     1       1.277   7.718  21.172  0.00  0.00    +0.000 C 
BRANCH  17  19
ATOM     18  N   UNL     1      -0.163   9.680  21.106  0.00  0.00    +0.000 NA
ATOM     19  C   UNL     1       1.039   9.203  21.146  0.00  0.00    +0.000 C 
BRANCH  18  25
ATOM     20  C   UNL     1      -1.201  10.987  18.670  0.00  0.00    +0.000 C 
ATOM     21  N   UNL     1      -0.665  11.633  19.837  0.00  0.00    +0.000 N 
ATOM     22  C   UNL     1      -0.513  12.970  20.010  0.00  0.00    +0.000 A 
ATOM     23  N   UNL     1      -0.027  13.208  21.203  0.00  0.00    +0.000 NA
ATOM     24  N   UNL     1       0.159  11.992  21.815  0.00  0.00    +0.000 NA
ATOM     25  C   UNL     1      -0.212  11.031  20.985  0.00  0.00    +0.000 A 
ENDBRANCH  18  25
ENDBRANCH  17  19
ENDBRANCH  11  17
ENDBRANCH   1  15
BRANCH   8  26
ATOM     26  C   UNL     1       7.392   7.189  17.618  0.00  0.00    +0.000 C 
ATOM     27  F   UNL     1       6.456   8.134  17.911  0.00  0.00    +0.000 F 
ATOM     28  F   UNL     1       8.073   6.978  18.776  0.00  0.00    +0.000 F 
ATOM     29  F   UNL     1       8.272   7.794  16.772  0.00  0.00    +0.000 F 
ENDBRANCH   8  26
BRANCH   6  30
ATOM     30  C   UNL     1       6.530   4.330  13.555  0.00  0.00    +0.000 C 
BRANCH  30  31
ATOM     31  O   UNL     1       6.316   2.966  13.221  0.00  0.00    +0.000 OA
ATOM     32  H   UNL     1       5.951   2.944  12.320  0.00  0.00    +0.000 HD
ENDBRANCH  30  31
ENDBRANCH   6  30
TORSDOF 7
ENDMDL
MODEL 2
REMARK VINA RESULT:      -8.7      0.641      1.268
REMARK  Name = 
REMARK  8 active torsions:
REMARK  status: ('A' for Active; 'I' for Inactive)
REMARK    1  A    between atoms: C_1  and  N_2
REMARK    2  A    between atoms: C_6  and  N_7
REMARK    3  A    between atoms: C_8  and  C_9
REMARK    4  A    between atoms: C_9  and  C_10
REMARK    5  A    between atoms: C_14  and  N_15
REMARK    6  A    between atoms: C_20  and  C_21
REMARK    7  A    between atoms: C_21  and  O_22
REMARK    8  A    between atoms: C_24  and  C_25
REMARK                            x       y       z     vdW  Elec       q    Type
REMARK                         _______ _______ _______ _____ _____    ______ ____
ROOT
ATOM      1  N   UNL     1       4.089   4.522  19.053  0.00  0.00    +0.000 N 
ATOM      2  C   UNL     1       5.436   5.122  19.216  0.00  0.00    +0.000 C 
ATOM      3  C   UNL     1       5.985   5.048  17.825  0.00  0.00    +0.000 A 
ATOM      4  C   UNL     1       5.362   3.969  17.190  0.00  0.00    +0.000 A 
ATOM      5  C   UNL     1       5.528   3.682  15.847  0.00  0.00    +0.000 A 
ATOM      6  C   UNL     1       6.340   4.539  15.097  0.00  0.00    +0.000 A 
ATOM      7  C   UNL     1       6.958   5.646  15.730  0.00  0.00    +0.000 A 
ATOM      8  C   UNL     1       6.789   5.925  17.104  0.00  0.00    +0.000 A 
ATOM      9  C   UNL     1       4.245   3.524  18.057  0.00  0.00    +0.000 C 
ATOM     10  O   UNL     1       3.501   2.589  17.784  0.00  0.00    +0.000 OA
ENDROOT
BRANCH   1  15
ATOM     11  C   UNL     1       2.038   7.429  19.879  0.00  0.00    +0.000 A 
ATOM     12  C   UNL     1       2.387   8.248  18.799  0.00  0.00    +0.000 A 
ATOM     13  C   UNL     1       2.945   7.698  17.646  0.00  0.00    +0.000 A 
ATOM     14  C   UNL     1       3.252   6.342  17.605  0.00  0.00    +0.000 A 
ATOM     15  C   UNL     1       3.109   5.562  18.761  0.00  0.00    +0.000 A 
ATOM     16  C   UNL     1       2.353   6.065  19.830  0.00  0.00    +0.000 A 
BRANCH  11  17
ATOM     17  C   UNL     1       1.438   8.034  21.123  0.00  0.00    +0.000 C 
BRANCH  17  19
ATOM     18  N   UNL     1      -0.402   9.606  20.858  0.00  0.00    +0.000 NA
ATOM     19  C   UNL     1       0.877   9.408  20.880  0.00  0.00    +0.000 C 
BRANCH  18  25
ATOM     20  C   UNL     1      -1.408  11.514  22.874  0.00  0.00    +0.000 C 
ATOM     21  N   UNL     1      -1.252  11.747  21.465  0.00  0.00    +0.000 N 
ATOM     22  C   UNL     1      -1.573  12.889  20.804  0.00  0.00    +0.000 A 
ATOM     23  N   UNL     1      -1.268  12.766  19.537  0.00  0.00    +0.000 NA
ATOM     24  N   UNL     1      -0.752  11.503  19.364  0.00  0.00    +0.000 NA
ATOM     25  C   UNL     1      -0.753  10.875  20.528  0.00  0.00    +0.000 A 
ENDBRANCH  18  25
ENDBRANCH  17  19
ENDBRANCH  11  17
ENDBRANCH   1  15
BRANCH   8  26
ATOM     26  C   UNL     1       7.373   7.190  17.679  0.00  0.00    +0.000 C 
ATOM     27  F   UNL     1       8.083   7.006  18.825  0.00  0.00    +0.000 F 
ATOM     28  F   UNL     1       8.224   7.806  16.815  0.00  0.00    +0.000 F 
ATOM     29  F   UNL     1       6.417   8.113  17.982  0.00  0.00    +0.000 F 
ENDBRANCH   8  26
BRANCH   6  30
ATOM     30  C   UNL     1       6.509   4.332  13.615  0.00  0.00    +0.000 C 
BRANCH  30  31
ATOM     31  O   UNL     1       6.300   2.966  13.286  0.00  0.00    +0.000 OA
ATOM     32  H   UNL     1       6.952   2.448  13.787  0.00  0.00    +0.000 HD
ENDBRANCH  30  31
ENDBRANCH   6  30
TORSDOF 7
ENDMDL
MODEL 3
REMARK VINA RESULT:      -8.7      0.932      1.285
REMARK  Name = 
REMARK  8 active torsions:
REMARK  status: ('A' for Active; 'I' for Inactive)
REMARK    1  A    between atoms: C_1  and  N_2
REMARK    2  A    between atoms: C_6  and  N_7
REMARK    3  A    between atoms: C_8  and  C_9
REMARK    4  A    between atoms: C_9  and  C_10
REMARK    5  A    between atoms: C_14  and  N_15
REMARK    6  A    between atoms: C_20  and  C_21
REMARK    7  A    between atoms: C_21  and  O_22
REMARK    8  A    between atoms: C_24  and  C_25
REMARK                            x       y       z     vdW  Elec       q    Type
REMARK                         _______ _______ _______ _____ _____    ______ ____
ROOT
ATOM      1  N   UNL     1       4.141   4.531  19.167  0.00  0.00    +0.000 N 
ATOM      2  C   UNL     1       5.483   5.153  19.276  0.00  0.00    +0.000 C 
ATOM      3  C   UNL     1       6.005   5.024  17.878  0.00  0.00    +0.000 A 
ATOM      4  C   UNL     1       5.384   3.910  17.305  0.00  0.00    +0.000 A 
ATOM      5  C   UNL     1       5.526   3.566  15.973  0.00  0.00    +0.000 A 
ATOM      6  C   UNL     1       6.312   4.398  15.169  0.00  0.00    +0.000 A 
ATOM      7  C   UNL     1       6.929   5.539  15.739  0.00  0.00    +0.000 A 
ATOM      8  C   UNL     1       6.784   5.877  17.104  0.00  0.00    +0.000 A 
ATOM      9  C   UNL     1       4.289   3.492  18.213  0.00  0.00    +0.000 C 
ATOM     10  O   UNL     1       3.552   2.537  17.998  0.00  0.00    +0.000 OA
ENDROOT
BRANCH   1  15
ATOM     11  C   UNL     1       1.846   7.253  19.985  0.00  0.00    +0.000 A 
ATOM     12  C   UNL     1       2.268   8.180  19.025  0.00  0.00    +0.000 A 
ATOM     13  C   UNL     1       2.983   7.762  17.904  0.00  0.00    +0.000 A 
ATOM     14  C   UNL     1       3.370   6.431  17.787  0.00  0.00    +0.000 A 
ATOM     15  C   UNL     1       3.142   5.545  18.849  0.00  0.00    +0.000 A 
ATOM     16  C   UNL     1       2.243   5.915  19.861  0.00  0.00    +0.000 A 
BRANCH  11  17
ATOM     17  C   UNL     1       1.077   7.716  21.196  0.00  0.00    +0.000 C 
BRANCH  17  19
ATOM     18  N   UNL     1       0.059   9.866  21.715  0.00  0.00    +0.000 NA
ATOM     19  C   UNL     1       1.119   9.210  21.366  0.00  0.00    +0.000 C 
BRANCH  18  25
ATOM     20  C   UNL     1      -1.866  11.663  23.050  0.00  0.00    +0.000 C 
ATOM     21  N   UNL     1      -0.686  12.045  22.323  0.00  0.00    +0.000 N 
ATOM     22  C   UNL     1      -0.266  13.315  22.096  0.00  0.00    +0.000 A 
ATOM     23  N   UNL     1       0.862  13.294  21.431  0.00  0.00    +0.000 NA
ATOM     24  N   UNL     1       1.174  11.975  21.202  0.00  0.00    +0.000 NA
ATOM     25  C   UNL     1       0.230  11.213  21.729  0.00  0.00    +0.000 A 
ENDBRANCH  18  25
ENDBRANCH  17  19
ENDBRANCH  11  17
ENDBRANCH   1  15
BRANCH   8  26
ATOM     26  C   UNL     1       7.362   7.173  17.609  0.00  0.00    +0.000 C 
ATOM     27  F   UNL     1       8.230   7.771  16.746  0.00  0.00    +0.000 F 
ATOM     28  F   UNL     1       6.403   8.103  17.865  0.00  0.00    +0.000 F 
ATOM     29  F   UNL     1       8.052   7.018  18.774  0.00  0.00    +0.000 F 
ENDBRANCH   8  26
BRANCH   6  30
ATOM     30  C   UNL     1       6.454   4.127  13.694  0.00  0.00    +0.000 C 
BRANCH  30  31
ATOM     31  O   UNL     1       5.191   3.791  13.137  0.00  0.00    +0.000 OA
ATOM     32  H   UNL     1       4.531   4.370  13.553  0.00  0.00    +0.000 HD
ENDBRANCH  30  31
ENDBRANCH   6  30
TORSDOF 7
ENDMDL
MODEL 4
REMARK VINA RESULT:      -8.5      0.758      1.081
REMARK  Name = 
REMARK  8 active torsions:
REMARK  status: ('A' for Active; 'I' for Inactive)
REMARK    1  A    between atoms: C_1  and  N_2
REMARK    2  A    between atoms: C_6  and  N_7
REMARK    3  A    between atoms: C_8  and  C_9
REMARK    4  A    between atoms: C_9  and  C_10
REMARK    5  A    between atoms: C_14  and  N_15
REMARK    6  A    between atoms: C_20  and  C_21
REMARK    7  A    between atoms: C_21  and  O_22
REMARK    8  A    between atoms: C_24  and  C_25
REMARK                            x       y       z     vdW  Elec       q    Type
REMARK                         _______ _______ _______ _____ _____    ______ ____
ROOT
ATOM      1  N   UNL     1       4.059   4.587  19.076  0.00  0.00    +0.000 N 
ATOM      2  C   UNL     1       5.413   5.173  19.232  0.00  0.00    +0.000 C 
ATOM      3  C   UNL     1       5.959   5.082  17.840  0.00  0.00    +0.000 A 
ATOM      4  C   UNL     1       5.323   4.005  17.216  0.00  0.00    +0.000 A 
ATOM      5  C   UNL     1       5.483   3.706  15.874  0.00  0.00    +0.000 A 
ATOM      6  C   UNL     1       6.303   4.548  15.116  0.00  0.00    +0.000 A 
ATOM      7  C   UNL     1       6.935   5.653  15.739  0.00  0.00    +0.000 A 
ATOM      8  C   UNL     1       6.771   5.944  17.112  0.00  0.00    +0.000 A 
ATOM      9  C   UNL     1       4.202   3.580  18.087  0.00  0.00    +0.000 C 
ATOM     10  O   UNL     1       3.448   2.650  17.824  0.00  0.00    +0.000 OA
ENDROOT
BRANCH   1  15
ATOM     11  C   UNL     1       1.986   7.478  19.904  0.00  0.00    +0.000 A 
ATOM     12  C   UNL     1       2.370   8.321  18.855  0.00  0.00    +0.000 A 
ATOM     13  C   UNL     1       2.964   7.797  17.708  0.00  0.00    +0.000 A 
ATOM     14  C   UNL     1       3.271   6.442  17.645  0.00  0.00    +0.000 A 
ATOM     15  C   UNL     1       3.090   5.635  18.777  0.00  0.00    +0.000 A 
ATOM     16  C   UNL     1       2.301   6.114  19.834  0.00  0.00    +0.000 A 
BRANCH  11  17
ATOM     17  C   UNL     1       1.348   8.054  21.142  0.00  0.00    +0.000 C 
BRANCH  17  19
ATOM     18  N   UNL     1       0.970  10.435  21.488  0.00  0.00    +0.000 NA
ATOM     19  C   UNL     1       0.633   9.349  20.869  0.00  0.00    +0.000 C 
BRANCH  18  25
ATOM     20  C   UNL     1       1.799  12.560  19.613  0.00  0.00    +0.000 C 
ATOM     21  N   UNL     1       0.574  12.496  20.362  0.00  0.00    +0.000 N 
ATOM     22  C   UNL     1      -0.411  13.430  20.361  0.00  0.00    +0.000 A 
ATOM     23  N   UNL     1      -1.395  13.034  21.129  0.00  0.00    +0.000 NA
ATOM     24  N   UNL     1      -1.031  11.819  21.660  0.00  0.00    +0.000 NA
ATOM     25  C   UNL     1       0.169  11.495  21.209  0.00  0.00    +0.000 A 
ENDBRANCH  18  25
ENDBRANCH  17  19
ENDBRANCH  11  17
ENDBRANCH   1  15
BRANCH   8  26
ATOM     26  C   UNL     1       7.369   7.208  17.675  0.00  0.00    +0.000 C 
ATOM     27  F   UNL     1       8.082   7.025  18.820  0.00  0.00    +0.000 F 
ATOM     28  F   UNL     1       8.224   7.808  16.804  0.00  0.00    +0.000 F 
ATOM     29  F   UNL     1       6.424   8.143  17.975  0.00  0.00    +0.000 F 
ENDBRANCH   8  26
BRANCH   6  30
ATOM     30  C   UNL     1       6.467   4.327  13.635  0.00  0.00    +0.000 C 
BRANCH  30  31
ATOM     31  O   UNL     1       6.257   2.958  13.320  0.00  0.00    +0.000 OA
ATOM     32  H   UNL     1       6.904   2.718  12.636  0.00  0.00    +0.000 HD
ENDBRANCH  30  31
ENDBRANCH   6  30
TORSDOF 7
ENDMDL
MODEL 5
REMARK VINA RESULT:      -8.4      0.764      1.095
REMARK  Name = 
REMARK  8 active torsions:
REMARK  status: ('A' for Active; 'I' for Inactive)
REMARK    1  A    between atoms: C_1  and  N_2
REMARK    2  A    between atoms: C_6  and  N_7
REMARK    3  A    between atoms: C_8  and  C_9
REMARK    4  A    between atoms: C_9  and  C_10
REMARK    5  A    between atoms: C_14  and  N_15
REMARK    6  A    between atoms: C_20  and  C_21
REMARK    7  A    between atoms: C_21  and  O_22
REMARK    8  A    between atoms: C_24  and  C_25
REMARK                            x       y       z     vdW  Elec       q    Type
REMARK                         _______ _______ _______ _____ _____    ______ ____
ROOT
ATOM      1  N   UNL     1       4.098   4.581  19.103  0.00  0.00    +0.000 N 
ATOM      2  C   UNL     1       5.442   5.191  19.260  0.00  0.00    +0.000 C 
ATOM      3  C   UNL     1       5.994   5.096  17.870  0.00  0.00    +0.000 A 
ATOM      4  C   UNL     1       5.378   4.003  17.253  0.00  0.00    +0.000 A 
ATOM      5  C   UNL     1       5.548   3.695  15.915  0.00  0.00    +0.000 A 
ATOM      6  C   UNL     1       6.357   4.544  15.152  0.00  0.00    +0.000 A 
ATOM      7  C   UNL     1       6.968   5.665  15.767  0.00  0.00    +0.000 A 
ATOM      8  C   UNL     1       6.795   5.965  17.137  0.00  0.00    +0.000 A 
ATOM      9  C   UNL     1       4.261   3.567  18.124  0.00  0.00    +0.000 C 
ATOM     10  O   UNL     1       3.523   2.624  17.867  0.00  0.00    +0.000 OA
ENDROOT
BRANCH   1  15
ATOM     11  C   UNL     1       2.056   7.512  19.866  0.00  0.00    +0.000 A 
ATOM     12  C   UNL     1       2.389   8.296  18.755  0.00  0.00    +0.000 A 
ATOM     13  C   UNL     1       2.932   7.710  17.613  0.00  0.00    +0.000 A 
ATOM     14  C   UNL     1       3.240   6.354  17.611  0.00  0.00    +0.000 A 
ATOM     15  C   UNL     1       3.113   5.610  18.792  0.00  0.00    +0.000 A 
ATOM     16  C   UNL     1       2.372   6.147  19.856  0.00  0.00    +0.000 A 
BRANCH  11  17
ATOM     17  C   UNL     1       1.474   8.155  21.098  0.00  0.00    +0.000 C 
BRANCH  17  19
ATOM     18  N   UNL     1       0.476  10.195  20.218  0.00  0.00    +0.000 NA
ATOM     19  C   UNL     1       0.301   9.043  20.782  0.00  0.00    +0.000 C 
BRANCH  18  25
ATOM     20  C   UNL     1      -1.106  10.175  17.725  0.00  0.00    +0.000 C 
ATOM     21  N   UNL     1      -1.377  10.933  18.916  0.00  0.00    +0.000 N 
ATOM     22  C   UNL     1      -2.403  11.804  19.092  0.00  0.00    +0.000 A 
ATOM     23  N   UNL     1      -2.367  12.289  20.307  0.00  0.00    +0.000 NA
ATOM     24  N   UNL     1      -1.277  11.733  20.934  0.00  0.00    +0.000 NA
ATOM     25  C   UNL     1      -0.664  10.920  20.090  0.00  0.00    +0.000 A 
ENDBRANCH  18  25
ENDBRANCH  17  19
ENDBRANCH  11  17
ENDBRANCH   1  15
BRANCH   8  26
ATOM     26  C   UNL     1       7.370   7.243  17.691  0.00  0.00    +0.000 C 
ATOM     27  F   UNL     1       8.225   7.882  16.845  0.00  0.00    +0.000 F 
ATOM     28  F   UNL     1       6.408   8.155  17.994  0.00  0.00    +0.000 F 
ATOM     29  F   UNL     1       8.072   7.043  18.841  0.00  0.00    +0.000 F 
ENDBRANCH   8  26
BRANCH   6  30
ATOM     30  C   UNL     1       6.529   4.313  13.673  0.00  0.00    +0.000 C 
BRANCH  30  31
ATOM     31  O   UNL     1       6.198   2.970  13.348  0.00  0.00    +0.000 OA
ATOM     32  H   UNL     1       5.253   2.954  13.124  0.00  0.00    +0.000 HD
ENDBRANCH  30  31
ENDBRANCH   6  30
TORSDOF 7
ENDMDL
MODEL 6
REMARK VINA RESULT:      -8.2      4.276      6.954
REMARK  Name = 
REMARK  8 active torsions:
REMARK  status: ('A' for Active; 'I' for Inactive)
REMARK    1  A    between atoms: C_1  and  N_2
REMARK    2  A    between atoms: C_6  and  N_7
REMARK    3  A    between atoms: C_8  and  C_9
REMARK    4  A    between atoms: C_9  and  C_10
REMARK    5  A    between atoms: C_14  and  N_15
REMARK    6  A    between atoms: C_20  and  C_21
REMARK    7  A    between atoms: C_21  and  O_22
REMARK    8  A    between atoms: C_24  and  C_25
REMARK                            x       y       z     vdW  Elec       q    Type
REMARK                         _______ _______ _______ _____ _____    ______ ____
ROOT
ATOM      1  N   UNL     1       5.015   4.351  16.599  0.00  0.00    +0.000 N 
ATOM      2  C   UNL     1       3.998   5.430  16.553  0.00  0.00    +0.000 C 
ATOM      3  C   UNL     1       3.208   5.170  17.799  0.00  0.00    +0.000 A 
ATOM      4  C   UNL     1       3.310   3.804  18.078  0.00  0.00    +0.000 A 
ATOM      5  C   UNL     1       2.813   3.228  19.234  0.00  0.00    +0.000 A 
ATOM      6  C   UNL     1       2.207   4.073  20.170  0.00  0.00    +0.000 A 
ATOM      7  C   UNL     1       2.119   5.461  19.903  0.00  0.00    +0.000 A 
ATOM      8  C   UNL     1       2.621   6.038  18.715  0.00  0.00    +0.000 A 
ATOM      9  C   UNL     1       4.357   3.243  17.191  0.00  0.00    +0.000 C 
ATOM     10  O   UNL     1       4.685   2.062  17.186  0.00  0.00    +0.000 OA
ENDROOT
BRANCH   1  15
ATOM     11  C   UNL     1       7.391   6.900  17.693  0.00  0.00    +0.000 A 
ATOM     12  C   UNL     1       7.414   6.596  19.059  0.00  0.00    +0.000 A 
ATOM     13  C   UNL     1       6.987   5.349  19.513  0.00  0.00    +0.000 A 
ATOM     14  C   UNL     1       6.440   4.436  18.617  0.00  0.00    +0.000 A 
ATOM     15  C   UNL     1       6.213   4.819  17.287  0.00  0.00    +0.000 A 
ATOM     16  C   UNL     1       6.836   5.976  16.798  0.00  0.00    +0.000 A 
BRANCH  11  17
ATOM     17  C   UNL     1       7.851   8.253  17.213  0.00  0.00    +0.000 C 
BRANCH  17  19
ATOM     18  N   UNL     1       8.876  10.281  18.087  0.00  0.00    +0.000 NA
ATOM     19  C   UNL     1       8.426   9.090  18.322  0.00  0.00    +0.000 C 
BRANCH  18  25
ATOM     20  C   UNL     1      11.365  11.852  17.852  0.00  0.00    +0.000 C 
ATOM     21  N   UNL     1      10.629  11.572  19.055  0.00  0.00    +0.000 N 
ATOM     22  C   UNL     1      10.972  11.959  20.309  0.00  0.00    +0.000 A 
ATOM     23  N   UNL     1      10.059  11.562  21.159  0.00  0.00    +0.000 NA
ATOM     24  N   UNL     1       9.106  10.880  20.441  0.00  0.00    +0.000 NA
ATOM     25  C   UNL     1       9.454  10.870  19.165  0.00  0.00    +0.000 A 
ENDBRANCH  18  25
ENDBRANCH  17  19
ENDBRANCH  11  17
ENDBRANCH   1  15
BRANCH   8  26
ATOM     26  C   UNL     1       2.607   7.537  18.558  0.00  0.00    +0.000 C 
ATOM     27  F   UNL     1       1.691   7.994  17.661  0.00  0.00    +0.000 F 
ATOM     28  F   UNL     1       2.327   8.176  19.725  0.00  0.00    +0.000 F 
ATOM     29  F   UNL     1       3.807   8.029  18.141  0.00  0.00    +0.000 F 
ENDBRANCH   8  26
BRANCH   6  30
ATOM     30  C   UNL     1       1.709   3.528  21.483  0.00  0.00    +0.000 C 
BRANCH  30  31
ATOM     31  O   UNL     1       2.665   2.633  22.034  0.00  0.00    +0.000 OA
ATOM     32  H   UNL     1       2.296   2.298  22.868  0.00  0.00    +0.000 HD
ENDBRANCH  30  31
ENDBRANCH   6  30
TORSDOF 7
ENDMDL
MODEL 7
REMARK VINA RESULT:      -8.2      4.492      7.098
REMARK  Name = 
REMARK  8 active torsions:
REMARK  status: ('A' for Active; 'I' for Inactive)
REMARK    1  A    between atoms: C_1  and  N_2
REMARK    2  A    between atoms: C_6  and  N_7
REMARK    3  A    between atoms: C_8  and  C_9
REMARK    4  A    between atoms: C_9  and  C_10
REMARK    5  A    between atoms: C_14  and  N_15
REMARK    6  A    between atoms: C_20  and  C_21
REMARK    7  A    between atoms: C_21  and  O_22
REMARK    8  A    between atoms: C_24  and  C_25
REMARK                            x       y       z     vdW  Elec       q    Type
REMARK                         _______ _______ _______ _____ _____    ______ ____
ROOT
ATOM      1  N   UNL     1       5.852   5.072  15.766  0.00  0.00    +0.000 N 
ATOM      2  C   UNL     1       4.655   5.934  15.924  0.00  0.00    +0.000 C 
ATOM      3  C   UNL     1       3.953   5.290  17.079  0.00  0.00    +0.000 A 
ATOM      4  C   UNL     1       4.307   3.937  17.077  0.00  0.00    +0.000 A 
ATOM      5  C   UNL     1       3.949   3.059  18.085  0.00  0.00    +0.000 A 
ATOM      6  C   UNL     1       3.221   3.573  19.163  0.00  0.00    +0.000 A 
ATOM      7  C   UNL     1       2.876   4.947  19.181  0.00  0.00    +0.000 A 
ATOM      8  C   UNL     1       3.239   5.833  18.142  0.00  0.00    +0.000 A 
ATOM      9  C   UNL     1       5.419   3.767  16.112  0.00  0.00    +0.000 C 
ATOM     10  O   UNL     1       5.955   2.692  15.872  0.00  0.00    +0.000 OA
ENDROOT
BRANCH   1  15
ATOM     11  C   UNL     1       7.550   7.634  17.740  0.00  0.00    +0.000 A 
ATOM     12  C   UNL     1       7.867   6.860  18.862  0.00  0.00    +0.000 A 
ATOM     13  C   UNL     1       7.885   5.469  18.780  0.00  0.00    +0.000 A 
ATOM     14  C   UNL     1       7.487   4.840  17.604  0.00  0.00    +0.000 A 
ATOM     15  C   UNL     1       6.960   5.602  16.553  0.00  0.00    +0.000 A 
ATOM     16  C   UNL     1       7.147   6.992  16.561  0.00  0.00    +0.000 A 
BRANCH  11  17
ATOM     17  C   UNL     1       7.529   9.137  17.841  0.00  0.00    +0.000 C 
BRANCH  17  19
ATOM     18  N   UNL     1       8.934  10.885  18.791  0.00  0.00    +0.000 NA
ATOM     19  C   UNL     1       8.856   9.702  18.271  0.00  0.00    +0.000 C 
BRANCH  18  25
ATOM     20  C   UNL     1       9.731  12.021  21.397  0.00  0.00    +0.000 C 
ATOM     21  N   UNL     1      10.562  11.850  20.237  0.00  0.00    +0.000 N 
ATOM     22  C   UNL     1      11.865  12.215  20.128  0.00  0.00    +0.000 A 
ATOM     23  N   UNL     1      12.320  11.881  18.946  0.00  0.00    +0.000 NA
ATOM     24  N   UNL     1      11.279  11.300  18.261  0.00  0.00    +0.000 NA
ATOM     25  C   UNL     1      10.206  11.292  19.034  0.00  0.00    +0.000 A 
ENDBRANCH  18  25
ENDBRANCH  17  19
ENDBRANCH  11  17
ENDBRANCH   1  15
BRANCH   8  26
ATOM     26  C   UNL     1       2.949   7.304  18.292  0.00  0.00    +0.000 C 
ATOM     27  F   UNL     1       1.931   7.754  17.508  0.00  0.00    +0.000 F 
ATOM     28  F   UNL     1       2.605   7.637  19.565  0.00  0.00    +0.000 F 
ATOM     29  F   UNL     1       4.024   8.082  17.980  0.00  0.00    +0.000 F 
ENDBRANCH   8  26
BRANCH   6  30
ATOM     30  C   UNL     1       2.858   2.693  20.331  0.00  0.00    +0.000 C 
BRANCH  30  31
ATOM     31  O   UNL     1       1.930   3.360  21.174  0.00  0.00    +0.000 OA
ATOM     32  H   UNL     1       1.987   2.942  22.050  0.00  0.00    +0.000 HD
ENDBRANCH  30  31
ENDBRANCH   6  30
TORSDOF 7
ENDMDL
MODEL 8
REMARK VINA RESULT:      -8.1      0.879      1.239
REMARK  Name = 
REMARK  8 active torsions:
REMARK  status: ('A' for Active; 'I' for Inactive)
REMARK    1  A    between atoms: C_1  and  N_2
REMARK    2  A    between atoms: C_6  and  N_7
REMARK    3  A    between atoms: C_8  and  C_9
REMARK    4  A    between atoms: C_9  and  C_10
REMARK    5  A    between atoms: C_14  and  N_15
REMARK    6  A    between atoms: C_20  and  C_21
REMARK    7  A    between atoms: C_21  and  O_22
REMARK    8  A    between atoms: C_24  and  C_25
REMARK                            x       y       z     vdW  Elec       q    Type
REMARK                         _______ _______ _______ _____ _____    ______ ____
ROOT
ATOM      1  N   UNL     1       3.218   3.832  18.757  0.00  0.00    +0.000 N 
ATOM      2  C   UNL     1       4.592   4.003  19.291  0.00  0.00    +0.000 C 
ATOM      3  C   UNL     1       5.404   4.123  18.039  0.00  0.00    +0.000 A 
ATOM      4  C   UNL     1       4.724   3.428  17.035  0.00  0.00    +0.000 A 
ATOM      5  C   UNL     1       5.116   3.437  15.708  0.00  0.00    +0.000 A 
ATOM      6  C   UNL     1       6.233   4.207  15.368  0.00  0.00    +0.000 A 
ATOM      7  C   UNL     1       6.916   4.930  16.377  0.00  0.00    +0.000 A 
ATOM      8  C   UNL     1       6.512   4.906  17.731  0.00  0.00    +0.000 A 
ATOM      9  C   UNL     1       3.376   3.096  17.554  0.00  0.00    +0.000 C 
ATOM     10  O   UNL     1       2.531   2.480  16.916  0.00  0.00    +0.000 OA
ENDROOT
BRANCH   1  15
ATOM     11  C   UNL     1       1.899   6.991  20.031  0.00  0.00    +0.000 A 
ATOM     12  C   UNL     1       2.546   7.862  19.147  0.00  0.00    +0.000 A 
ATOM     13  C   UNL     1       3.056   7.392  17.938  0.00  0.00    +0.000 A 
ATOM     14  C   UNL     1       3.012   6.032  17.650  0.00  0.00    +0.000 A 
ATOM     15  C   UNL     1       2.566   5.130  18.625  0.00  0.00    +0.000 A 
ATOM     16  C   UNL     1       1.863   5.622  19.735  0.00  0.00    +0.000 A 
BRANCH  11  17
ATOM     17  C   UNL     1       1.356   7.508  21.338  0.00  0.00    +0.000 C 
BRANCH  17  19
ATOM     18  N   UNL     1      -0.149   9.420  21.424  0.00  0.00    +0.000 NA
ATOM     19  C   UNL     1       1.062   8.982  21.295  0.00  0.00    +0.000 C 
BRANCH  18  25
ATOM     20  C   UNL     1      -1.304  10.597  18.975  0.00  0.00    +0.000 C 
ATOM     21  N   UNL     1      -0.773  11.305  20.108  0.00  0.00    +0.000 N 
ATOM     22  C   UNL     1      -0.682  12.653  20.235  0.00  0.00    +0.000 A 
ATOM     23  N   UNL     1      -0.181  12.952  21.408  0.00  0.00    +0.000 NA
ATOM     24  N   UNL     1       0.078  11.766  22.053  0.00  0.00    +0.000 NA
ATOM     25  C   UNL     1      -0.266  10.763  21.263  0.00  0.00    +0.000 A 
ENDBRANCH  18  25
ENDBRANCH  17  19
ENDBRANCH  11  17
ENDBRANCH   1  15
BRANCH   8  26
ATOM     26  C   UNL     1       7.207   5.801  18.725  0.00  0.00    +0.000 C 
ATOM     27  F   UNL     1       8.385   5.304  19.193  0.00  0.00    +0.000 F 
ATOM     28  F   UNL     1       7.506   7.020  18.202  0.00  0.00    +0.000 F 
ATOM     29  F   UNL     1       6.446   6.044  19.829  0.00  0.00    +0.000 F 
ENDBRANCH   8  26
BRANCH   6  30
ATOM     30  C   UNL     1       6.675   4.323  13.933  0.00  0.00    +0.000 C 
BRANCH  30  31
ATOM     31  O   UNL     1       6.286   3.166  13.207  0.00  0.00    +0.000 OA
ATOM     32  H   UNL     1       5.408   2.905  13.533  0.00  0.00    +0.000 HD
ENDBRANCH  30  31
ENDBRANCH   6  30
TORSDOF 7
ENDMDL
MODEL 9
REMARK VINA RESULT:      -8.0      4.055      8.538
REMARK  Name = 
REMARK  8 active torsions:
REMARK  status: ('A' for Active; 'I' for Inactive)
REMARK    1  A    between atoms: C_1  and  N_2
REMARK    2  A    between atoms: C_6  and  N_7
REMARK    3  A    between atoms: C_8  and  C_9
REMARK    4  A    between atoms: C_9  and  C_10
REMARK    5  A    between atoms: C_14  and  N_15
REMARK    6  A    between atoms: C_20  and  C_21
REMARK    7  A    between atoms: C_21  and  O_22
REMARK    8  A    between atoms: C_24  and  C_25
REMARK                            x       y       z     vdW  Elec       q    Type
REMARK                         _______ _______ _______ _____ _____    ______ ____
ROOT
ATOM      1  N   UNL     1       2.644   7.519  19.407  0.00  0.00    +0.000 N 
ATOM      2  C   UNL     1       2.278   8.337  20.589  0.00  0.00    +0.000 C 
ATOM      3  C   UNL     1       1.135   9.152  20.066  0.00  0.00    +0.000 A 
ATOM      4  C   UNL     1       1.317   9.284  18.686  0.00  0.00    +0.000 A 
ATOM      5  C   UNL     1       0.379   9.864  17.850  0.00  0.00    +0.000 A 
ATOM      6  C   UNL     1      -0.814  10.312  18.428  0.00  0.00    +0.000 A 
ATOM      7  C   UNL     1      -1.013  10.163  19.823  0.00  0.00    +0.000 A 
ATOM      8  C   UNL     1      -0.045   9.577  20.668  0.00  0.00    +0.000 A 
ATOM      9  C   UNL     1       2.399   8.353  18.286  0.00  0.00    +0.000 C 
ATOM     10  O   UNL     1       2.805   8.232  17.136  0.00  0.00    +0.000 OA
ENDROOT
BRANCH   1  15
ATOM     11  C   UNL     1       2.161   3.991  18.588  0.00  0.00    +0.000 A 
ATOM     12  C   UNL     1       1.901   3.509  19.876  0.00  0.00    +0.000 A 
ATOM     13  C   UNL     1       1.496   4.378  20.888  0.00  0.00    +0.000 A 
ATOM     14  C   UNL     1       1.446   5.747  20.646  0.00  0.00    +0.000 A 
ATOM     15  C   UNL     1       1.916   6.254  19.427  0.00  0.00    +0.000 A 
ATOM     16  C   UNL     1       2.112   5.372  18.354  0.00  0.00    +0.000 A 
BRANCH  11  17
ATOM     17  C   UNL     1       2.603   3.045  17.501  0.00  0.00    +0.000 C 
BRANCH  17  19
ATOM     18  N   UNL     1       4.896   3.286  16.716  0.00  0.00    +0.000 NA
ATOM     19  C   UNL     1       3.657   3.646  16.611  0.00  0.00    +0.000 C 
BRANCH  18  25
ATOM     20  C   UNL     1       7.330   4.578  17.775  0.00  0.00    +0.000 C 
ATOM     21  N   UNL     1       6.851   4.614  16.421  0.00  0.00    +0.000 N 
ATOM     22  C   UNL     1       7.426   5.282  15.388  0.00  0.00    +0.000 A 
ATOM     23  N   UNL     1       6.745   5.069  14.291  0.00  0.00    +0.000 NA
ATOM     24  N   UNL     1       5.687   4.255  14.621  0.00  0.00    +0.000 NA
ATOM     25  C   UNL     1       5.739   3.988  15.915  0.00  0.00    +0.000 A 
ENDBRANCH  18  25
ENDBRANCH  17  19
ENDBRANCH  11  17
ENDBRANCH   1  15
BRANCH   8  26
ATOM     26  C   UNL     1      -0.379   9.336  22.118  0.00  0.00    +0.000 C 
ATOM     27  F   UNL     1       0.694   9.390  22.954  0.00  0.00    +0.000 F 
ATOM     28  F   UNL     1      -1.266  10.246  22.602  0.00  0.00    +0.000 F 
ATOM     29  F   UNL     1      -0.946   8.114  22.326  0.00  0.00    +0.000 F 
ENDBRANCH   8  26
BRANCH   6  30
ATOM     30  C   UNL     1      -1.910  10.888  17.570  0.00  0.00    +0.000 C 
BRANCH  30  31
ATOM     31  O   UNL     1      -2.049  12.278  17.827  0.00  0.00    +0.000 OA
ATOM     32  H   UNL     1      -1.384  12.738  17.287  0.00  0.00    +0.000 HD
ENDBRANCH  30  31
ENDBRANCH   6  30
TORSDOF 7
ENDMDL
