MODEL 1
REMARK VINA RESULT:      -8.8      0.000      0.000
REMARK  Name = 
REMARK  4 active torsions:
REMARK  status: ('A' for Active; 'I' for Inactive)
REMARK    1  A    between atoms: C_2  and  C_3
REMARK    2  A    between atoms: C_16  and  C_17
REMARK    3  A    between atoms: C_17  and  N_18
REMARK    4  A    between atoms: C_20  and  C_21
REMARK                            x       y       z     vdW  Elec       q    Type
REMARK                         _______ _______ _______ _____ _____    ______ ____
ROOT
ATOM      1  O   UNL     1       4.770   2.014  19.610  0.00  0.00    +0.000 OA
ATOM      2  C   UNL     1       4.362   3.142  19.318  0.00  0.00    +0.000 C 
ATOM      3  N   UNL     1       3.240   3.686  19.943  0.00  0.00    +0.000 N 
ATOM      4  C   UNL     1       2.570   2.905  20.978  0.00  0.00    +0.000 C 
ATOM      5  C   UNL     1       1.103   3.231  20.789  0.00  0.00    +0.000 C 
ATOM      6  C   UNL     1       1.129   4.708  20.430  0.00  0.00    +0.000 C 
ATOM      7  C   UNL     1       2.438   4.883  19.631  0.00  0.00    +0.000 C 
ENDROOT
BRANCH   2   8
ATOM      8  C   UNL     1       5.197   3.926  18.359  0.00  0.00    +0.000 A 
ATOM      9  C   UNL     1       6.251   4.771  18.726  0.00  0.00    +0.000 A 
ATOM     10  C   UNL     1       7.161   5.274  17.785  0.00  0.00    +0.000 A 
ATOM     11  C   UNL     1       6.887   4.995  16.449  0.00  0.00    +0.000 A 
ATOM     12  N   UNL     1       7.546   5.304  15.287  0.00  0.00    +0.000 N 
ATOM     13  C   UNL     1       6.797   4.836  14.245  0.00  0.00    +0.000 A 
ATOM     14  N   UNL     1       5.720   4.212  14.663  0.00  0.00    +0.000 NA
ATOM     15  C   UNL     1       5.768   4.286  16.033  0.00  0.00    +0.000 A 
ATOM     16  C   UNL     1       4.906   3.742  16.994  0.00  0.00    +0.000 A 
ATOM     17  H   UNL     1       8.427   5.792  15.211  0.00  0.00    +0.000 HD
ENDBRANCH   2   8
BRANCH   7  18
ATOM     18  C   UNL     1       3.102   6.250  19.865  0.00  0.00    +0.000 C 
BRANCH  18  19
ATOM     19  N   UNL     1       2.515   7.348  19.143  0.00  0.00    +0.000 N 
ATOM     20  C   UNL     1       1.632   8.280  19.602  0.00  0.00    +0.000 A 
ATOM     21  C   UNL     1       1.444   9.095  18.514  0.00  0.00    +0.000 A 
ATOM     22  N   UNL     1       2.233   8.678  17.478  0.00  0.00    +0.000 NA
ATOM     23  N   UNL     1       2.909   7.617  17.886  0.00  0.00    +0.000 NA
BRANCH  21  24
ATOM     24  C   UNL     1       0.510  10.279  18.462  0.00  0.00    +0.000 C 
ATOM     25  C   UNL     1       0.927  11.534  19.202  0.00  0.00    +0.000 C 
ATOM     26  C   UNL     1      -0.184  10.699  19.740  0.00  0.00    +0.000 C 
ENDBRANCH  21  24
ENDBRANCH  18  19
ENDBRANCH   7  18
TORSDOF 4
ENDMDL
MODEL 2
REMARK VINA RESULT:      -8.5      1.156      1.369
REMARK  Name = 
REMARK  4 active torsions:
REMARK  status: ('A' for Active; 'I' for Inactive)
REMARK    1  A    between atoms: C_2  and  C_3
REMARK    2  A    between atoms: C_16  and  C_17
REMARK    3  A    between atoms: C_17  and  N_18
REMARK    4  A    between atoms: C_20  and  C_21
REMARK                            x       y       z     vdW  Elec       q    Type
REMARK                         _______ _______ _______ _____ _____    ______ ____
ROOT
ATOM      1  O   UNL     1       4.880   2.266  19.861  0.00  0.00    +0.000 OA
ATOM      2  C   UNL     1       4.433   3.345  19.462  0.00  0.00    +0.000 C 
ATOM      3  N   UNL     1       3.277   3.894  20.018  0.00  0.00    +0.000 N 
ATOM      4  C   UNL     1       2.620   3.181  21.109  0.00  0.00    +0.000 C 
ATOM      5  C   UNL     1       1.144   3.426  20.869  0.00  0.00    +0.000 C 
ATOM      6  C   UNL     1       1.117   4.864  20.378  0.00  0.00    +0.000 C 
ATOM      7  C   UNL     1       2.433   5.023  19.587  0.00  0.00    +0.000 C 
ENDROOT
BRANCH   2   8
ATOM      8  C   UNL     1       5.253   4.074  18.449  0.00  0.00    +0.000 A 
ATOM      9  C   UNL     1       6.349   4.890  18.750  0.00  0.00    +0.000 A 
ATOM     10  C   UNL     1       7.236   5.337  17.759  0.00  0.00    +0.000 A 
ATOM     11  C   UNL     1       6.897   5.035  16.444  0.00  0.00    +0.000 A 
ATOM     12  N   UNL     1       7.516   5.291  15.248  0.00  0.00    +0.000 N 
ATOM     13  C   UNL     1       6.708   4.824  14.250  0.00  0.00    +0.000 A 
ATOM     14  N   UNL     1       5.629   4.249  14.728  0.00  0.00    +0.000 NA
ATOM     15  C   UNL     1       5.737   4.355  16.093  0.00  0.00    +0.000 A 
ATOM     16  C   UNL     1       4.898   3.867  17.102  0.00  0.00    +0.000 A 
ATOM     17  H   UNL     1       8.409   5.745  15.123  0.00  0.00    +0.000 HD
ENDBRANCH   2   8
BRANCH   7  18
ATOM     18  C   UNL     1       3.035   6.433  19.706  0.00  0.00    +0.000 C 
BRANCH  18  19
ATOM     19  N   UNL     1       2.079   7.498  19.850  0.00  0.00    +0.000 N 
ATOM     20  C   UNL     1       1.333   7.816  20.947  0.00  0.00    +0.000 A 
ATOM     21  C   UNL     1       0.634   8.924  20.538  0.00  0.00    +0.000 A 
ATOM     22  N   UNL     1       1.003   9.265  19.266  0.00  0.00    +0.000 NA
ATOM     23  N   UNL     1       1.914   8.396  18.863  0.00  0.00    +0.000 NA
BRANCH  21  24
ATOM     24  C   UNL     1      -0.390   9.664  21.364  0.00  0.00    +0.000 C 
ATOM     25  C   UNL     1       0.098  10.822  22.211  0.00  0.00    +0.000 C 
ATOM     26  C   UNL     1      -0.309   9.550  22.872  0.00  0.00    +0.000 C 
ENDBRANCH  21  24
ENDBRANCH  18  19
ENDBRANCH   7  18
TORSDOF 4
ENDMDL
MODEL 3
REMARK VINA RESULT:      -8.4      1.275      1.887
REMARK  Name = 
REMARK  4 active torsions:
REMARK  status: ('A' for Active; 'I' for Inactive)
REMARK    1  A    between atoms: C_2  and  C_3
REMARK    2  A    between atoms: C_16  and  C_17
REMARK    3  A    between atoms: C_17  and  N_18
REMARK    4  A    between atoms: C_20  and  C_21
REMARK                            x       y       z     vdW  Elec       q    Type
REMARK                         _______ _______ _______ _____ _____    ______ ____
ROOT
ATOM      1  O   UNL     1       4.834   2.211  19.402  0.00  0.00    +0.000 OA
ATOM      2  C   UNL     1       4.336   3.329  19.243  0.00  0.00    +0.000 C 
ATOM      3  N   UNL     1       3.167   3.697  19.909  0.00  0.00    +0.000 N 
ATOM      4  C   UNL     1       2.558   2.742  20.830  0.00  0.00    +0.000 C 
ATOM      5  C   UNL     1       1.070   2.966  20.656  0.00  0.00    +0.000 C 
ATOM      6  C   UNL     1       0.974   4.473  20.479  0.00  0.00    +0.000 C 
ATOM      7  C   UNL     1       2.270   4.852  19.731  0.00  0.00    +0.000 C 
ENDROOT
BRANCH   2   8
ATOM      8  C   UNL     1       5.108   4.290  18.400  0.00  0.00    +0.000 A 
ATOM      9  C   UNL     1       4.789   4.626  17.078  0.00  0.00    +0.000 A 
ATOM     10  C   UNL     1       5.382   5.716  16.426  0.00  0.00    +0.000 A 
ATOM     11  C   UNL     1       6.399   6.371  17.114  0.00  0.00    +0.000 A 
ATOM     12  N   UNL     1       7.176   7.457  16.802  0.00  0.00    +0.000 N 
ATOM     13  C   UNL     1       8.072   7.635  17.818  0.00  0.00    +0.000 A 
ATOM     14  N   UNL     1       7.896   6.760  18.780  0.00  0.00    +0.000 NA
ATOM     15  C   UNL     1       6.848   5.974  18.368  0.00  0.00    +0.000 A 
ATOM     16  C   UNL     1       6.200   4.921  19.025  0.00  0.00    +0.000 A 
ATOM     17  H   UNL     1       7.102   8.024  15.970  0.00  0.00    +0.000 HD
ENDBRANCH   2   8
BRANCH   7  18
ATOM     18  C   UNL     1       2.813   6.231  20.140  0.00  0.00    +0.000 C 
BRANCH  18  19
ATOM     19  N   UNL     1       2.352   7.335  19.341  0.00  0.00    +0.000 N 
ATOM     20  C   UNL     1       1.599   8.401  19.734  0.00  0.00    +0.000 A 
ATOM     21  C   UNL     1       1.491   9.148  18.588  0.00  0.00    +0.000 A 
ATOM     22  N   UNL     1       2.203   8.559  17.579  0.00  0.00    +0.000 NA
ATOM     23  N   UNL     1       2.752   7.457  18.063  0.00  0.00    +0.000 NA
BRANCH  21  24
ATOM     24  C   UNL     1       0.708  10.431  18.452  0.00  0.00    +0.000 C 
ATOM     25  C   UNL     1       1.445  11.731  18.702  0.00  0.00    +0.000 C 
ATOM     26  C   UNL     1       0.451  11.247  19.702  0.00  0.00    +0.000 C 
ENDBRANCH  21  24
ENDBRANCH  18  19
ENDBRANCH   7  18
TORSDOF 4
ENDMDL
MODEL 4
REMARK VINA RESULT:      -8.4      0.869      1.199
REMARK  Name = 
REMARK  4 active torsions:
REMARK  status: ('A' for Active; 'I' for Inactive)
REMARK    1  A    between atoms: C_2  and  C_3
REMARK    2  A    between atoms: C_16  and  C_17
REMARK    3  A    between atoms: C_17  and  N_18
REMARK    4  A    between atoms: C_20  and  C_21
REMARK                            x       y       z     vdW  Elec       q    Type
REMARK                         _______ _______ _______ _____ _____    ______ ____
ROOT
ATOM      1  O   UNL     1       4.790   2.197  19.644  0.00  0.00    +0.000 OA
ATOM      2  C   UNL     1       4.387   3.310  19.294  0.00  0.00    +0.000 C 
ATOM      3  N   UNL     1       3.266   3.889  19.889  0.00  0.00    +0.000 N 
ATOM      4  C   UNL     1       2.593   3.166  20.963  0.00  0.00    +0.000 C 
ATOM      5  C   UNL     1       1.127   3.487  20.756  0.00  0.00    +0.000 C 
ATOM      6  C   UNL     1       1.159   4.943  20.320  0.00  0.00    +0.000 C 
ATOM      7  C   UNL     1       2.469   5.071  19.514  0.00  0.00    +0.000 C 
ENDROOT
BRANCH   2   8
ATOM      8  C   UNL     1       5.224   4.039  18.295  0.00  0.00    +0.000 A 
ATOM      9  C   UNL     1       6.310   4.863  18.615  0.00  0.00    +0.000 A 
ATOM     10  C   UNL     1       7.215   5.310  17.642  0.00  0.00    +0.000 A 
ATOM     11  C   UNL     1       6.907   4.999  16.321  0.00  0.00    +0.000 A 
ATOM     12  N   UNL     1       7.551   5.253  15.138  0.00  0.00    +0.000 N 
ATOM     13  C   UNL     1       6.767   4.777  14.125  0.00  0.00    +0.000 A 
ATOM     14  N   UNL     1       5.681   4.198  14.582  0.00  0.00    +0.000 NA
ATOM     15  C   UNL     1       5.759   4.311  15.949  0.00  0.00    +0.000 A 
ATOM     16  C   UNL     1       4.901   3.823  16.942  0.00  0.00    +0.000 A 
ATOM     17  H   UNL     1       8.444   5.712  15.030  0.00  0.00    +0.000 HD
ENDBRANCH   2   8
BRANCH   7  18
ATOM     18  C   UNL     1       3.137   6.447  19.676  0.00  0.00    +0.000 C 
BRANCH  18  19
ATOM     19  N   UNL     1       2.238   7.569  19.682  0.00  0.00    +0.000 N 
ATOM     20  C   UNL     1       1.777   8.283  18.615  0.00  0.00    +0.000 A 
ATOM     21  C   UNL     1       0.936   9.200  19.193  0.00  0.00    +0.000 A 
ATOM     22  N   UNL     1       0.871   8.989  20.542  0.00  0.00    +0.000 NA
ATOM     23  N   UNL     1       1.657   7.964  20.828  0.00  0.00    +0.000 NA
BRANCH  21  24
ATOM     24  C   UNL     1       0.185  10.282  18.455  0.00  0.00    +0.000 C 
ATOM     25  C   UNL     1      -1.222  10.599  18.918  0.00  0.00    +0.000 C 
ATOM     26  C   UNL     1      -1.018   9.881  17.629  0.00  0.00    +0.000 C 
ENDBRANCH  21  24
ENDBRANCH  18  19
ENDBRANCH   7  18
TORSDOF 4
ENDMDL
MODEL 5
REMARK VINA RESULT:      -8.2      1.527      2.103
REMARK  Name = 
REMARK  4 active torsions:
REMARK  status: ('A' for Active; 'I' for Inactive)
REMARK    1  A    between atoms: C_2  and  C_3
REMARK    2  A    between atoms: C_16  and  C_17
REMARK    3  A    between atoms: C_17  and  N_18
REMARK    4  A    between atoms: C_20  and  C_21
REMARK                            x       y       z     vdW  Elec       q    Type
REMARK                         _______ _______ _______ _____ _____    ______ ____
ROOT
ATOM      1  O   UNL     1       4.254   1.793  17.803  0.00  0.00    +0.000 OA
ATOM      2  C   UNL     1       3.887   2.944  18.052  0.00  0.00    +0.000 C 
ATOM      3  N   UNL     1       2.787   3.187  18.874  0.00  0.00    +0.000 N 
ATOM      4  C   UNL     1       2.092   2.047  19.465  0.00  0.00    +0.000 C 
ATOM      5  C   UNL     1       0.637   2.469  19.468  0.00  0.00    +0.000 C 
ATOM      6  C   UNL     1       0.716   3.949  19.804  0.00  0.00    +0.000 C 
ATOM      7  C   UNL     1       2.028   4.421  19.144  0.00  0.00    +0.000 C 
ENDROOT
BRANCH   2   8
ATOM      8  C   UNL     1       4.747   4.047  17.527  0.00  0.00    +0.000 A 
ATOM      9  C   UNL     1       4.541   4.707  16.309  0.00  0.00    +0.000 A 
ATOM     10  C   UNL     1       5.210   5.897  15.987  0.00  0.00    +0.000 A 
ATOM     11  C   UNL     1       6.187   6.320  16.884  0.00  0.00    +0.000 A 
ATOM     12  N   UNL     1       7.012   7.414  16.903  0.00  0.00    +0.000 N 
ATOM     13  C   UNL     1       7.830   7.302  17.991  0.00  0.00    +0.000 A 
ATOM     14  N   UNL     1       7.558   6.227  18.695  0.00  0.00    +0.000 NA
ATOM     15  C   UNL     1       6.526   5.612  18.030  0.00  0.00    +0.000 A 
ATOM     16  C   UNL     1       5.803   4.459  18.362  0.00  0.00    +0.000 A 
ATOM     17  H   UNL     1       7.018   8.169  16.233  0.00  0.00    +0.000 HD
ENDBRANCH   2   8
BRANCH   7  18
ATOM     18  C   UNL     1       2.741   5.520  19.950  0.00  0.00    +0.000 C 
BRANCH  18  19
ATOM     19  N   UNL     1       2.271   6.858  19.713  0.00  0.00    +0.000 N 
ATOM     20  C   UNL     1       1.636   7.693  20.584  0.00  0.00    +0.000 A 
ATOM     21  C   UNL     1       1.455   8.836  19.846  0.00  0.00    +0.000 A 
ATOM     22  N   UNL     1       2.015   8.685  18.608  0.00  0.00    +0.000 NA
ATOM     23  N   UNL     1       2.538   7.472  18.546  0.00  0.00    +0.000 NA
BRANCH  21  24
ATOM     24  C   UNL     1       0.748  10.081  20.324  0.00  0.00    +0.000 C 
ATOM     25  C   UNL     1      -0.554  10.452  19.644  0.00  0.00    +0.000 C 
ATOM     26  C   UNL     1       0.668  11.264  19.382  0.00  0.00    +0.000 C 
ENDBRANCH  21  24
ENDBRANCH  18  19
ENDBRANCH   7  18
TORSDOF 4
ENDMDL
MODEL 6
REMARK VINA RESULT:      -8.0      1.746      2.270
REMARK  Name = 
REMARK  4 active torsions:
REMARK  status: ('A' for Active; 'I' for Inactive)
REMARK    1  A    between atoms: C_2  and  C_3
REMARK    2  A    between atoms: C_16  and  C_17
REMARK    3  A    between atoms: C_17  and  N_18
REMARK    4  A    between atoms: C_20  and  C_21
REMARK                            x       y       z     vdW  Elec       q    Type
REMARK                         _______ _______ _______ _____ _____    ______ ____
ROOT
ATOM      1  O   UNL     1       4.377   1.997  17.704  0.00  0.00    +0.000 OA
ATOM      2  C   UNL     1       3.989   3.131  18.001  0.00  0.00    +0.000 C 
ATOM      3  N   UNL     1       2.883   3.318  18.830  0.00  0.00    +0.000 N 
ATOM      4  C   UNL     1       2.208   2.143  19.370  0.00  0.00    +0.000 C 
ATOM      5  C   UNL     1       0.746   2.538  19.389  0.00  0.00    +0.000 C 
ATOM      6  C   UNL     1       0.798   4.004  19.787  0.00  0.00    +0.000 C 
ATOM      7  C   UNL     1       2.102   4.527  19.150  0.00  0.00    +0.000 C 
ENDROOT
BRANCH   2   8
ATOM      8  C   UNL     1       4.830   4.270  17.525  0.00  0.00    +0.000 A 
ATOM      9  C   UNL     1       4.560   5.037  16.385  0.00  0.00    +0.000 A 
ATOM     10  C   UNL     1       5.224   6.246  16.130  0.00  0.00    +0.000 A 
ATOM     11  C   UNL     1       6.257   6.580  17.000  0.00  0.00    +0.000 A 
ATOM     12  N   UNL     1       7.095   7.663  17.067  0.00  0.00    +0.000 N 
ATOM     13  C   UNL     1       7.975   7.448  18.090  0.00  0.00    +0.000 A 
ATOM     14  N   UNL     1       7.732   6.317  18.710  0.00  0.00    +0.000 NA
ATOM     15  C   UNL     1       6.654   5.771  18.057  0.00  0.00    +0.000 A 
ATOM     16  C   UNL     1       5.938   4.599  18.328  0.00  0.00    +0.000 A 
ATOM     17  H   UNL     1       7.071   8.475  16.467  0.00  0.00    +0.000 HD
ENDBRANCH   2   8
BRANCH   7  18
ATOM     18  C   UNL     1       2.795   5.603  20.003  0.00  0.00    +0.000 C 
BRANCH  18  19
ATOM     19  N   UNL     1       2.244   6.926  19.888  0.00  0.00    +0.000 N 
ATOM     20  C   UNL     1       2.254   7.750  18.801  0.00  0.00    +0.000 A 
ATOM     21  C   UNL     1       1.566   8.854  19.238  0.00  0.00    +0.000 A 
ATOM     22  N   UNL     1       1.127   8.653  20.518  0.00  0.00    +0.000 NA
ATOM     23  N   UNL     1       1.527   7.451  20.898  0.00  0.00    +0.000 NA
BRANCH  21  24
ATOM     24  C   UNL     1       1.323  10.107  18.432  0.00  0.00    +0.000 C 
ATOM     25  C   UNL     1       1.199  11.414  19.189  0.00  0.00    +0.000 C 
ATOM     26  C   UNL     1      -0.014  10.801  18.578  0.00  0.00    +0.000 C 
ENDBRANCH  21  24
ENDBRANCH  18  19
ENDBRANCH   7  18
TORSDOF 4
ENDMDL
MODEL 7
REMARK VINA RESULT:      -7.9      0.977      1.144
REMARK  Name = 
REMARK  4 active torsions:
REMARK  status: ('A' for Active; 'I' for Inactive)
REMARK    1  A    between atoms: C_2  and  C_3
REMARK    2  A    between atoms: C_16  and  C_17
REMARK    3  A    between atoms: C_17  and  N_18
REMARK    4  A    between atoms: C_20  and  C_21
REMARK                            x       y       z     vdW  Elec       q    Type
REMARK                         _______ _______ _______ _____ _____    ______ ____
ROOT
ATOM      1  O   UNL     1       4.135   1.539  18.620  0.00  0.00    +0.000 OA
ATOM      2  C   UNL     1       3.875   2.746  18.602  0.00  0.00    +0.000 C 
ATOM      3  N   UNL     1       2.828   3.268  19.360  0.00  0.00    +0.000 N 
ATOM      4  C   UNL     1       2.059   2.361  20.207  0.00  0.00    +0.000 C 
ATOM      5  C   UNL     1       0.646   2.902  20.133  0.00  0.00    +0.000 C 
ATOM      6  C   UNL     1       0.862   4.407  20.117  0.00  0.00    +0.000 C 
ATOM      7  C   UNL     1       2.186   4.595  19.348  0.00  0.00    +0.000 C 
ENDROOT
BRANCH   2   8
ATOM      8  C   UNL     1       4.807   3.618  17.825  0.00  0.00    +0.000 A 
ATOM      9  C   UNL     1       5.821   4.401  18.389  0.00  0.00    +0.000 A 
ATOM     10  C   UNL     1       6.825   4.990  17.607  0.00  0.00    +0.000 A 
ATOM     11  C   UNL     1       6.689   4.865  16.228  0.00  0.00    +0.000 A 
ATOM     12  N   UNL     1       7.465   5.289  15.180  0.00  0.00    +0.000 N 
ATOM     13  C   UNL     1       6.825   4.950  14.022  0.00  0.00    +0.000 A 
ATOM     14  N   UNL     1       5.709   4.300  14.256  0.00  0.00    +0.000 NA
ATOM     15  C   UNL     1       5.616   4.222  15.624  0.00  0.00    +0.000 A 
ATOM     16  C   UNL     1       4.658   3.590  16.425  0.00  0.00    +0.000 A 
ATOM     17  H   UNL     1       8.351   5.769  15.249  0.00  0.00    +0.000 HD
ENDBRANCH   2   8
BRANCH   7  18
ATOM     18  C   UNL     1       3.016   5.780  19.869  0.00  0.00    +0.000 C 
BRANCH  18  19
ATOM     19  N   UNL     1       2.410   7.074  19.704  0.00  0.00    +0.000 N 
ATOM     20  C   UNL     1       2.304   7.813  18.563  0.00  0.00    +0.000 A 
ATOM     21  C   UNL     1       1.614   8.925  18.975  0.00  0.00    +0.000 A 
ATOM     22  N   UNL     1       1.287   8.809  20.298  0.00  0.00    +0.000 NA
ATOM     23  N   UNL     1       1.759   7.651  20.729  0.00  0.00    +0.000 NA
BRANCH  21  24
ATOM     24  C   UNL     1       1.261  10.106  18.103  0.00  0.00    +0.000 C 
ATOM     25  C   UNL     1       1.917  11.434  18.424  0.00  0.00    +0.000 C 
ATOM     26  C   UNL     1       0.470  11.239  18.721  0.00  0.00    +0.000 C 
ENDBRANCH  21  24
ENDBRANCH  18  19
ENDBRANCH   7  18
TORSDOF 4
ENDMDL
MODEL 8
REMARK VINA RESULT:      -7.9      2.195      6.467
REMARK  Name = 
REMARK  4 active torsions:
REMARK  status: ('A' for Active; 'I' for Inactive)
REMARK    1  A    between atoms: C_2  and  C_3
REMARK    2  A    between atoms: C_16  and  C_17
REMARK    3  A    between atoms: C_17  and  N_18
REMARK    4  A    between atoms: C_20  and  C_21
REMARK                            x       y       z     vdW  Elec       q    Type
REMARK                         _______ _______ _______ _____ _____    ______ ____
ROOT
ATOM      1  O   UNL     1       1.171   4.312  17.399  0.00  0.00    +0.000 OA
ATOM      2  C   UNL     1       2.077   4.641  18.169  0.00  0.00    +0.000 C 
ATOM      3  N   UNL     1       3.087   3.744  18.518  0.00  0.00    +0.000 N 
ATOM      4  C   UNL     1       3.071   2.410  17.926  0.00  0.00    +0.000 C 
ATOM      5  C   UNL     1       3.581   1.513  19.035  0.00  0.00    +0.000 C 
ATOM      6  C   UNL     1       4.654   2.366  19.692  0.00  0.00    +0.000 C 
ATOM      7  C   UNL     1       4.129   3.810  19.558  0.00  0.00    +0.000 C 
ENDROOT
BRANCH   2   8
ATOM      8  C   UNL     1       2.095   6.069  18.606  0.00  0.00    +0.000 A 
ATOM      9  C   UNL     1       2.385   7.155  17.771  0.00  0.00    +0.000 A 
ATOM     10  C   UNL     1       2.136   8.478  18.160  0.00  0.00    +0.000 A 
ATOM     11  C   UNL     1       1.705   8.668  19.470  0.00  0.00    +0.000 A 
ATOM     12  N   UNL     1       1.360   9.791  20.176  0.00  0.00    +0.000 N 
ATOM     13  C   UNL     1       1.073   9.408  21.456  0.00  0.00    +0.000 A 
ATOM     14  N   UNL     1       1.173   8.108  21.608  0.00  0.00    +0.000 NA
ATOM     15  C   UNL     1       1.549   7.628  20.378  0.00  0.00    +0.000 A 
ATOM     16  C   UNL     1       1.746   6.309  19.949  0.00  0.00    +0.000 A 
ATOM     17  H   UNL     1       1.325  10.734  19.818  0.00  0.00    +0.000 HD
ENDBRANCH   2   8
BRANCH   7  18
ATOM     18  C   UNL     1       5.255   4.839  19.357  0.00  0.00    +0.000 C 
BRANCH  18  19
ATOM     19  N   UNL     1       5.896   4.803  18.070  0.00  0.00    +0.000 N 
ATOM     20  C   UNL     1       5.368   5.138  16.858  0.00  0.00    +0.000 A 
ATOM     21  C   UNL     1       6.420   4.951  15.997  0.00  0.00    +0.000 A 
ATOM     22  N   UNL     1       7.532   4.572  16.695  0.00  0.00    +0.000 NA
ATOM     23  N   UNL     1       7.205   4.510  17.975  0.00  0.00    +0.000 NA
BRANCH  21  24
ATOM     24  C   UNL     1       6.366   5.138  14.500  0.00  0.00    +0.000 C 
ATOM     25  C   UNL     1       5.816   3.994  13.671  0.00  0.00    +0.000 C 
ATOM     26  C   UNL     1       7.277   4.287  13.641  0.00  0.00    +0.000 C 
ENDBRANCH  21  24
ENDBRANCH  18  19
ENDBRANCH   7  18
TORSDOF 4
ENDMDL
MODEL 9
REMARK VINA RESULT:      -7.9      1.915      6.970
REMARK  Name = 
REMARK  4 active torsions:
REMARK  status: ('A' for Active; 'I' for Inactive)
REMARK    1  A    between atoms: C_2  and  C_3
REMARK    2  A    between atoms: C_16  and  C_17
REMARK    3  A    between atoms: C_17  and  N_18
REMARK    4  A    between atoms: C_20  and  C_21
REMARK                            x       y       z     vdW  Elec       q    Type
REMARK                         _______ _______ _______ _____ _____    ______ ____
ROOT
ATOM      1  O   UNL     1       1.413   4.926  19.657  0.00  0.00    +0.000 OA
ATOM      2  C   UNL     1       2.385   5.596  19.298  0.00  0.00    +0.000 C 
ATOM      3  N   UNL     1       3.596   4.988  18.966  0.00  0.00    +0.000 N 
ATOM      4  C   UNL     1       3.684   3.532  19.021  0.00  0.00    +0.000 C 
ATOM      5  C   UNL     1       5.094   3.270  19.507  0.00  0.00    +0.000 C 
ATOM      6  C   UNL     1       5.899   4.352  18.806  0.00  0.00    +0.000 C 
ATOM      7  C   UNL     1       4.935   5.555  18.729  0.00  0.00    +0.000 C 
ENDROOT
BRANCH   2   8
ATOM      8  C   UNL     1       2.159   7.063  19.128  0.00  0.00    +0.000 A 
ATOM      9  C   UNL     1       2.256   7.749  17.911  0.00  0.00    +0.000 A 
ATOM     10  C   UNL     1       1.784   9.060  17.758  0.00  0.00    +0.000 A 
ATOM     11  C   UNL     1       1.330   9.693  18.911  0.00  0.00    +0.000 A 
ATOM     12  N   UNL     1       0.798  10.936  19.135  0.00  0.00    +0.000 N 
ATOM     13  C   UNL     1       0.584  11.064  20.478  0.00  0.00    +0.000 A 
ATOM     14  N   UNL     1       0.906   9.970  21.127  0.00  0.00    +0.000 NA
ATOM     15  C   UNL     1       1.356   9.098  20.166  0.00  0.00    +0.000 A 
ATOM     16  C   UNL     1       1.776   7.768  20.285  0.00  0.00    +0.000 A 
ATOM     17  H   UNL     1       0.601  11.636  18.434  0.00  0.00    +0.000 HD
ENDBRANCH   2   8
BRANCH   7  18
ATOM     18  C   UNL     1       5.126   6.392  17.453  0.00  0.00    +0.000 C 
BRANCH  18  19
ATOM     19  N   UNL     1       5.806   5.723  16.376  0.00  0.00    +0.000 N 
ATOM     20  C   UNL     1       5.301   4.800  15.507  0.00  0.00    +0.000 A 
ATOM     21  C   UNL     1       6.364   4.535  14.682  0.00  0.00    +0.000 A 
ATOM     22  N   UNL     1       7.431   5.317  15.028  0.00  0.00    +0.000 NA
ATOM     23  N   UNL     1       7.066   6.065  16.057  0.00  0.00    +0.000 NA
BRANCH  21  24
ATOM     24  C   UNL     1       6.364   3.532  13.553  0.00  0.00    +0.000 C 
ATOM     25  C   UNL     1       6.706   4.038  12.166  0.00  0.00    +0.000 C 
ATOM     26  C   UNL     1       5.300   3.661  12.484  0.00  0.00    +0.000 C 
ENDBRANCH  21  24
ENDBRANCH  18  19
ENDBRANCH   7  18
TORSDOF 4
ENDMDL
