MODEL 1
REMARK VINA RESULT:      -9.0      0.000      0.000
REMARK  Name = 
REMARK  7 active torsions:
REMARK  status: ('A' for Active; 'I' for Inactive)
REMARK    1  A    between atoms: C_1  and  C_2
REMARK    2  A    between atoms: C_5  and  C_6
REMARK    3  A    between atoms: C_6  and  C_7
REMARK    4  A    between atoms: N_8  and  C_9
REMARK    5  A    between atoms: C_13  and  N_14
REMARK    6  A    between atoms: C_21  and  C_22
REMARK    7  A    between atoms: N_29  and  C_30
REMARK                            x       y       z     vdW  Elec       q    Type
REMARK                         _______ _______ _______ _____ _____    ______ ____
ROOT
ATOM      1  C   UNL     1       1.854   7.378  20.069  0.00  0.00    +0.000 A 
ATOM      2  C   UNL     1       2.179   8.259  19.035  0.00  0.00    +0.000 A 
ATOM      3  C   UNL     1       2.788   7.796  17.870  0.00  0.00    +0.000 A 
ATOM      4  C   UNL     1       3.176   6.464  17.774  0.00  0.00    +0.000 A 
ATOM      5  C   UNL     1       3.069   5.634  18.899  0.00  0.00    +0.000 A 
ATOM      6  C   UNL     1       2.295   6.054  19.988  0.00  0.00    +0.000 A 
ENDROOT
BRANCH   5   7
ATOM      7  N   UNL     1       4.073   4.615  19.144  0.00  0.00    +0.000 N 
ATOM      8  C   UNL     1       5.417   5.230  19.240  0.00  0.00    +0.000 C 
ATOM      9  C   UNL     1       5.944   5.069  17.849  0.00  0.00    +0.000 A 
ATOM     10  C   UNL     1       5.291   3.974  17.278  0.00  0.00    +0.000 A 
ATOM     11  C   UNL     1       5.461   3.602  15.958  0.00  0.00    +0.000 A 
ATOM     12  C   UNL     1       6.315   4.382  15.183  0.00  0.00    +0.000 A 
ATOM     13  C   UNL     1       6.957   5.508  15.735  0.00  0.00    +0.000 A 
ATOM     14  C   UNL     1       6.781   5.876  17.085  0.00  0.00    +0.000 A 
ATOM     15  C   UNL     1       4.175   3.592  18.169  0.00  0.00    +0.000 C 
ATOM     16  O   UNL     1       3.401   2.682  17.939  0.00  0.00    +0.000 OA
BRANCH  14  17
ATOM     17  C   UNL     1       7.410   7.149  17.593  0.00  0.00    +0.000 C 
ATOM     18  F   UNL     1       8.145   6.999  18.728  0.00  0.00    +0.000 F 
ATOM     19  F   UNL     1       8.256   7.702  16.682  0.00  0.00    +0.000 F 
ATOM     20  F   UNL     1       6.485   8.109  17.873  0.00  0.00    +0.000 F 
ENDBRANCH  14  17
ENDBRANCH   5   7
BRANCH   1  22
ATOM     21  C   UNL     1       0.404   8.887  21.025  0.00  0.00    +0.000 C 
ATOM     22  N   UNL     1       1.210   7.890  21.209  0.00  0.00    +0.000 NA
BRANCH  21  23
ATOM     23  C   UNL     1      -0.298   9.536  22.182  0.00  0.00    +0.000 C 
BRANCH  23  28
ATOM     24  C   UNL     1      -1.022  14.489  22.582  0.00  0.00    +0.000 C 
ATOM     25  C   UNL     1      -0.437  13.174  22.238  0.00  0.00    +0.000 A 
ATOM     26  N   UNL     1       0.687  12.967  21.588  0.00  0.00    +0.000 NA
ATOM     27  N   UNL     1       0.879  11.610  21.479  0.00  0.00    +0.000 NA
ATOM     28  C   UNL     1      -0.137  11.006  22.063  0.00  0.00    +0.000 A 
ATOM     29  N   UNL     1      -0.999  11.956  22.545  0.00  0.00    +0.000 N 
ATOM     30  C   UNL     1      -2.249  11.768  23.237  0.00  0.00    +0.000 C 
ENDBRANCH  23  28
ENDBRANCH  21  23
ENDBRANCH   1  22
TORSDOF 5
ENDMDL
MODEL 2
REMARK VINA RESULT:      -8.8      4.121      5.122
REMARK  Name = 
REMARK  7 active torsions:
REMARK  status: ('A' for Active; 'I' for Inactive)
REMARK    1  A    between atoms: C_1  and  C_2
REMARK    2  A    between atoms: C_5  and  C_6
REMARK    3  A    between atoms: C_6  and  C_7
REMARK    4  A    between atoms: N_8  and  C_9
REMARK    5  A    between atoms: C_13  and  N_14
REMARK    6  A    between atoms: C_21  and  C_22
REMARK    7  A    between atoms: N_29  and  C_30
REMARK                            x       y       z     vdW  Elec       q    Type
REMARK                         _______ _______ _______ _____ _____    ______ ____
ROOT
ATOM      1  C   UNL     1       1.249   9.351  18.957  0.00  0.00    +0.000 A 
ATOM      2  C   UNL     1       0.952   8.872  20.235  0.00  0.00    +0.000 A 
ATOM      3  C   UNL     1       1.580   7.731  20.732  0.00  0.00    +0.000 A 
ATOM      4  C   UNL     1       2.428   6.996  19.912  0.00  0.00    +0.000 A 
ATOM      5  C   UNL     1       2.541   7.337  18.556  0.00  0.00    +0.000 A 
ATOM      6  C   UNL     1       2.060   8.578  18.121  0.00  0.00    +0.000 A 
ENDROOT
BRANCH   5   7
ATOM      7  N   UNL     1       2.706   6.295  17.559  0.00  0.00    +0.000 N 
ATOM      8  C   UNL     1       1.785   5.168  17.836  0.00  0.00    +0.000 C 
ATOM      9  C   UNL     1       2.653   4.228  18.610  0.00  0.00    +0.000 A 
ATOM     10  C   UNL     1       3.977   4.480  18.242  0.00  0.00    +0.000 A 
ATOM     11  C   UNL     1       5.056   3.860  18.842  0.00  0.00    +0.000 A 
ATOM     12  C   UNL     1       4.781   2.957  19.867  0.00  0.00    +0.000 A 
ATOM     13  C   UNL     1       3.453   2.714  20.271  0.00  0.00    +0.000 A 
ATOM     14  C   UNL     1       2.359   3.349  19.648  0.00  0.00    +0.000 A 
ATOM     15  C   UNL     1       4.000   5.731  17.454  0.00  0.00    +0.000 C 
ATOM     16  O   UNL     1       5.014   6.233  17.003  0.00  0.00    +0.000 OA
BRANCH  14  17
ATOM     17  C   UNL     1       0.970   3.130  20.191  0.00  0.00    +0.000 C 
ATOM     18  F   UNL     1       0.139   2.453  19.352  0.00  0.00    +0.000 F 
ATOM     19  F   UNL     1       0.979   2.416  21.349  0.00  0.00    +0.000 F 
ATOM     20  F   UNL     1       0.334   4.300  20.479  0.00  0.00    +0.000 F 
ENDBRANCH  14  17
ENDBRANCH   5   7
BRANCH   1  22
ATOM     21  C   UNL     1      -0.336  10.990  19.265  0.00  0.00    +0.000 C 
ATOM     22  N   UNL     1       0.615  10.525  18.517  0.00  0.00    +0.000 NA
BRANCH  21  23
ATOM     23  C   UNL     1      -1.107  12.213  18.861  0.00  0.00    +0.000 C 
BRANCH  23  28
ATOM     24  C   UNL     1      -5.959  11.380  17.874  0.00  0.00    +0.000 C 
ATOM     25  C   UNL     1      -4.485  11.415  17.760  0.00  0.00    +0.000 A 
ATOM     26  N   UNL     1      -3.770  10.961  16.754  0.00  0.00    +0.000 NA
ATOM     27  N   UNL     1      -2.443  11.188  17.031  0.00  0.00    +0.000 NA
ATOM     28  C   UNL     1      -2.367  11.778  18.208  0.00  0.00    +0.000 A 
ATOM     29  N   UNL     1      -3.632  11.929  18.710  0.00  0.00    +0.000 N 
ATOM     30  C   UNL     1      -4.038  12.501  19.969  0.00  0.00    +0.000 C 
ENDBRANCH  23  28
ENDBRANCH  21  23
ENDBRANCH   1  22
TORSDOF 5
ENDMDL
MODEL 3
REMARK VINA RESULT:      -8.8      4.073      5.164
REMARK  Name = 
REMARK  7 active torsions:
REMARK  status: ('A' for Active; 'I' for Inactive)
REMARK    1  A    between atoms: C_1  and  C_2
REMARK    2  A    between atoms: C_5  and  C_6
REMARK    3  A    between atoms: C_6  and  C_7
REMARK    4  A    between atoms: N_8  and  C_9
REMARK    5  A    between atoms: C_13  and  N_14
REMARK    6  A    between atoms: C_21  and  C_22
REMARK    7  A    between atoms: N_29  and  C_30
REMARK                            x       y       z     vdW  Elec       q    Type
REMARK                         _______ _______ _______ _____ _____    ______ ____
ROOT
ATOM      1  C   UNL     1       1.355   9.473  18.995  0.00  0.00    +0.000 A 
ATOM      2  C   UNL     1       0.968   8.987  20.246  0.00  0.00    +0.000 A 
ATOM      3  C   UNL     1       1.495   7.794  20.740  0.00  0.00    +0.000 A 
ATOM      4  C   UNL     1       2.328   7.022  19.939  0.00  0.00    +0.000 A 
ATOM      5  C   UNL     1       2.525   7.386  18.600  0.00  0.00    +0.000 A 
ATOM      6  C   UNL     1       2.149   8.666  18.176  0.00  0.00    +0.000 A 
ENDROOT
BRANCH   5   7
ATOM      7  N   UNL     1       2.665   6.358  17.584  0.00  0.00    +0.000 N 
ATOM      8  C   UNL     1       1.751   5.228  17.867  0.00  0.00    +0.000 C 
ATOM      9  C   UNL     1       2.636   4.275  18.607  0.00  0.00    +0.000 A 
ATOM     10  C   UNL     1       3.951   4.532  18.211  0.00  0.00    +0.000 A 
ATOM     11  C   UNL     1       5.043   3.902  18.777  0.00  0.00    +0.000 A 
ATOM     12  C   UNL     1       4.792   2.986  19.795  0.00  0.00    +0.000 A 
ATOM     13  C   UNL     1       3.474   2.738  20.227  0.00  0.00    +0.000 A 
ATOM     14  C   UNL     1       2.365   3.382  19.639  0.00  0.00    +0.000 A 
ATOM     15  C   UNL     1       3.957   5.794  17.440  0.00  0.00    +0.000 C 
ATOM     16  O   UNL     1       4.960   6.301  16.973  0.00  0.00    +0.000 OA
BRANCH  14  17
ATOM     17  C   UNL     1       0.989   3.157  20.212  0.00  0.00    +0.000 C 
ATOM     18  F   UNL     1       0.140   2.485  19.387  0.00  0.00    +0.000 F 
ATOM     19  F   UNL     1       1.026   2.433  21.364  0.00  0.00    +0.000 F 
ATOM     20  F   UNL     1       0.359   4.323  20.524  0.00  0.00    +0.000 F 
ENDBRANCH  14  17
ENDBRANCH   5   7
BRANCH   1  22
ATOM     21  C   UNL     1      -0.446  10.883  18.749  0.00  0.00    +0.000 C 
ATOM     22  N   UNL     1       0.822  10.698  18.557  0.00  0.00    +0.000 NA
BRANCH  21  23
ATOM     23  C   UNL     1      -1.122  12.138  18.278  0.00  0.00    +0.000 C 
BRANCH  23  28
ATOM     24  C   UNL     1      -6.043  11.175  18.015  0.00  0.00    +0.000 C 
ATOM     25  C   UNL     1      -4.719  11.619  18.503  0.00  0.00    +0.000 A 
ATOM     26  N   UNL     1      -4.460  12.153  19.676  0.00  0.00    +0.000 NA
ATOM     27  N   UNL     1      -3.113  12.418  19.741  0.00  0.00    +0.000 NA
ATOM     28  C   UNL     1      -2.567  12.042  18.602  0.00  0.00    +0.000 A 
ATOM     29  N   UNL     1      -3.548  11.543  17.785  0.00  0.00    +0.000 N 
ATOM     30  C   UNL     1      -3.427  11.034  16.442  0.00  0.00    +0.000 C 
ENDBRANCH  23  28
ENDBRANCH  21  23
ENDBRANCH   1  22
TORSDOF 5
ENDMDL
MODEL 4
REMARK VINA RESULT:      -8.8      1.623      2.352
REMARK  Name = 
REMARK  7 active torsions:
REMARK  status: ('A' for Active; 'I' for Inactive)
REMARK    1  A    between atoms: C_1  and  C_2
REMARK    2  A    between atoms: C_5  and  C_6
REMARK    3  A    between atoms: C_6  and  C_7
REMARK    4  A    between atoms: N_8  and  C_9
REMARK    5  A    between atoms: C_13  and  N_14
REMARK    6  A    between atoms: C_21  and  C_22
REMARK    7  A    between atoms: N_29  and  C_30
REMARK                            x       y       z     vdW  Elec       q    Type
REMARK                         _______ _______ _______ _____ _____    ______ ____
ROOT
ATOM      1  C   UNL     1       2.251   6.061  20.019  0.00  0.00    +0.000 A 
ATOM      2  C   UNL     1       1.176   5.380  20.595  0.00  0.00    +0.000 A 
ATOM      3  C   UNL     1       1.271   4.022  20.894  0.00  0.00    +0.000 A 
ATOM      4  C   UNL     1       2.403   3.309  20.517  0.00  0.00    +0.000 A 
ATOM      5  C   UNL     1       3.379   3.934  19.728  0.00  0.00    +0.000 A 
ATOM      6  C   UNL     1       3.362   5.328  19.595  0.00  0.00    +0.000 A 
ENDROOT
BRANCH   5   7
ATOM      7  N   UNL     1       4.084   3.173  18.712  0.00  0.00    +0.000 N 
ATOM      8  C   UNL     1       5.545   3.383  18.835  0.00  0.00    +0.000 C 
ATOM      9  C   UNL     1       5.797   4.474  17.845  0.00  0.00    +0.000 A 
ATOM     10  C   UNL     1       4.790   4.406  16.879  0.00  0.00    +0.000 A 
ATOM     11  C   UNL     1       4.655   5.335  15.866  0.00  0.00    +0.000 A 
ATOM     12  C   UNL     1       5.569   6.385  15.840  0.00  0.00    +0.000 A 
ATOM     13  C   UNL     1       6.573   6.486  16.824  0.00  0.00    +0.000 A 
ATOM     14  C   UNL     1       6.705   5.529  17.851  0.00  0.00    +0.000 A 
ATOM     15  C   UNL     1       3.754   3.470  17.367  0.00  0.00    +0.000 C 
ATOM     16  O   UNL     1       2.732   3.209  16.759  0.00  0.00    +0.000 OA
BRANCH  14  17
ATOM     17  C   UNL     1       7.730   5.745  18.935  0.00  0.00    +0.000 C 
ATOM     18  F   UNL     1       7.224   5.732  20.198  0.00  0.00    +0.000 F 
ATOM     19  F   UNL     1       8.699   4.789  18.922  0.00  0.00    +0.000 F 
ATOM     20  F   UNL     1       8.379   6.935  18.807  0.00  0.00    +0.000 F 
ENDBRANCH  14  17
ENDBRANCH   5   7
BRANCH   1  22
ATOM     21  C   UNL     1       1.410   8.118  20.617  0.00  0.00    +0.000 C 
ATOM     22  N   UNL     1       2.116   7.438  19.770  0.00  0.00    +0.000 NA
BRANCH  21  23
ATOM     23  C   UNL     1       1.167   9.586  20.416  0.00  0.00    +0.000 C 
BRANCH  23  28
ATOM     24  C   UNL     1      -2.283  11.985  23.165  0.00  0.00    +0.000 C 
ATOM     25  C   UNL     1      -1.146  11.124  22.769  0.00  0.00    +0.000 A 
ATOM     26  N   UNL     1      -0.410  10.388  23.573  0.00  0.00    +0.000 NA
ATOM     27  N   UNL     1       0.535   9.737  22.816  0.00  0.00    +0.000 NA
ATOM     28  C   UNL     1       0.362  10.087  21.557  0.00  0.00    +0.000 A 
ATOM     29  N   UNL     1      -0.681  10.973  21.483  0.00  0.00    +0.000 N 
ATOM     30  C   UNL     1      -1.216  11.638  20.322  0.00  0.00    +0.000 C 
ENDBRANCH  23  28
ENDBRANCH  21  23
ENDBRANCH   1  22
TORSDOF 5
ENDMDL
MODEL 5
REMARK VINA RESULT:      -8.5      3.783      4.879
REMARK  Name = 
REMARK  7 active torsions:
REMARK  status: ('A' for Active; 'I' for Inactive)
REMARK    1  A    between atoms: C_1  and  C_2
REMARK    2  A    between atoms: C_5  and  C_6
REMARK    3  A    between atoms: C_6  and  C_7
REMARK    4  A    between atoms: N_8  and  C_9
REMARK    5  A    between atoms: C_13  and  N_14
REMARK    6  A    between atoms: C_21  and  C_22
REMARK    7  A    between atoms: N_29  and  C_30
REMARK                            x       y       z     vdW  Elec       q    Type
REMARK                         _______ _______ _______ _____ _____    ______ ____
ROOT
ATOM      1  C   UNL     1       1.277   9.493  19.082  0.00  0.00    +0.000 A 
ATOM      2  C   UNL     1       0.906   8.983  20.329  0.00  0.00    +0.000 A 
ATOM      3  C   UNL     1       1.453   7.790  20.801  0.00  0.00    +0.000 A 
ATOM      4  C   UNL     1       2.291   7.042  19.983  0.00  0.00    +0.000 A 
ATOM      5  C   UNL     1       2.473   7.429  18.647  0.00  0.00    +0.000 A 
ATOM      6  C   UNL     1       2.076   8.710  18.245  0.00  0.00    +0.000 A 
ENDROOT
BRANCH   5   7
ATOM      7  N   UNL     1       2.620   6.418  17.615  0.00  0.00    +0.000 N 
ATOM      8  C   UNL     1       1.722   5.271  17.887  0.00  0.00    +0.000 C 
ATOM      9  C   UNL     1       2.625   4.320  18.606  0.00  0.00    +0.000 A 
ATOM     10  C   UNL     1       3.934   4.601  18.206  0.00  0.00    +0.000 A 
ATOM     11  C   UNL     1       5.039   3.978  18.754  0.00  0.00    +0.000 A 
ATOM     12  C   UNL     1       4.807   3.042  19.760  0.00  0.00    +0.000 A 
ATOM     13  C   UNL     1       3.495   2.770  20.197  0.00  0.00    +0.000 A 
ATOM     14  C   UNL     1       2.374   3.408  19.626  0.00  0.00    +0.000 A 
ATOM     15  C   UNL     1       3.918   5.874  17.454  0.00  0.00    +0.000 C 
ATOM     16  O   UNL     1       4.911   6.402  16.987  0.00  0.00    +0.000 OA
BRANCH  14  17
ATOM     17  C   UNL     1       1.005   3.156  20.205  0.00  0.00    +0.000 C 
ATOM     18  F   UNL     1       1.006   2.426  21.354  0.00  0.00    +0.000 F 
ATOM     19  F   UNL     1       0.356   4.313  20.509  0.00  0.00    +0.000 F 
ATOM     20  F   UNL     1       0.191   2.488  19.341  0.00  0.00    +0.000 F 
ENDBRANCH  14  17
ENDBRANCH   5   7
BRANCH   1  22
ATOM     21  C   UNL     1      -0.570  10.791  18.636  0.00  0.00    +0.000 C 
ATOM     22  N   UNL     1       0.723  10.716  18.668  0.00  0.00    +0.000 NA
BRANCH  21  23
ATOM     23  C   UNL     1      -1.261  12.037  18.165  0.00  0.00    +0.000 C 
BRANCH  23  28
ATOM     24  C   UNL     1      -5.317  12.735  21.041  0.00  0.00    +0.000 C 
ATOM     25  C   UNL     1      -4.435  12.331  19.924  0.00  0.00    +0.000 A 
ATOM     26  N   UNL     1      -4.806  11.722  18.819  0.00  0.00    +0.000 NA
ATOM     27  N   UNL     1      -3.692  11.530  18.038  0.00  0.00    +0.000 NA
ATOM     28  C   UNL     1      -2.653  12.025  18.680  0.00  0.00    +0.000 A 
ATOM     29  N   UNL     1      -3.074  12.529  19.882  0.00  0.00    +0.000 N 
ATOM     30  C   UNL     1      -2.292  13.148  20.923  0.00  0.00    +0.000 C 
ENDBRANCH  23  28
ENDBRANCH  21  23
ENDBRANCH   1  22
TORSDOF 5
ENDMDL
MODEL 6
REMARK VINA RESULT:      -8.5      3.648      4.765
REMARK  Name = 
REMARK  7 active torsions:
REMARK  status: ('A' for Active; 'I' for Inactive)
REMARK    1  A    between atoms: C_1  and  C_2
REMARK    2  A    between atoms: C_5  and  C_6
REMARK    3  A    between atoms: C_6  and  C_7
REMARK    4  A    between atoms: N_8  and  C_9
REMARK    5  A    between atoms: C_13  and  N_14
REMARK    6  A    between atoms: C_21  and  C_22
REMARK    7  A    between atoms: N_29  and  C_30
REMARK                            x       y       z     vdW  Elec       q    Type
REMARK                         _______ _______ _______ _____ _____    ______ ____
ROOT
ATOM      1  C   UNL     1       1.149   9.461  19.139  0.00  0.00    +0.000 A 
ATOM      2  C   UNL     1       0.835   8.918  20.387  0.00  0.00    +0.000 A 
ATOM      3  C   UNL     1       1.460   7.756  20.836  0.00  0.00    +0.000 A 
ATOM      4  C   UNL     1       2.323   7.065  19.993  0.00  0.00    +0.000 A 
ATOM      5  C   UNL     1       2.454   7.473  18.658  0.00  0.00    +0.000 A 
ATOM      6  C   UNL     1       1.974   8.732  18.277  0.00  0.00    +0.000 A 
ENDROOT
BRANCH   5   7
ATOM      7  N   UNL     1       2.637   6.482  17.613  0.00  0.00    +0.000 N 
ATOM      8  C   UNL     1       1.756   5.315  17.852  0.00  0.00    +0.000 C 
ATOM      9  C   UNL     1       2.664   4.369  18.571  0.00  0.00    +0.000 A 
ATOM     10  C   UNL     1       3.974   4.680  18.198  0.00  0.00    +0.000 A 
ATOM     11  C   UNL     1       5.080   4.068  18.756  0.00  0.00    +0.000 A 
ATOM     12  C   UNL     1       4.848   3.113  19.743  0.00  0.00    +0.000 A 
ATOM     13  C   UNL     1       3.535   2.810  20.153  0.00  0.00    +0.000 A 
ATOM     14  C   UNL     1       2.412   3.437  19.573  0.00  0.00    +0.000 A 
ATOM     15  C   UNL     1       3.947   5.965  17.467  0.00  0.00    +0.000 C 
ATOM     16  O   UNL     1       4.938   6.517  17.026  0.00  0.00    +0.000 OA
BRANCH  14  17
ATOM     17  C   UNL     1       1.038   3.150  20.123  0.00  0.00    +0.000 C 
ATOM     18  F   UNL     1       0.196   2.541  19.244  0.00  0.00    +0.000 F 
ATOM     19  F   UNL     1       1.082   2.333  21.211  0.00  0.00    +0.000 F 
ATOM     20  F   UNL     1       0.396   4.279  20.532  0.00  0.00    +0.000 F 
ENDBRANCH  14  17
ENDBRANCH   5   7
BRANCH   1  22
ATOM     21  C   UNL     1      -0.759  10.736  18.967  0.00  0.00    +0.000 C 
ATOM     22  N   UNL     1       0.516  10.653  18.748  0.00  0.00    +0.000 NA
BRANCH  21  23
ATOM     23  C   UNL     1      -1.537  11.948  18.546  0.00  0.00    +0.000 C 
BRANCH  23  28
ATOM     24  C   UNL     1      -5.672  12.793  21.266  0.00  0.00    +0.000 C 
ATOM     25  C   UNL     1      -4.256  12.688  20.852  0.00  0.00    +0.000 A 
ATOM     26  N   UNL     1      -3.205  12.955  21.596  0.00  0.00    +0.000 NA
ATOM     27  N   UNL     1      -2.076  12.726  20.845  0.00  0.00    +0.000 NA
ATOM     28  C   UNL     1      -2.456  12.322  19.649  0.00  0.00    +0.000 A 
ATOM     29  N   UNL     1      -3.825  12.296  19.605  0.00  0.00    +0.000 N 
ATOM     30  C   UNL     1      -4.683  11.941  18.503  0.00  0.00    +0.000 C 
ENDBRANCH  23  28
ENDBRANCH  21  23
ENDBRANCH   1  22
TORSDOF 5
ENDMDL
MODEL 7
REMARK VINA RESULT:      -8.5      1.017      1.030
REMARK  Name = 
REMARK  7 active torsions:
REMARK  status: ('A' for Active; 'I' for Inactive)
REMARK    1  A    between atoms: C_1  and  C_2
REMARK    2  A    between atoms: C_5  and  C_6
REMARK    3  A    between atoms: C_6  and  C_7
REMARK    4  A    between atoms: N_8  and  C_9
REMARK    5  A    between atoms: C_13  and  N_14
REMARK    6  A    between atoms: C_21  and  C_22
REMARK    7  A    between atoms: N_29  and  C_30
REMARK                            x       y       z     vdW  Elec       q    Type
REMARK                         _______ _______ _______ _____ _____    ______ ____
ROOT
ATOM      1  C   UNL     1       1.888   7.645  19.871  0.00  0.00    +0.000 A 
ATOM      2  C   UNL     1       2.226   8.430  18.767  0.00  0.00    +0.000 A 
ATOM      3  C   UNL     1       2.826   7.860  17.645  0.00  0.00    +0.000 A 
ATOM      4  C   UNL     1       3.193   6.520  17.662  0.00  0.00    +0.000 A 
ATOM      5  C   UNL     1       3.074   5.790  18.854  0.00  0.00    +0.000 A 
ATOM      6  C   UNL     1       2.308   6.312  19.903  0.00  0.00    +0.000 A 
ENDROOT
BRANCH   5   7
ATOM      7  N   UNL     1       4.062   4.779  19.184  0.00  0.00    +0.000 N 
ATOM      8  C   UNL     1       5.407   5.391  19.293  0.00  0.00    +0.000 C 
ATOM      9  C   UNL     1       5.978   5.156  17.931  0.00  0.00    +0.000 A 
ATOM     10  C   UNL     1       5.337   4.036  17.395  0.00  0.00    +0.000 A 
ATOM     11  C   UNL     1       5.548   3.595  16.102  0.00  0.00    +0.000 A 
ATOM     12  C   UNL     1       6.433   4.329  15.317  0.00  0.00    +0.000 A 
ATOM     13  C   UNL     1       7.064   5.479  15.832  0.00  0.00    +0.000 A 
ATOM     14  C   UNL     1       6.846   5.917  17.155  0.00  0.00    +0.000 A 
ATOM     15  C   UNL     1       4.189   3.707  18.267  0.00  0.00    +0.000 C 
ATOM     16  O   UNL     1       3.417   2.790  18.057  0.00  0.00    +0.000 OA
BRANCH  14  17
ATOM     17  C   UNL     1       7.466   7.211  17.617  0.00  0.00    +0.000 C 
ATOM     18  F   UNL     1       8.205   7.105  18.756  0.00  0.00    +0.000 F 
ATOM     19  F   UNL     1       8.307   7.738  16.686  0.00  0.00    +0.000 F 
ATOM     20  F   UNL     1       6.536   8.174  17.866  0.00  0.00    +0.000 F 
ENDBRANCH  14  17
ENDBRANCH   5   7
BRANCH   1  22
ATOM     21  C   UNL     1       0.644   9.380  20.728  0.00  0.00    +0.000 C 
ATOM     22  N   UNL     1       1.254   8.262  20.963  0.00  0.00    +0.000 NA
BRANCH  21  23
ATOM     23  C   UNL     1      -0.026  10.142  21.835  0.00  0.00    +0.000 C 
BRANCH  23  28
ATOM     24  C   UNL     1      -3.353  13.851  21.212  0.00  0.00    +0.000 C 
ATOM     25  C   UNL     1      -2.319  12.826  20.946  0.00  0.00    +0.000 A 
ATOM     26  N   UNL     1      -1.748  12.579  19.788  0.00  0.00    +0.000 NA
ATOM     27  N   UNL     1      -0.841  11.561  19.963  0.00  0.00    +0.000 NA
ATOM     28  C   UNL     1      -0.874  11.199  21.230  0.00  0.00    +0.000 A 
ATOM     29  N   UNL     1      -1.803  11.963  21.885  0.00  0.00    +0.000 N 
ATOM     30  C   UNL     1      -2.196  11.911  23.271  0.00  0.00    +0.000 C 
ENDBRANCH  23  28
ENDBRANCH  21  23
ENDBRANCH   1  22
TORSDOF 5
ENDMDL
MODEL 8
REMARK VINA RESULT:      -8.4      4.615      7.088
REMARK  Name = 
REMARK  7 active torsions:
REMARK  status: ('A' for Active; 'I' for Inactive)
REMARK    1  A    between atoms: C_1  and  C_2
REMARK    2  A    between atoms: C_5  and  C_6
REMARK    3  A    between atoms: C_6  and  C_7
REMARK    4  A    between atoms: N_8  and  C_9
REMARK    5  A    between atoms: C_13  and  N_14
REMARK    6  A    between atoms: C_21  and  C_22
REMARK    7  A    between atoms: N_29  and  C_30
REMARK                            x       y       z     vdW  Elec       q    Type
REMARK                         _______ _______ _______ _____ _____    ______ ____
ROOT
ATOM      1  C   UNL     1       7.193   6.687  17.615  0.00  0.00    +0.000 A 
ATOM      2  C   UNL     1       7.444   6.396  18.958  0.00  0.00    +0.000 A 
ATOM      3  C   UNL     1       7.063   5.171  19.504  0.00  0.00    +0.000 A 
ATOM      4  C   UNL     1       6.329   4.272  18.740  0.00  0.00    +0.000 A 
ATOM      5  C   UNL     1       5.869   4.660  17.474  0.00  0.00    +0.000 A 
ATOM      6  C   UNL     1       6.408   5.802  16.870  0.00  0.00    +0.000 A 
ENDROOT
BRANCH   5   7
ATOM      7  N   UNL     1       4.575   4.200  17.002  0.00  0.00    +0.000 N 
ATOM      8  C   UNL     1       3.645   5.344  16.857  0.00  0.00    +0.000 C 
ATOM      9  C   UNL     1       2.906   5.324  18.158  0.00  0.00    +0.000 A 
ATOM     10  C   UNL     1       2.946   4.014  18.642  0.00  0.00    +0.000 A 
ATOM     11  C   UNL     1       2.448   3.654  19.880  0.00  0.00    +0.000 A 
ATOM     12  C   UNL     1       1.901   4.667  20.664  0.00  0.00    +0.000 A 
ATOM     13  C   UNL     1       1.881   5.998  20.203  0.00  0.00    +0.000 A 
ATOM     14  C   UNL     1       2.387   6.354  18.935  0.00  0.00    +0.000 A 
ATOM     15  C   UNL     1       3.912   3.253  17.821  0.00  0.00    +0.000 C 
ATOM     16  O   UNL     1       4.188   2.082  18.005  0.00  0.00    +0.000 OA
BRANCH  14  17
ATOM     17  C   UNL     1       2.434   7.808  18.539  0.00  0.00    +0.000 C 
ATOM     18  F   UNL     1       1.586   8.143  17.530  0.00  0.00    +0.000 F 
ATOM     19  F   UNL     1       2.113   8.631  19.574  0.00  0.00    +0.000 F 
ATOM     20  F   UNL     1       3.674   8.194  18.127  0.00  0.00    +0.000 F 
ENDBRANCH  14  17
ENDBRANCH   5   7
BRANCH   1  22
ATOM     21  C   UNL     1       8.070   8.786  17.963  0.00  0.00    +0.000 C 
ATOM     22  N   UNL     1       7.628   7.922  17.104  0.00  0.00    +0.000 NA
BRANCH  21  23
ATOM     23  C   UNL     1       8.516  10.151  17.526  0.00  0.00    +0.000 C 
BRANCH  23  28
ATOM     24  C   UNL     1      10.796  13.551  20.433  0.00  0.00    +0.000 C 
ATOM     25  C   UNL     1      10.141  12.310  19.966  0.00  0.00    +0.000 A 
ATOM     26  N   UNL     1       9.884  11.244  20.693  0.00  0.00    +0.000 NA
ATOM     27  N   UNL     1       9.263  10.315  19.892  0.00  0.00    +0.000 NA
ATOM     28  C   UNL     1       9.151  10.829  18.683  0.00  0.00    +0.000 A 
ATOM     29  N   UNL     1       9.704  12.082  18.681  0.00  0.00    +0.000 N 
ATOM     30  C   UNL     1       9.829  13.010  17.585  0.00  0.00    +0.000 C 
ENDBRANCH  23  28
ENDBRANCH  21  23
ENDBRANCH   1  22
TORSDOF 5
ENDMDL
MODEL 9
REMARK VINA RESULT:      -8.4      2.023      2.909
REMARK  Name = 
REMARK  7 active torsions:
REMARK  status: ('A' for Active; 'I' for Inactive)
REMARK    1  A    between atoms: C_1  and  C_2
REMARK    2  A    between atoms: C_5  and  C_6
REMARK    3  A    between atoms: C_6  and  C_7
REMARK    4  A    between atoms: N_8  and  C_9
REMARK    5  A    between atoms: C_13  and  N_14
REMARK    6  A    between atoms: C_21  and  C_22
REMARK    7  A    between atoms: N_29  and  C_30
REMARK                            x       y       z     vdW  Elec       q    Type
REMARK                         _______ _______ _______ _____ _____    ______ ____
ROOT
ATOM      1  C   UNL     1       2.295   6.313  19.934  0.00  0.00    +0.000 A 
ATOM      2  C   UNL     1       1.160   5.710  20.482  0.00  0.00    +0.000 A 
ATOM      3  C   UNL     1       1.162   4.355  20.809  0.00  0.00    +0.000 A 
ATOM      4  C   UNL     1       2.262   3.568  20.488  0.00  0.00    +0.000 A 
ATOM      5  C   UNL     1       3.301   4.116  19.724  0.00  0.00    +0.000 A 
ATOM      6  C   UNL     1       3.374   5.506  19.565  0.00  0.00    +0.000 A 
ENDROOT
BRANCH   5   7
ATOM      7  N   UNL     1       3.995   3.293  18.749  0.00  0.00    +0.000 N 
ATOM      8  C   UNL     1       5.461   3.455  18.891  0.00  0.00    +0.000 C 
ATOM      9  C   UNL     1       5.768   4.500  17.865  0.00  0.00    +0.000 A 
ATOM     10  C   UNL     1       4.775   4.431  16.885  0.00  0.00    +0.000 A 
ATOM     11  C   UNL     1       4.690   5.326  15.837  0.00  0.00    +0.000 A 
ATOM     12  C   UNL     1       5.643   6.341  15.788  0.00  0.00    +0.000 A 
ATOM     13  C   UNL     1       6.633   6.443  16.785  0.00  0.00    +0.000 A 
ATOM     14  C   UNL     1       6.714   5.520  17.849  0.00  0.00    +0.000 A 
ATOM     15  C   UNL     1       3.698   3.552  17.389  0.00  0.00    +0.000 C 
ATOM     16  O   UNL     1       2.677   3.305  16.773  0.00  0.00    +0.000 OA
BRANCH  14  17
ATOM     17  C   UNL     1       7.728   5.740  18.943  0.00  0.00    +0.000 C 
ATOM     18  F   UNL     1       8.705   4.794  19.001  0.00  0.00    +0.000 F 
ATOM     19  F   UNL     1       8.378   6.928  18.808  0.00  0.00    +0.000 F 
ATOM     20  F   UNL     1       7.160   5.765  20.181  0.00  0.00    +0.000 F 
ENDBRANCH  14  17
ENDBRANCH   5   7
BRANCH   1  22
ATOM     21  C   UNL     1       1.923   8.030  18.448  0.00  0.00    +0.000 C 
ATOM     22  N   UNL     1       2.253   7.689  19.654  0.00  0.00    +0.000 NA
BRANCH  21  23
ATOM     23  C   UNL     1       1.892   9.473  18.034  0.00  0.00    +0.000 C 
BRANCH  23  28
ATOM     24  C   UNL     1      -1.880  12.062  20.101  0.00  0.00    +0.000 C 
ATOM     25  C   UNL     1      -1.111  11.151  19.226  0.00  0.00    +0.000 A 
ATOM     26  N   UNL     1      -1.589  10.445  18.225  0.00  0.00    +0.000 NA
ATOM     27  N   UNL     1      -0.553   9.736  17.665  0.00  0.00    +0.000 NA
ATOM     28  C   UNL     1       0.545  10.018  18.336  0.00  0.00    +0.000 A 
ATOM     29  N   UNL     1       0.237  10.898  19.340  0.00  0.00    +0.000 N 
ATOM     30  C   UNL     1       1.108  11.469  20.336  0.00  0.00    +0.000 C 
ENDBRANCH  23  28
ENDBRANCH  21  23
ENDBRANCH   1  22
TORSDOF 5
ENDMDL
