MODEL 1
REMARK VINA RESULT:      -8.9      0.000      0.000
REMARK  Name = 
REMARK  6 active torsions:
REMARK  status: ('A' for Active; 'I' for Inactive)
REMARK    1  A    between atoms: C_3  and  N_4
REMARK    2  A    between atoms: N_6  and  C_7
REMARK    3  A    between atoms: C_7  and  C_8
REMARK    4  A    between atoms: C_12  and  C_13
REMARK    5  A    between atoms: N_19  and  C_20
REMARK    6  A    between atoms: C_24  and  C_25
REMARK                            x       y       z     vdW  Elec       q    Type
REMARK                         _______ _______ _______ _____ _____    ______ ____
ROOT
ATOM      1  C   UNL     1       3.963   4.328  17.756  0.00  0.00    +0.000 A 
ATOM      2  C   UNL     1       3.632   5.675  17.567  0.00  0.00    +0.000 A 
ATOM      3  C   UNL     1       2.832   6.291  18.516  0.00  0.00    +0.000 A 
ATOM      4  C   UNL     1       2.335   5.637  19.637  0.00  0.00    +0.000 A 
ATOM      5  C   UNL     1       2.607   4.286  19.834  0.00  0.00    +0.000 A 
ATOM      6  C   UNL     1       3.431   3.645  18.878  0.00  0.00    +0.000 A 
ATOM      7  C   UNL     1       1.573   6.613  20.480  0.00  0.00    +0.000 C 
ATOM      8  N   UNL     1       1.660   7.859  19.731  0.00  0.00    +0.000 N 
ATOM      9  C   UNL     1       2.396   7.692  18.554  0.00  0.00    +0.000 C 
ATOM     10  O   UNL     1       2.692   8.469  17.669  0.00  0.00    +0.000 OA
ENDROOT
BRANCH   8  11
ATOM     11  C   UNL     1       1.075   9.072  20.189  0.00  0.00    +0.000 A 
ATOM     12  C   UNL     1       1.166  10.255  19.444  0.00  0.00    +0.000 A 
ATOM     13  C   UNL     1       0.591  11.446  19.895  0.00  0.00    +0.000 A 
ATOM     14  C   UNL     1      -0.081  11.483  21.112  0.00  0.00    +0.000 A 
ATOM     15  C   UNL     1      -0.186  10.327  21.884  0.00  0.00    +0.000 A 
ATOM     16  C   UNL     1      -0.881  10.359  23.214  0.00  0.00    +0.000 C 
ATOM     17  C   UNL     1       0.386   9.128  21.414  0.00  0.00    +0.000 A 
ENDBRANCH   8  11
BRANCH   5  18
ATOM     18  C   UNL     1       2.072   3.508  21.008  0.00  0.00    +0.000 C 
ATOM     19  F   UNL     1       2.481   2.209  21.034  0.00  0.00    +0.000 F 
ATOM     20  F   UNL     1       2.455   4.041  22.200  0.00  0.00    +0.000 F 
ATOM     21  F   UNL     1       0.712   3.468  21.033  0.00  0.00    +0.000 F 
ENDBRANCH   5  18
BRANCH   1  22
ATOM     22  C   UNL     1       4.885   3.614  16.780  0.00  0.00    +0.000 C 
BRANCH  22  27
ATOM     23  C   UNL     1       5.219   3.856  13.544  0.00  0.00    +0.000 C 
ATOM     24  C   UNL     1       5.919   4.239  14.615  0.00  0.00    +0.000 C 
ATOM     25  C   UNL     1       7.398   4.557  14.799  0.00  0.00    +0.000 C 
ATOM     26  C   UNL     1       6.891   5.051  16.166  0.00  0.00    +0.000 C 
ATOM     27  N   UNL     1       5.596   4.495  15.854  0.00  0.00    +0.000 N 
BRANCH  25  28
ATOM     28  N   UNL     1       7.847   5.676  13.969  0.00  0.00    +0.000 NA
ATOM     29  H   UNL     1       7.206   6.469  14.013  0.00  0.00    +0.000 HD
ATOM     30  H   UNL     1       7.894   5.427  12.983  0.00  0.00    +0.000 HD
ENDBRANCH  25  28
ENDBRANCH  22  27
ENDBRANCH   1  22
TORSDOF 5
ENDMDL
MODEL 2
REMARK VINA RESULT:      -8.7      0.428      1.449
REMARK  Name = 
REMARK  6 active torsions:
REMARK  status: ('A' for Active; 'I' for Inactive)
REMARK    1  A    between atoms: C_3  and  N_4
REMARK    2  A    between atoms: N_6  and  C_7
REMARK    3  A    between atoms: C_7  and  C_8
REMARK    4  A    between atoms: C_12  and  C_13
REMARK    5  A    between atoms: N_19  and  C_20
REMARK    6  A    between atoms: C_24  and  C_25
REMARK                            x       y       z     vdW  Elec       q    Type
REMARK                         _______ _______ _______ _____ _____    ______ ____
ROOT
ATOM      1  C   UNL     1       3.723   4.234  17.804  0.00  0.00    +0.000 A 
ATOM      2  C   UNL     1       3.366   5.579  17.665  0.00  0.00    +0.000 A 
ATOM      3  C   UNL     1       2.656   6.177  18.694  0.00  0.00    +0.000 A 
ATOM      4  C   UNL     1       2.273   5.504  19.849  0.00  0.00    +0.000 A 
ATOM      5  C   UNL     1       2.572   4.154  20.001  0.00  0.00    +0.000 A 
ATOM      6  C   UNL     1       3.307   3.532  18.963  0.00  0.00    +0.000 A 
ATOM      7  C   UNL     1       1.587   6.463  20.774  0.00  0.00    +0.000 C 
ATOM      8  N   UNL     1       1.593   7.719  20.036  0.00  0.00    +0.000 N 
ATOM      9  C   UNL     1       2.214   7.573  18.792  0.00  0.00    +0.000 C 
ATOM     10  O   UNL     1       2.419   8.364  17.893  0.00  0.00    +0.000 OA
ENDROOT
BRANCH   8  11
ATOM     11  C   UNL     1       1.045   8.921  20.564  0.00  0.00    +0.000 A 
ATOM     12  C   UNL     1       0.614   9.006  21.894  0.00  0.00    +0.000 A 
ATOM     13  C   UNL     1       0.076  10.187  22.411  0.00  0.00    +0.000 A 
ATOM     14  C   UNL     1      -0.054  11.311  21.604  0.00  0.00    +0.000 A 
ATOM     15  C   UNL     1       0.358  11.262  20.272  0.00  0.00    +0.000 A 
ATOM     16  C   UNL     1       0.194  12.457  19.380  0.00  0.00    +0.000 C 
ATOM     17  C   UNL     1       0.911  10.070  19.764  0.00  0.00    +0.000 A 
ENDBRANCH   8  11
BRANCH   5  18
ATOM     18  C   UNL     1       2.158   3.357  21.210  0.00  0.00    +0.000 C 
ATOM     19  F   UNL     1       0.831   3.046  21.231  0.00  0.00    +0.000 F 
ATOM     20  F   UNL     1       2.817   2.169  21.299  0.00  0.00    +0.000 F 
ATOM     21  F   UNL     1       2.403   4.012  22.378  0.00  0.00    +0.000 F 
ENDBRANCH   5  18
BRANCH   1  22
ATOM     22  C   UNL     1       4.553   3.539  16.735  0.00  0.00    +0.000 C 
BRANCH  22  27
ATOM     23  C   UNL     1       5.285   3.908  13.577  0.00  0.00    +0.000 C 
ATOM     24  C   UNL     1       5.863   4.217  14.742  0.00  0.00    +0.000 C 
ATOM     25  C   UNL     1       7.318   4.469  15.117  0.00  0.00    +0.000 C 
ATOM     26  C   UNL     1       6.666   4.923  16.435  0.00  0.00    +0.000 C 
ATOM     27  N   UNL     1       5.400   4.431  15.944  0.00  0.00    +0.000 N 
BRANCH  25  28
ATOM     28  N   UNL     1       7.902   5.604  14.400  0.00  0.00    +0.000 NA
ATOM     29  H   UNL     1       7.684   5.583  13.403  0.00  0.00    +0.000 HD
ATOM     30  H   UNL     1       8.919   5.606  14.449  0.00  0.00    +0.000 HD
ENDBRANCH  25  28
ENDBRANCH  22  27
ENDBRANCH   1  22
TORSDOF 5
ENDMDL
MODEL 3
REMARK VINA RESULT:      -8.6      0.993      1.312
REMARK  Name = 
REMARK  6 active torsions:
REMARK  status: ('A' for Active; 'I' for Inactive)
REMARK    1  A    between atoms: C_3  and  N_4
REMARK    2  A    between atoms: N_6  and  C_7
REMARK    3  A    between atoms: C_7  and  C_8
REMARK    4  A    between atoms: C_12  and  C_13
REMARK    5  A    between atoms: N_19  and  C_20
REMARK    6  A    between atoms: C_24  and  C_25
REMARK                            x       y       z     vdW  Elec       q    Type
REMARK                         _______ _______ _______ _____ _____    ______ ____
ROOT
ATOM      1  C   UNL     1       4.397   3.995  16.987  0.00  0.00    +0.000 A 
ATOM      2  C   UNL     1       4.190   5.378  17.052  0.00  0.00    +0.000 A 
ATOM      3  C   UNL     1       3.279   5.860  17.977  0.00  0.00    +0.000 A 
ATOM      4  C   UNL     1       2.554   5.041  18.834  0.00  0.00    +0.000 A 
ATOM      5  C   UNL     1       2.701   3.659  18.767  0.00  0.00    +0.000 A 
ATOM      6  C   UNL     1       3.636   3.151  17.834  0.00  0.00    +0.000 A 
ATOM      7  C   UNL     1       1.721   5.892  19.743  0.00  0.00    +0.000 C 
ATOM      8  N   UNL     1       2.016   7.251  19.311  0.00  0.00    +0.000 N 
ATOM      9  C   UNL     1       2.933   7.259  18.255  0.00  0.00    +0.000 C 
ATOM     10  O   UNL     1       3.427   8.170  17.622  0.00  0.00    +0.000 OA
ENDROOT
BRANCH   8  11
ATOM     11  C   UNL     1       1.439   8.395  19.929  0.00  0.00    +0.000 A 
ATOM     12  C   UNL     1       1.228   9.583  19.217  0.00  0.00    +0.000 A 
ATOM     13  C   UNL     1       0.661  10.706  19.826  0.00  0.00    +0.000 A 
ATOM     14  C   UNL     1       0.301  10.669  21.168  0.00  0.00    +0.000 A 
ATOM     15  C   UNL     1       0.502   9.506  21.911  0.00  0.00    +0.000 A 
ATOM     16  C   UNL     1       0.148   9.462  23.368  0.00  0.00    +0.000 C 
ATOM     17  C   UNL     1       1.062   8.375  21.284  0.00  0.00    +0.000 A 
ENDBRANCH   8  11
BRANCH   5  18
ATOM     18  C   UNL     1       1.921   2.711  19.642  0.00  0.00    +0.000 C 
ATOM     19  F   UNL     1       0.571   2.823  19.501  0.00  0.00    +0.000 F 
ATOM     20  F   UNL     1       2.213   1.408  19.382  0.00  0.00    +0.000 F 
ATOM     21  F   UNL     1       2.172   2.897  20.967  0.00  0.00    +0.000 F 
ENDBRANCH   5  18
BRANCH   1  22
ATOM     22  C   UNL     1       5.426   3.410  16.033  0.00  0.00    +0.000 C 
BRANCH  22  27
ATOM     23  C   UNL     1       5.478   3.614  12.777  0.00  0.00    +0.000 C 
ATOM     24  C   UNL     1       6.203   4.109  13.784  0.00  0.00    +0.000 C 
ATOM     25  C   UNL     1       7.638   4.617  13.846  0.00  0.00    +0.000 C 
ATOM     26  C   UNL     1       7.178   5.076  15.241  0.00  0.00    +0.000 C 
ATOM     27  N   UNL     1       5.945   4.352  15.041  0.00  0.00    +0.000 N 
BRANCH  25  28
ATOM     28  N   UNL     1       7.875   5.763  12.967  0.00  0.00    +0.000 NA
ATOM     29  H   UNL     1       8.507   6.446  13.387  0.00  0.00    +0.000 HD
ATOM     30  H   UNL     1       7.019   6.280  12.773  0.00  0.00    +0.000 HD
ENDBRANCH  25  28
ENDBRANCH  22  27
ENDBRANCH   1  22
TORSDOF 5
ENDMDL
MODEL 4
REMARK VINA RESULT:      -8.6      1.670      7.845
REMARK  Name = 
REMARK  6 active torsions:
REMARK  status: ('A' for Active; 'I' for Inactive)
REMARK    1  A    between atoms: C_3  and  N_4
REMARK    2  A    between atoms: N_6  and  C_7
REMARK    3  A    between atoms: C_7  and  C_8
REMARK    4  A    between atoms: C_12  and  C_13
REMARK    5  A    between atoms: N_19  and  C_20
REMARK    6  A    between atoms: C_24  and  C_25
REMARK                            x       y       z     vdW  Elec       q    Type
REMARK                         _______ _______ _______ _____ _____    ______ ____
ROOT
ATOM      1  C   UNL     1       2.505   6.587  19.356  0.00  0.00    +0.000 A 
ATOM      2  C   UNL     1       3.352   6.983  18.315  0.00  0.00    +0.000 A 
ATOM      3  C   UNL     1       3.889   5.999  17.500  0.00  0.00    +0.000 A 
ATOM      4  C   UNL     1       3.638   4.643  17.671  0.00  0.00    +0.000 A 
ATOM      5  C   UNL     1       2.837   4.210  18.724  0.00  0.00    +0.000 A 
ATOM      6  C   UNL     1       2.272   5.204  19.559  0.00  0.00    +0.000 A 
ATOM      7  C   UNL     1       4.316   3.873  16.580  0.00  0.00    +0.000 C 
ATOM      8  N   UNL     1       4.989   4.902  15.798  0.00  0.00    +0.000 N 
ATOM      9  C   UNL     1       4.758   6.174  16.330  0.00  0.00    +0.000 C 
ATOM     10  O   UNL     1       5.134   7.276  15.982  0.00  0.00    +0.000 OA
ENDROOT
BRANCH   8  11
ATOM     11  C   UNL     1       5.753   4.605  14.635  0.00  0.00    +0.000 A 
ATOM     12  C   UNL     1       6.991   5.216  14.397  0.00  0.00    +0.000 A 
ATOM     13  C   UNL     1       7.740   4.923  13.255  0.00  0.00    +0.000 A 
ATOM     14  C   UNL     1       7.260   4.018  12.315  0.00  0.00    +0.000 A 
ATOM     15  C   UNL     1       6.028   3.396  12.514  0.00  0.00    +0.000 A 
ATOM     16  C   UNL     1       5.483   2.441  11.492  0.00  0.00    +0.000 C 
ATOM     17  C   UNL     1       5.287   3.688  13.676  0.00  0.00    +0.000 A 
ENDBRANCH   8  11
BRANCH   5  18
ATOM     18  C   UNL     1       2.552   2.755  18.988  0.00  0.00    +0.000 C 
ATOM     19  F   UNL     1       1.726   2.544  20.051  0.00  0.00    +0.000 F 
ATOM     20  F   UNL     1       1.953   2.144  17.929  0.00  0.00    +0.000 F 
ATOM     21  F   UNL     1       3.680   2.040  19.248  0.00  0.00    +0.000 F 
ENDBRANCH   5  18
BRANCH   1  22
ATOM     22  C   UNL     1       1.839   7.624  20.248  0.00  0.00    +0.000 C 
BRANCH  22  27
ATOM     23  C   UNL     1       0.752  10.550  21.196  0.00  0.00    +0.000 C 
ATOM     24  C   UNL     1       0.860   9.891  20.038  0.00  0.00    +0.000 C 
ATOM     25  C   UNL     1       0.112  10.033  18.718  0.00  0.00    +0.000 C 
ATOM     26  C   UNL     1       1.213   9.066  18.248  0.00  0.00    +0.000 C 
ATOM     27  N   UNL     1       1.639   8.930  19.622  0.00  0.00    +0.000 N 
BRANCH  25  28
ATOM     28  N   UNL     1       0.278  11.354  18.108  0.00  0.00    +0.000 NA
ATOM     29  H   UNL     1       0.147  11.330  17.096  0.00  0.00    +0.000 HD
ATOM     30  H   UNL     1       1.217  11.724  18.245  0.00  0.00    +0.000 HD
ENDBRANCH  25  28
ENDBRANCH  22  27
ENDBRANCH   1  22
TORSDOF 5
ENDMDL
MODEL 5
REMARK VINA RESULT:      -8.6      1.433      2.381
REMARK  Name = 
REMARK  6 active torsions:
REMARK  status: ('A' for Active; 'I' for Inactive)
REMARK    1  A    between atoms: C_3  and  N_4
REMARK    2  A    between atoms: N_6  and  C_7
REMARK    3  A    between atoms: C_7  and  C_8
REMARK    4  A    between atoms: C_12  and  C_13
REMARK    5  A    between atoms: N_19  and  C_20
REMARK    6  A    between atoms: C_24  and  C_25
REMARK                            x       y       z     vdW  Elec       q    Type
REMARK                         _______ _______ _______ _____ _____    ______ ____
ROOT
ATOM      1  C   UNL     1       3.892   6.744  17.207  0.00  0.00    +0.000 A 
ATOM      2  C   UNL     1       3.264   7.963  17.485  0.00  0.00    +0.000 A 
ATOM      3  C   UNL     1       2.437   8.035  18.594  0.00  0.00    +0.000 A 
ATOM      4  C   UNL     1       2.193   6.956  19.436  0.00  0.00    +0.000 A 
ATOM      5  C   UNL     1       2.765   5.717  19.165  0.00  0.00    +0.000 A 
ATOM      6  C   UNL     1       3.621   5.630  18.040  0.00  0.00    +0.000 A 
ATOM      7  C   UNL     1       1.316   7.400  20.566  0.00  0.00    +0.000 C 
ATOM      8  N   UNL     1       1.067   8.807  20.278  0.00  0.00    +0.000 N 
ATOM      9  C   UNL     1       1.715   9.206  19.105  0.00  0.00    +0.000 C 
ATOM     10  O   UNL     1       1.759  10.275  18.530  0.00  0.00    +0.000 OA
ENDROOT
BRANCH   8  11
ATOM     11  C   UNL     1       0.277   9.635  21.124  0.00  0.00    +0.000 A 
ATOM     12  C   UNL     1       0.123   9.352  22.487  0.00  0.00    +0.000 A 
ATOM     13  C   UNL     1      -0.653  10.166  23.316  0.00  0.00    +0.000 A 
ATOM     14  C   UNL     1      -1.304  11.279  22.797  0.00  0.00    +0.000 A 
ATOM     15  C   UNL     1      -1.178  11.588  21.442  0.00  0.00    +0.000 A 
ATOM     16  C   UNL     1      -1.900  12.768  20.861  0.00  0.00    +0.000 C 
ATOM     17  C   UNL     1      -0.383  10.769  20.617  0.00  0.00    +0.000 A 
ENDBRANCH   8  11
BRANCH   5  18
ATOM     18  C   UNL     1       2.515   4.498  20.015  0.00  0.00    +0.000 C 
ATOM     19  F   UNL     1       2.721   4.709  21.345  0.00  0.00    +0.000 F 
ATOM     20  F   UNL     1       1.236   4.044  19.907  0.00  0.00    +0.000 F 
ATOM     21  F   UNL     1       3.316   3.451  19.677  0.00  0.00    +0.000 F 
ENDBRANCH   5  18
BRANCH   1  22
ATOM     22  C   UNL     1       4.857   6.619  16.038  0.00  0.00    +0.000 C 
BRANCH  22  27
ATOM     23  C   UNL     1       6.199   3.715  15.398  0.00  0.00    +0.000 C 
ATOM     24  C   UNL     1       6.347   4.660  16.332  0.00  0.00    +0.000 C 
ATOM     25  C   UNL     1       6.880   4.601  17.758  0.00  0.00    +0.000 C 
ATOM     26  C   UNL     1       6.790   6.131  17.616  0.00  0.00    +0.000 C 
ATOM     27  N   UNL     1       6.115   5.945  16.353  0.00  0.00    +0.000 N 
BRANCH  25  28
ATOM     28  N   UNL     1       8.275   4.160  17.827  0.00  0.00    +0.000 NA
ATOM     29  H   UNL     1       8.412   3.426  18.522  0.00  0.00    +0.000 HD
ATOM     30  H   UNL     1       8.900   4.913  18.109  0.00  0.00    +0.000 HD
ENDBRANCH  25  28
ENDBRANCH  22  27
ENDBRANCH   1  22
TORSDOF 5
ENDMDL
MODEL 6
REMARK VINA RESULT:      -8.5      1.660      7.803
REMARK  Name = 
REMARK  6 active torsions:
REMARK  status: ('A' for Active; 'I' for Inactive)
REMARK    1  A    between atoms: C_3  and  N_4
REMARK    2  A    between atoms: N_6  and  C_7
REMARK    3  A    between atoms: C_7  and  C_8
REMARK    4  A    between atoms: C_12  and  C_13
REMARK    5  A    between atoms: N_19  and  C_20
REMARK    6  A    between atoms: C_24  and  C_25
REMARK                            x       y       z     vdW  Elec       q    Type
REMARK                         _______ _______ _______ _____ _____    ______ ____
ROOT
ATOM      1  C   UNL     1       2.659   6.551  19.522  0.00  0.00    +0.000 A 
ATOM      2  C   UNL     1       3.536   6.925  18.498  0.00  0.00    +0.000 A 
ATOM      3  C   UNL     1       3.969   5.947  17.617  0.00  0.00    +0.000 A 
ATOM      4  C   UNL     1       3.585   4.615  17.707  0.00  0.00    +0.000 A 
ATOM      5  C   UNL     1       2.750   4.198  18.739  0.00  0.00    +0.000 A 
ATOM      6  C   UNL     1       2.291   5.187  19.641  0.00  0.00    +0.000 A 
ATOM      7  C   UNL     1       4.178   3.852  16.562  0.00  0.00    +0.000 C 
ATOM      8  N   UNL     1       4.946   4.857  15.838  0.00  0.00    +0.000 N 
ATOM      9  C   UNL     1       4.845   6.109  16.451  0.00  0.00    +0.000 C 
ATOM     10  O   UNL     1       5.326   7.188  16.168  0.00  0.00    +0.000 OA
ENDROOT
BRANCH   8  11
ATOM     11  C   UNL     1       5.671   4.560  14.650  0.00  0.00    +0.000 A 
ATOM     12  C   UNL     1       6.939   5.104  14.412  0.00  0.00    +0.000 A 
ATOM     13  C   UNL     1       7.650   4.812  13.246  0.00  0.00    +0.000 A 
ATOM     14  C   UNL     1       7.101   3.974  12.282  0.00  0.00    +0.000 A 
ATOM     15  C   UNL     1       5.837   3.419  12.481  0.00  0.00    +0.000 A 
ATOM     16  C   UNL     1       5.218   2.539  11.435  0.00  0.00    +0.000 C 
ATOM     17  C   UNL     1       5.134   3.710  13.667  0.00  0.00    +0.000 A 
ENDBRANCH   8  11
BRANCH   5  18
ATOM     18  C   UNL     1       2.323   2.763  18.915  0.00  0.00    +0.000 C 
ATOM     19  F   UNL     1       3.360   1.909  19.145  0.00  0.00    +0.000 F 
ATOM     20  F   UNL     1       1.472   2.601  19.964  0.00  0.00    +0.000 F 
ATOM     21  F   UNL     1       1.674   2.273  17.824  0.00  0.00    +0.000 F 
ENDBRANCH   5  18
BRANCH   1  22
ATOM     22  C   UNL     1       2.103   7.589  20.484  0.00  0.00    +0.000 C 
BRANCH  22  27
ATOM     23  C   UNL     1       1.749   9.700  18.021  0.00  0.00    +0.000 C 
ATOM     24  C   UNL     1       1.134   9.465  19.183  0.00  0.00    +0.000 C 
ATOM     25  C   UNL     1       0.287  10.359  20.081  0.00  0.00    +0.000 C 
ATOM     26  C   UNL     1       0.020   9.017  20.786  0.00  0.00    +0.000 C 
ATOM     27  N   UNL     1       1.019   8.407  19.940  0.00  0.00    +0.000 N 
BRANCH  25  28
ATOM     28  N   UNL     1      -0.920  10.853  19.416  0.00  0.00    +0.000 NA
ATOM     29  H   UNL     1      -1.765  10.398  19.765  0.00  0.00    +0.000 HD
ATOM     30  H   UNL     1      -0.911  10.663  18.416  0.00  0.00    +0.000 HD
ENDBRANCH  25  28
ENDBRANCH  22  27
ENDBRANCH   1  22
TORSDOF 5
ENDMDL
MODEL 7
REMARK VINA RESULT:      -8.5      1.380      2.049
REMARK  Name = 
REMARK  6 active torsions:
REMARK  status: ('A' for Active; 'I' for Inactive)
REMARK    1  A    between atoms: C_3  and  N_4
REMARK    2  A    between atoms: N_6  and  C_7
REMARK    3  A    between atoms: C_7  and  C_8
REMARK    4  A    between atoms: C_12  and  C_13
REMARK    5  A    between atoms: N_19  and  C_20
REMARK    6  A    between atoms: C_24  and  C_25
REMARK                            x       y       z     vdW  Elec       q    Type
REMARK                         _______ _______ _______ _____ _____    ______ ____
ROOT
ATOM      1  C   UNL     1       3.763   4.818  17.926  0.00  0.00    +0.000 A 
ATOM      2  C   UNL     1       3.324   6.146  17.939  0.00  0.00    +0.000 A 
ATOM      3  C   UNL     1       2.509   6.556  18.982  0.00  0.00    +0.000 A 
ATOM      4  C   UNL     1       2.100   5.712  20.008  0.00  0.00    +0.000 A 
ATOM      5  C   UNL     1       2.481   4.374  20.004  0.00  0.00    +0.000 A 
ATOM      6  C   UNL     1       3.321   3.943  18.950  0.00  0.00    +0.000 A 
ATOM      7  C   UNL     1       1.291   6.495  20.998  0.00  0.00    +0.000 C 
ATOM      8  N   UNL     1       1.258   7.837  20.432  0.00  0.00    +0.000 N 
ATOM      9  C   UNL     1       1.968   7.897  19.229  0.00  0.00    +0.000 C 
ATOM     10  O   UNL     1       2.175   8.813  18.459  0.00  0.00    +0.000 OA
ENDROOT
BRANCH   8  11
ATOM     11  C   UNL     1       0.596   8.922  21.071  0.00  0.00    +0.000 A 
ATOM     12  C   UNL     1       0.459   8.977  22.465  0.00  0.00    +0.000 A 
ATOM     13  C   UNL     1      -0.192  10.043  23.091  0.00  0.00    +0.000 A 
ATOM     14  C   UNL     1      -0.732  11.077  22.334  0.00  0.00    +0.000 A 
ATOM     15  C   UNL     1      -0.620  11.053  20.944  0.00  0.00    +0.000 A 
ATOM     16  C   UNL     1      -1.226  12.145  20.113  0.00  0.00    +0.000 C 
ATOM     17  C   UNL     1       0.049   9.980  20.323  0.00  0.00    +0.000 A 
ENDBRANCH   8  11
BRANCH   5  18
ATOM     18  C   UNL     1       2.044   3.397  21.066  0.00  0.00    +0.000 C 
ATOM     19  F   UNL     1       2.614   2.166  20.942  0.00  0.00    +0.000 F 
ATOM     20  F   UNL     1       2.354   3.823  22.320  0.00  0.00    +0.000 F 
ATOM     21  F   UNL     1       0.700   3.185  21.061  0.00  0.00    +0.000 F 
ENDBRANCH   5  18
BRANCH   1  22
ATOM     22  C   UNL     1       4.706   4.325  16.840  0.00  0.00    +0.000 C 
BRANCH  22  27
ATOM     23  C   UNL     1       7.573   4.750  18.338  0.00  0.00    +0.000 C 
ATOM     24  C   UNL     1       6.795   5.471  17.525  0.00  0.00    +0.000 C 
ATOM     25  C   UNL     1       6.682   6.973  17.300  0.00  0.00    +0.000 C 
ATOM     26  C   UNL     1       5.805   6.504  16.125  0.00  0.00    +0.000 C 
ATOM     27  N   UNL     1       5.891   5.157  16.636  0.00  0.00    +0.000 N 
BRANCH  25  28
ATOM     28  N   UNL     1       7.928   7.573  16.819  0.00  0.00    +0.000 NA
ATOM     29  H   UNL     1       8.622   6.868  16.568  0.00  0.00    +0.000 HD
ATOM     30  H   UNL     1       8.377   8.145  17.531  0.00  0.00    +0.000 HD
ENDBRANCH  25  28
ENDBRANCH  22  27
ENDBRANCH   1  22
TORSDOF 5
ENDMDL
MODEL 8
REMARK VINA RESULT:      -8.4      3.380      8.156
REMARK  Name = 
REMARK  6 active torsions:
REMARK  status: ('A' for Active; 'I' for Inactive)
REMARK    1  A    between atoms: C_3  and  N_4
REMARK    2  A    between atoms: N_6  and  C_7
REMARK    3  A    between atoms: C_7  and  C_8
REMARK    4  A    between atoms: C_12  and  C_13
REMARK    5  A    between atoms: N_19  and  C_20
REMARK    6  A    between atoms: C_24  and  C_25
REMARK                            x       y       z     vdW  Elec       q    Type
REMARK                         _______ _______ _______ _____ _____    ______ ____
ROOT
ATOM      1  C   UNL     1       0.080  11.197  19.161  0.00  0.00    +0.000 A 
ATOM      2  C   UNL     1       0.884  10.324  18.421  0.00  0.00    +0.000 A 
ATOM      3  C   UNL     1       1.352   9.178  19.045  0.00  0.00    +0.000 A 
ATOM      4  C   UNL     1       1.071   8.860  20.368  0.00  0.00    +0.000 A 
ATOM      5  C   UNL     1       0.312   9.727  21.147  0.00  0.00    +0.000 A 
ATOM      6  C   UNL     1      -0.182  10.897  20.521  0.00  0.00    +0.000 A 
ATOM      7  C   UNL     1       1.673   7.527  20.694  0.00  0.00    +0.000 C 
ATOM      8  N   UNL     1       2.334   7.135  19.456  0.00  0.00    +0.000 N 
ATOM      9  C   UNL     1       2.166   8.105  18.463  0.00  0.00    +0.000 C 
ATOM     10  O   UNL     1       2.555   8.159  17.314  0.00  0.00    +0.000 OA
ENDROOT
BRANCH   8  11
ATOM     11  C   UNL     1       3.031   5.902  19.316  0.00  0.00    +0.000 A 
ATOM     12  C   UNL     1       4.430   5.854  19.266  0.00  0.00    +0.000 A 
ATOM     13  C   UNL     1       5.112   4.643  19.129  0.00  0.00    +0.000 A 
ATOM     14  C   UNL     1       4.408   3.449  19.026  0.00  0.00    +0.000 A 
ATOM     15  C   UNL     1       3.013   3.458  19.065  0.00  0.00    +0.000 A 
ATOM     16  C   UNL     1       2.239   2.181  18.924  0.00  0.00    +0.000 C 
ATOM     17  C   UNL     1       2.335   4.684  19.218  0.00  0.00    +0.000 A 
ENDBRANCH   8  11
BRANCH   5  18
ATOM     18  C   UNL     1      -0.001   9.461  22.597  0.00  0.00    +0.000 C 
ATOM     19  F   UNL     1       1.103   9.217  23.358  0.00  0.00    +0.000 F 
ATOM     20  F   UNL     1      -0.635  10.509  23.191  0.00  0.00    +0.000 F 
ATOM     21  F   UNL     1      -0.814   8.383  22.768  0.00  0.00    +0.000 F 
ENDBRANCH   5  18
BRANCH   1  22
ATOM     22  C   UNL     1      -0.512  12.440  18.515  0.00  0.00    +0.000 C 
BRANCH  22  27
ATOM     23  C   UNL     1      -3.454  12.539  19.922  0.00  0.00    +0.000 C 
ATOM     24  C   UNL     1      -2.934  12.003  18.814  0.00  0.00    +0.000 C 
ATOM     25  C   UNL     1      -3.377  10.826  17.953  0.00  0.00    +0.000 C 
ATOM     26  C   UNL     1      -2.282  11.382  17.026  0.00  0.00    +0.000 C 
ATOM     27  N   UNL     1      -1.899  12.298  18.074  0.00  0.00    +0.000 N 
BRANCH  25  28
ATOM     28  N   UNL     1      -4.707  11.017  17.370  0.00  0.00    +0.000 NA
ATOM     29  H   UNL     1      -4.781  10.603  16.439  0.00  0.00    +0.000 HD
ATOM     30  H   UNL     1      -4.930  12.002  17.241  0.00  0.00    +0.000 HD
ENDBRANCH  25  28
ENDBRANCH  22  27
ENDBRANCH   1  22
TORSDOF 5
ENDMDL
MODEL 9
REMARK VINA RESULT:      -8.4      1.436      7.659
REMARK  Name = 
REMARK  6 active torsions:
REMARK  status: ('A' for Active; 'I' for Inactive)
REMARK    1  A    between atoms: C_3  and  N_4
REMARK    2  A    between atoms: N_6  and  C_7
REMARK    3  A    between atoms: C_7  and  C_8
REMARK    4  A    between atoms: C_12  and  C_13
REMARK    5  A    between atoms: N_19  and  C_20
REMARK    6  A    between atoms: C_24  and  C_25
REMARK                            x       y       z     vdW  Elec       q    Type
REMARK                         _______ _______ _______ _____ _____    ______ ____
ROOT
ATOM      1  C   UNL     1       1.531   6.369  20.482  0.00  0.00    +0.000 A 
ATOM      2  C   UNL     1       2.291   6.881  19.424  0.00  0.00    +0.000 A 
ATOM      3  C   UNL     1       3.136   6.016  18.747  0.00  0.00    +0.000 A 
ATOM      4  C   UNL     1       3.272   4.672  19.072  0.00  0.00    +0.000 A 
ATOM      5  C   UNL     1       2.565   4.139  20.145  0.00  0.00    +0.000 A 
ATOM      6  C   UNL     1       1.690   5.008  20.841  0.00  0.00    +0.000 A 
ATOM      7  C   UNL     1       4.208   4.021  18.099  0.00  0.00    +0.000 C 
ATOM      8  N   UNL     1       4.605   5.113  17.219  0.00  0.00    +0.000 N 
ATOM      9  C   UNL     1       3.988   6.312  17.590  0.00  0.00    +0.000 C 
ATOM     10  O   UNL     1       4.054   7.431  17.124  0.00  0.00    +0.000 OA
ENDROOT
BRANCH   8  11
ATOM     11  C   UNL     1       5.491   4.929  16.122  0.00  0.00    +0.000 A 
ATOM     12  C   UNL     1       6.808   5.406  16.157  0.00  0.00    +0.000 A 
ATOM     13  C   UNL     1       7.678   5.225  15.079  0.00  0.00    +0.000 A 
ATOM     14  C   UNL     1       7.244   4.570  13.931  0.00  0.00    +0.000 A 
ATOM     15  C   UNL     1       5.938   4.088  13.857  0.00  0.00    +0.000 A 
ATOM     16  C   UNL     1       5.447   3.408  12.613  0.00  0.00    +0.000 C 
ATOM     17  C   UNL     1       5.073   4.264  14.955  0.00  0.00    +0.000 A 
ENDBRANCH   8  11
BRANCH   5  18
ATOM     18  C   UNL     1       2.692   2.699  20.573  0.00  0.00    +0.000 C 
ATOM     19  F   UNL     1       3.975   2.314  20.819  0.00  0.00    +0.000 F 
ATOM     20  F   UNL     1       2.001   2.436  21.715  0.00  0.00    +0.000 F 
ATOM     21  F   UNL     1       2.218   1.832  19.637  0.00  0.00    +0.000 F 
ENDBRANCH   5  18
BRANCH   1  22
ATOM     22  C   UNL     1       0.543   7.256  21.224  0.00  0.00    +0.000 C 
BRANCH  22  27
ATOM     23  C   UNL     1       0.211   9.576  23.493  0.00  0.00    +0.000 C 
ATOM     24  C   UNL     1       0.450   9.542  22.179  0.00  0.00    +0.000 C 
ATOM     25  C   UNL     1       0.225  10.573  21.080  0.00  0.00    +0.000 C 
ATOM     26  C   UNL     1       1.048   9.558  20.268  0.00  0.00    +0.000 C 
ATOM     27  N   UNL     1       0.970   8.645  21.384  0.00  0.00    +0.000 N 
BRANCH  25  28
ATOM     28  N   UNL     1       0.979  11.809  21.296  0.00  0.00    +0.000 NA
ATOM     29  H   UNL     1       1.098  12.343  20.433  0.00  0.00    +0.000 HD
ATOM     30  H   UNL     1       1.924  11.628  21.628  0.00  0.00    +0.000 HD
ENDBRANCH  25  28
ENDBRANCH  22  27
ENDBRANCH   1  22
TORSDOF 5
ENDMDL
