MODEL 1
REMARK VINA RESULT:      -9.6      0.000      0.000
REMARK  Name = 
REMARK  5 active torsions:
REMARK  status: ('A' for Active; 'I' for Inactive)
REMARK    1  A    between atoms: C_2  and  C_4
REMARK    2  A    between atoms: C_8  and  N_9
REMARK    3  A    between atoms: C_10  and  C_12
REMARK    4  A    between atoms: C_12  and  C_13
REMARK    5  A    between atoms: C_17  and  C_18
REMARK                            x       y       z     vdW  Elec       q    Type
REMARK                         _______ _______ _______ _____ _____    ______ ____
ROOT
ATOM      1  C   UNL     1       4.536   5.520  17.565  0.00  0.00    +0.000 C 
ATOM      2  C   UNL     1       5.855   5.691  18.398  0.00  0.00    +0.000 C 
ATOM      3  C   UNL     1       6.900   4.608  18.154  0.00  0.00    +0.000 C 
ATOM      4  C   UNL     1       7.279   4.537  16.684  0.00  0.00    +0.000 C 
ATOM      5  C   UNL     1       6.053   4.345  15.806  0.00  0.00    +0.000 C 
ATOM      6  C   UNL     1       4.969   5.402  16.071  0.00  0.00    +0.000 C 
ENDROOT
BRANCH   1   7
ATOM      7  C   UNL     1       3.700   4.337  18.104  0.00  0.00    +0.000 A 
ATOM      8  C   UNL     1       3.194   3.370  17.215  0.00  0.00    +0.000 A 
ATOM      9  C   UNL     1       2.391   2.314  17.655  0.00  0.00    +0.000 A 
ATOM     10  C   UNL     1       2.075   2.191  19.004  0.00  0.00    +0.000 A 
ATOM     11  C   UNL     1       2.583   3.111  19.926  0.00  0.00    +0.000 A 
ATOM     12  C   UNL     1       3.402   4.162  19.468  0.00  0.00    +0.000 A 
BRANCH  11  13
ATOM     13  C   UNL     1       2.260   3.007  21.397  0.00  0.00    +0.000 C 
ATOM     14  F   UNL     1       0.998   2.565  21.656  0.00  0.00    +0.000 F 
ATOM     15  F   UNL     1       3.098   2.156  22.051  0.00  0.00    +0.000 F 
ATOM     16  F   UNL     1       2.375   4.205  22.037  0.00  0.00    +0.000 F 
ENDBRANCH  11  13
ENDBRANCH   1   7
BRANCH   1  18
ATOM     17  N   UNL     1       2.851   6.861  18.867  0.00  0.00    +0.000 N 
ATOM     18  C   UNL     1       3.738   6.846  17.794  0.00  0.00    +0.000 C 
ATOM     19  O   UNL     1       3.963   7.831  17.090  0.00  0.00    +0.000 OA
ATOM     20  H   UNL     1       2.906   6.095  19.527  0.00  0.00    +0.000 HD
BRANCH  17  25
ATOM     21  C   UNL     1       0.867   9.175  20.995  0.00  0.00    +0.000 A 
ATOM     22  C   UNL     1       0.489  10.160  20.077  0.00  0.00    +0.000 A 
ATOM     23  C   UNL     1       0.826  10.016  18.736  0.00  0.00    +0.000 A 
ATOM     24  C   UNL     1       1.571   8.912  18.317  0.00  0.00    +0.000 A 
ATOM     25  C   UNL     1       2.015   7.948  19.231  0.00  0.00    +0.000 A 
ATOM     26  C   UNL     1       1.627   8.069  20.569  0.00  0.00    +0.000 A 
BRANCH  21  28
ATOM     27  N   UNL     1      -0.755   9.014  22.815  0.00  0.00    +0.000 N 
ATOM     28  C   UNL     1       0.528   9.297  22.438  0.00  0.00    +0.000 C 
ATOM     29  O   UNL     1       1.372   9.612  23.268  0.00  0.00    +0.000 OA
ATOM     30  H   UNL     1      -0.956   9.040  23.806  0.00  0.00    +0.000 HD
ATOM     31  H   UNL     1      -1.418   8.549  22.213  0.00  0.00    +0.000 HD
ENDBRANCH  21  28
ENDBRANCH  17  25
ENDBRANCH   1  18
TORSDOF 5
ENDMDL
MODEL 2
REMARK VINA RESULT:      -9.6      3.003      4.543
REMARK  Name = 
REMARK  5 active torsions:
REMARK  status: ('A' for Active; 'I' for Inactive)
REMARK    1  A    between atoms: C_2  and  C_4
REMARK    2  A    between atoms: C_8  and  N_9
REMARK    3  A    between atoms: C_10  and  C_12
REMARK    4  A    between atoms: C_12  and  C_13
REMARK    5  A    between atoms: C_17  and  C_18
REMARK                            x       y       z     vdW  Elec       q    Type
REMARK                         _______ _______ _______ _____ _____    ______ ____
ROOT
ATOM      1  C   UNL     1       2.957   4.874  18.833  0.00  0.00    +0.000 C 
ATOM      2  C   UNL     1       2.027   4.033  17.888  0.00  0.00    +0.000 C 
ATOM      3  C   UNL     1       2.275   2.530  17.933  0.00  0.00    +0.000 C 
ATOM      4  C   UNL     1       2.116   1.993  19.346  0.00  0.00    +0.000 C 
ATOM      5  C   UNL     1       3.009   2.742  20.324  0.00  0.00    +0.000 C 
ATOM      6  C   UNL     1       2.805   4.264  20.260  0.00  0.00    +0.000 C 
ENDROOT
BRANCH   1   7
ATOM      7  C   UNL     1       4.401   4.911  18.282  0.00  0.00    +0.000 A 
ATOM      8  C   UNL     1       5.477   5.186  19.148  0.00  0.00    +0.000 A 
ATOM      9  C   UNL     1       6.792   5.280  18.682  0.00  0.00    +0.000 A 
ATOM     10  C   UNL     1       7.070   5.095  17.331  0.00  0.00    +0.000 A 
ATOM     11  C   UNL     1       6.035   4.789  16.442  0.00  0.00    +0.000 A 
ATOM     12  C   UNL     1       4.717   4.684  16.931  0.00  0.00    +0.000 A 
BRANCH  11  13
ATOM     13  C   UNL     1       6.301   4.583  14.971  0.00  0.00    +0.000 C 
ATOM     14  F   UNL     1       6.303   3.276  14.587  0.00  0.00    +0.000 F 
ATOM     15  F   UNL     1       5.377   5.204  14.186  0.00  0.00    +0.000 F 
ATOM     16  F   UNL     1       7.509   5.086  14.588  0.00  0.00    +0.000 F 
ENDBRANCH  11  13
ENDBRANCH   1   7
BRANCH   1  18
ATOM     17  N   UNL     1       2.061   6.900  20.027  0.00  0.00    +0.000 N 
ATOM     18  C   UNL     1       2.368   6.322  18.798  0.00  0.00    +0.000 C 
ATOM     19  O   UNL     1       2.267   6.921  17.726  0.00  0.00    +0.000 OA
ATOM     20  H   UNL     1       2.396   6.430  20.858  0.00  0.00    +0.000 HD
BRANCH  17  25
ATOM     21  C   UNL     1       0.399   9.766  21.713  0.00  0.00    +0.000 A 
ATOM     22  C   UNL     1       0.487  10.766  20.738  0.00  0.00    +0.000 A 
ATOM     23  C   UNL     1       1.029  10.467  19.494  0.00  0.00    +0.000 A 
ATOM     24  C   UNL     1       1.515   9.184  19.232  0.00  0.00    +0.000 A 
ATOM     25  C   UNL     1       1.494   8.187  20.215  0.00  0.00    +0.000 A 
ATOM     26  C   UNL     1       0.900   8.477  21.447  0.00  0.00    +0.000 A 
BRANCH  21  28
ATOM     27  N   UNL     1      -1.297  10.820  23.120  0.00  0.00    +0.000 N 
ATOM     28  C   UNL     1      -0.170  10.049  23.057  0.00  0.00    +0.000 C 
ATOM     29  O   UNL     1       0.334   9.588  24.073  0.00  0.00    +0.000 OA
ATOM     30  H   UNL     1      -1.709  10.952  24.034  0.00  0.00    +0.000 HD
ATOM     31  H   UNL     1      -1.864  11.038  22.314  0.00  0.00    +0.000 HD
ENDBRANCH  21  28
ENDBRANCH  17  25
ENDBRANCH   1  18
TORSDOF 5
ENDMDL
MODEL 3
REMARK VINA RESULT:      -9.3      3.269      4.890
REMARK  Name = 
REMARK  5 active torsions:
REMARK  status: ('A' for Active; 'I' for Inactive)
REMARK    1  A    between atoms: C_2  and  C_4
REMARK    2  A    between atoms: C_8  and  N_9
REMARK    3  A    between atoms: C_10  and  C_12
REMARK    4  A    between atoms: C_12  and  C_13
REMARK    5  A    between atoms: C_17  and  C_18
REMARK                            x       y       z     vdW  Elec       q    Type
REMARK                         _______ _______ _______ _____ _____    ______ ____
ROOT
ATOM      1  C   UNL     1       3.025   5.097  18.994  0.00  0.00    +0.000 C 
ATOM      2  C   UNL     1       1.996   4.472  17.985  0.00  0.00    +0.000 C 
ATOM      3  C   UNL     1       2.085   2.957  17.851  0.00  0.00    +0.000 C 
ATOM      4  C   UNL     1       1.895   2.277  19.197  0.00  0.00    +0.000 C 
ATOM      5  C   UNL     1       2.876   2.811  20.228  0.00  0.00    +0.000 C 
ATOM      6  C   UNL     1       2.833   4.343  20.345  0.00  0.00    +0.000 C 
ENDROOT
BRANCH   1   7
ATOM      7  C   UNL     1       4.456   5.050  18.410  0.00  0.00    +0.000 A 
ATOM      8  C   UNL     1       5.565   5.256  19.252  0.00  0.00    +0.000 A 
ATOM      9  C   UNL     1       6.872   5.274  18.757  0.00  0.00    +0.000 A 
ATOM     10  C   UNL     1       7.108   5.079  17.399  0.00  0.00    +0.000 A 
ATOM     11  C   UNL     1       6.038   4.839  16.533  0.00  0.00    +0.000 A 
ATOM     12  C   UNL     1       4.727   4.811  17.051  0.00  0.00    +0.000 A 
BRANCH  11  13
ATOM     13  C   UNL     1       6.258   4.624  15.055  0.00  0.00    +0.000 C 
ATOM     14  F   UNL     1       7.423   5.150  14.587  0.00  0.00    +0.000 F 
ATOM     15  F   UNL     1       6.281   3.303  14.723  0.00  0.00    +0.000 F 
ATOM     16  F   UNL     1       5.268   5.177  14.299  0.00  0.00    +0.000 F 
ENDBRANCH  11  13
ENDBRANCH   1   7
BRANCH   1  18
ATOM     17  N   UNL     1       1.926   6.935  20.316  0.00  0.00    +0.000 N 
ATOM     18  C   UNL     1       2.591   6.592  19.141  0.00  0.00    +0.000 C 
ATOM     19  O   UNL     1       2.905   7.413  18.279  0.00  0.00    +0.000 OA
ATOM     20  H   UNL     1       1.922   6.253  21.064  0.00  0.00    +0.000 HD
BRANCH  17  25
ATOM     21  C   UNL     1       0.414  10.300  19.858  0.00  0.00    +0.000 A 
ATOM     22  C   UNL     1       0.266  10.733  21.180  0.00  0.00    +0.000 A 
ATOM     23  C   UNL     1       0.739   9.941  22.220  0.00  0.00    +0.000 A 
ATOM     24  C   UNL     1       1.325   8.703  21.945  0.00  0.00    +0.000 A 
ATOM     25  C   UNL     1       1.425   8.223  20.634  0.00  0.00    +0.000 A 
ATOM     26  C   UNL     1       0.997   9.047  19.588  0.00  0.00    +0.000 A 
BRANCH  21  28
ATOM     27  N   UNL     1      -0.561  10.456  17.623  0.00  0.00    +0.000 N 
ATOM     28  C   UNL     1      -0.083  11.117  18.720  0.00  0.00    +0.000 C 
ATOM     29  O   UNL     1      -0.092  12.341  18.769  0.00  0.00    +0.000 OA
ATOM     30  H   UNL     1      -0.954  11.022  16.883  0.00  0.00    +0.000 HD
ATOM     31  H   UNL     1      -0.773   9.469  17.622  0.00  0.00    +0.000 HD
ENDBRANCH  21  28
ENDBRANCH  17  25
ENDBRANCH   1  18
TORSDOF 5
ENDMDL
MODEL 4
REMARK VINA RESULT:      -9.2      2.986      4.551
REMARK  Name = 
REMARK  5 active torsions:
REMARK  status: ('A' for Active; 'I' for Inactive)
REMARK    1  A    between atoms: C_2  and  C_4
REMARK    2  A    between atoms: C_8  and  N_9
REMARK    3  A    between atoms: C_10  and  C_12
REMARK    4  A    between atoms: C_12  and  C_13
REMARK    5  A    between atoms: C_17  and  C_18
REMARK                            x       y       z     vdW  Elec       q    Type
REMARK                         _______ _______ _______ _____ _____    ______ ____
ROOT
ATOM      1  C   UNL     1       2.833   4.645  19.246  0.00  0.00    +0.000 C 
ATOM      2  C   UNL     1       1.891   4.039  18.147  0.00  0.00    +0.000 C 
ATOM      3  C   UNL     1       2.469   2.834  17.415  0.00  0.00    +0.000 C 
ATOM      4  C   UNL     1       2.828   1.724  18.389  0.00  0.00    +0.000 C 
ATOM      5  C   UNL     1       3.764   2.226  19.477  0.00  0.00    +0.000 C 
ATOM      6  C   UNL     1       3.218   3.470  20.196  0.00  0.00    +0.000 C 
ENDROOT
BRANCH   1   7
ATOM      7  C   UNL     1       4.025   5.384  18.594  0.00  0.00    +0.000 A 
ATOM      8  C   UNL     1       3.826   6.145  17.427  0.00  0.00    +0.000 A 
ATOM      9  C   UNL     1       4.886   6.785  16.777  0.00  0.00    +0.000 A 
ATOM     10  C   UNL     1       6.178   6.687  17.282  0.00  0.00    +0.000 A 
ATOM     11  C   UNL     1       6.414   5.967  18.457  0.00  0.00    +0.000 A 
ATOM     12  C   UNL     1       5.333   5.339  19.108  0.00  0.00    +0.000 A 
BRANCH  11  13
ATOM     13  C   UNL     1       7.804   5.840  19.033  0.00  0.00    +0.000 C 
ATOM     14  F   UNL     1       7.827   5.624  20.377  0.00  0.00    +0.000 F 
ATOM     15  F   UNL     1       8.503   4.813  18.475  0.00  0.00    +0.000 F 
ATOM     16  F   UNL     1       8.556   6.957  18.820  0.00  0.00    +0.000 F 
ENDBRANCH  11  13
ENDBRANCH   1   7
BRANCH   1  18
ATOM     17  N   UNL     1       2.277   7.030  19.827  0.00  0.00    +0.000 N 
ATOM     18  C   UNL     1       1.950   5.689  20.006  0.00  0.00    +0.000 C 
ATOM     19  O   UNL     1       0.975   5.313  20.659  0.00  0.00    +0.000 OA
ATOM     20  H   UNL     1       2.936   7.254  19.092  0.00  0.00    +0.000 HD
BRANCH  17  25
ATOM     21  C   UNL     1       0.242  10.120  20.194  0.00  0.00    +0.000 A 
ATOM     22  C   UNL     1       0.165  10.251  21.585  0.00  0.00    +0.000 A 
ATOM     23  C   UNL     1       0.852   9.359  22.399  0.00  0.00    +0.000 A 
ATOM     24  C   UNL     1       1.586   8.316  21.830  0.00  0.00    +0.000 A 
ATOM     25  C   UNL     1       1.624   8.128  20.444  0.00  0.00    +0.000 A 
ATOM     26  C   UNL     1       0.975   9.060  19.627  0.00  0.00    +0.000 A 
BRANCH  21  28
ATOM     27  N   UNL     1      -0.259  10.939  17.948  0.00  0.00    +0.000 N 
ATOM     28  C   UNL     1      -0.484  11.052  19.291  0.00  0.00    +0.000 C 
ATOM     29  O   UNL     1      -1.278  11.875  19.728  0.00  0.00    +0.000 OA
ATOM     30  H   UNL     1      -0.805  11.535  17.341  0.00  0.00    +0.000 HD
ATOM     31  H   UNL     1       0.210  10.148  17.531  0.00  0.00    +0.000 HD
ENDBRANCH  21  28
ENDBRANCH  17  25
ENDBRANCH   1  18
TORSDOF 5
ENDMDL
MODEL 5
REMARK VINA RESULT:      -9.2      2.517      4.086
REMARK  Name = 
REMARK  5 active torsions:
REMARK  status: ('A' for Active; 'I' for Inactive)
REMARK    1  A    between atoms: C_2  and  C_4
REMARK    2  A    between atoms: C_8  and  N_9
REMARK    3  A    between atoms: C_10  and  C_12
REMARK    4  A    between atoms: C_12  and  C_13
REMARK    5  A    between atoms: C_17  and  C_18
REMARK                            x       y       z     vdW  Elec       q    Type
REMARK                         _______ _______ _______ _____ _____    ______ ____
ROOT
ATOM      1  C   UNL     1       2.712   5.089  18.913  0.00  0.00    +0.000 C 
ATOM      2  C   UNL     1       1.640   4.241  18.141  0.00  0.00    +0.000 C 
ATOM      3  C   UNL     1       1.773   2.735  18.327  0.00  0.00    +0.000 C 
ATOM      4  C   UNL     1       1.700   2.358  19.798  0.00  0.00    +0.000 C 
ATOM      5  C   UNL     1       2.730   3.121  20.615  0.00  0.00    +0.000 C 
ATOM      6  C   UNL     1       2.640   4.641  20.405  0.00  0.00    +0.000 C 
ENDROOT
BRANCH   1   7
ATOM      7  C   UNL     1       4.100   4.947  18.248  0.00  0.00    +0.000 A 
ATOM      8  C   UNL     1       4.209   4.389  16.960  0.00  0.00    +0.000 A 
ATOM      9  C   UNL     1       5.449   4.195  16.344  0.00  0.00    +0.000 A 
ATOM     10  C   UNL     1       6.620   4.560  16.999  0.00  0.00    +0.000 A 
ATOM     11  C   UNL     1       6.555   5.147  18.266  0.00  0.00    +0.000 A 
ATOM     12  C   UNL     1       5.296   5.349  18.868  0.00  0.00    +0.000 A 
BRANCH  11  13
ATOM     13  C   UNL     1       7.807   5.556  19.006  0.00  0.00    +0.000 C 
ATOM     14  F   UNL     1       7.644   5.654  20.355  0.00  0.00    +0.000 F 
ATOM     15  F   UNL     1       8.831   4.680  18.813  0.00  0.00    +0.000 F 
ATOM     16  F   UNL     1       8.276   6.769  18.598  0.00  0.00    +0.000 F 
ENDBRANCH  11  13
ENDBRANCH   1   7
BRANCH   1  18
ATOM     17  N   UNL     1       1.836   7.214  19.939  0.00  0.00    +0.000 N 
ATOM     18  C   UNL     1       2.235   6.572  18.770  0.00  0.00    +0.000 C 
ATOM     19  O   UNL     1       2.296   7.137  17.677  0.00  0.00    +0.000 OA
ATOM     20  H   UNL     1       2.043   6.753  20.817  0.00  0.00    +0.000 HD
BRANCH  17  25
ATOM     21  C   UNL     1       0.251  10.261  21.362  0.00  0.00    +0.000 A 
ATOM     22  C   UNL     1       0.479  11.203  20.353  0.00  0.00    +0.000 A 
ATOM     23  C   UNL     1       1.090  10.809  19.169  0.00  0.00    +0.000 A 
ATOM     24  C   UNL     1       1.506   9.486  19.004  0.00  0.00    +0.000 A 
ATOM     25  C   UNL     1       1.346   8.542  20.025  0.00  0.00    +0.000 A 
ATOM     26  C   UNL     1       0.682   8.931  21.193  0.00  0.00    +0.000 A 
BRANCH  21  28
ATOM     27  N   UNL     1      -0.817   9.643  23.470  0.00  0.00    +0.000 N 
ATOM     28  C   UNL     1      -0.395  10.647  22.644  0.00  0.00    +0.000 C 
ATOM     29  O   UNL     1      -0.523  11.822  22.966  0.00  0.00    +0.000 OA
ATOM     30  H   UNL     1      -1.197   9.918  24.366  0.00  0.00    +0.000 HD
ATOM     31  H   UNL     1      -0.543   8.679  23.352  0.00  0.00    +0.000 HD
ENDBRANCH  21  28
ENDBRANCH  17  25
ENDBRANCH   1  18
TORSDOF 5
ENDMDL
MODEL 6
REMARK VINA RESULT:      -9.1      3.281      4.726
REMARK  Name = 
REMARK  5 active torsions:
REMARK  status: ('A' for Active; 'I' for Inactive)
REMARK    1  A    between atoms: C_2  and  C_4
REMARK    2  A    between atoms: C_8  and  N_9
REMARK    3  A    between atoms: C_10  and  C_12
REMARK    4  A    between atoms: C_12  and  C_13
REMARK    5  A    between atoms: C_17  and  C_18
REMARK                            x       y       z     vdW  Elec       q    Type
REMARK                         _______ _______ _______ _____ _____    ______ ____
ROOT
ATOM      1  C   UNL     1       3.589   4.034  18.426  0.00  0.00    +0.000 C 
ATOM      2  C   UNL     1       2.823   2.847  17.743  0.00  0.00    +0.000 C 
ATOM      3  C   UNL     1       3.487   1.486  17.913  0.00  0.00    +0.000 C 
ATOM      4  C   UNL     1       3.664   1.146  19.384  0.00  0.00    +0.000 C 
ATOM      5  C   UNL     1       4.424   2.241  20.116  0.00  0.00    +0.000 C 
ATOM      6  C   UNL     1       3.794   3.628  19.917  0.00  0.00    +0.000 C 
ENDROOT
BRANCH   1   7
ATOM      7  C   UNL     1       4.883   4.366  17.648  0.00  0.00    +0.000 A 
ATOM      8  C   UNL     1       6.002   4.880  18.332  0.00  0.00    +0.000 A 
ATOM      9  C   UNL     1       7.173   5.241  17.660  0.00  0.00    +0.000 A 
ATOM     10  C   UNL     1       7.262   5.092  16.280  0.00  0.00    +0.000 A 
ATOM     11  C   UNL     1       6.186   4.555  15.566  0.00  0.00    +0.000 A 
ATOM     12  C   UNL     1       5.017   4.183  16.260  0.00  0.00    +0.000 A 
BRANCH  11  13
ATOM     13  C   UNL     1       6.249   4.380  14.068  0.00  0.00    +0.000 C 
ATOM     14  F   UNL     1       7.133   5.211  13.450  0.00  0.00    +0.000 F 
ATOM     15  F   UNL     1       6.607   3.116  13.710  0.00  0.00    +0.000 F 
ATOM     16  F   UNL     1       5.044   4.605  13.470  0.00  0.00    +0.000 F 
ENDBRANCH  11  13
ENDBRANCH   1   7
BRANCH   1  18
ATOM     17  N   UNL     1       3.016   6.425  18.966  0.00  0.00    +0.000 N 
ATOM     18  C   UNL     1       2.616   5.255  18.326  0.00  0.00    +0.000 C 
ATOM     19  O   UNL     1       1.594   5.175  17.643  0.00  0.00    +0.000 OA
ATOM     20  H   UNL     1       3.972   6.470  19.298  0.00  0.00    +0.000 HD
BRANCH  17  25
ATOM     21  C   UNL     1       1.098   9.278  20.381  0.00  0.00    +0.000 A 
ATOM     22  C   UNL     1       0.922  10.093  19.257  0.00  0.00    +0.000 A 
ATOM     23  C   UNL     1       1.372   9.660  18.016  0.00  0.00    +0.000 A 
ATOM     24  C   UNL     1       2.029   8.433  17.899  0.00  0.00    +0.000 A 
ATOM     25  C   UNL     1       2.272   7.631  19.021  0.00  0.00    +0.000 A 
ATOM     26  C   UNL     1       1.771   8.047  20.258  0.00  0.00    +0.000 A 
BRANCH  21  28
ATOM     27  N   UNL     1      -0.562  10.365  21.805  0.00  0.00    +0.000 N 
ATOM     28  C   UNL     1       0.635   9.710  21.726  0.00  0.00    +0.000 C 
ATOM     29  O   UNL     1       1.286   9.466  22.734  0.00  0.00    +0.000 OA
ATOM     30  H   UNL     1      -0.895  10.597  22.731  0.00  0.00    +0.000 HD
ATOM     31  H   UNL     1      -1.226  10.396  21.046  0.00  0.00    +0.000 HD
ENDBRANCH  21  28
ENDBRANCH  17  25
ENDBRANCH   1  18
TORSDOF 5
ENDMDL
MODEL 7
REMARK VINA RESULT:      -9.1      3.032      4.562
REMARK  Name = 
REMARK  5 active torsions:
REMARK  status: ('A' for Active; 'I' for Inactive)
REMARK    1  A    between atoms: C_2  and  C_4
REMARK    2  A    between atoms: C_8  and  N_9
REMARK    3  A    between atoms: C_10  and  C_12
REMARK    4  A    between atoms: C_12  and  C_13
REMARK    5  A    between atoms: C_17  and  C_18
REMARK                            x       y       z     vdW  Elec       q    Type
REMARK                         _______ _______ _______ _____ _____    ______ ____
ROOT
ATOM      1  C   UNL     1       2.821   5.500  18.911  0.00  0.00    +0.000 C 
ATOM      2  C   UNL     1       1.802   4.752  17.979  0.00  0.00    +0.000 C 
ATOM      3  C   UNL     1       1.819   3.235  18.115  0.00  0.00    +0.000 C 
ATOM      4  C   UNL     1       1.541   2.813  19.549  0.00  0.00    +0.000 C 
ATOM      5  C   UNL     1       2.507   3.477  20.517  0.00  0.00    +0.000 C 
ATOM      6  C   UNL     1       2.537   5.006  20.362  0.00  0.00    +0.000 C 
ENDROOT
BRANCH   1   7
ATOM      7  C   UNL     1       4.269   5.289  18.413  0.00  0.00    +0.000 A 
ATOM      8  C   UNL     1       5.348   5.448  19.304  0.00  0.00    +0.000 A 
ATOM      9  C   UNL     1       6.675   5.318  18.883  0.00  0.00    +0.000 A 
ATOM     10  C   UNL     1       6.961   5.018  17.555  0.00  0.00    +0.000 A 
ATOM     11  C   UNL     1       5.919   4.821  16.645  0.00  0.00    +0.000 A 
ATOM     12  C   UNL     1       4.586   4.942  17.088  0.00  0.00    +0.000 A 
BRANCH  11  13
ATOM     13  C   UNL     1       6.193   4.494  15.196  0.00  0.00    +0.000 C 
ATOM     14  F   UNL     1       7.414   4.910  14.758  0.00  0.00    +0.000 F 
ATOM     15  F   UNL     1       6.141   3.156  14.949  0.00  0.00    +0.000 F 
ATOM     16  F   UNL     1       5.281   5.061  14.356  0.00  0.00    +0.000 F 
ENDBRANCH  11  13
ENDBRANCH   1   7
BRANCH   1  18
ATOM     17  N   UNL     1       1.688   7.566  19.795  0.00  0.00    +0.000 N 
ATOM     18  C   UNL     1       2.458   7.015  18.774  0.00  0.00    +0.000 C 
ATOM     19  O   UNL     1       2.911   7.676  17.839  0.00  0.00    +0.000 OA
ATOM     20  H   UNL     1       1.563   7.012  20.634  0.00  0.00    +0.000 HD
BRANCH  17  25
ATOM     21  C   UNL     1       0.189  10.686  21.152  0.00  0.00    +0.000 A 
ATOM     22  C   UNL     1       0.425  11.594  20.115  0.00  0.00    +0.000 A 
ATOM     23  C   UNL     1       1.012  11.154  18.935  0.00  0.00    +0.000 A 
ATOM     24  C   UNL     1       1.396   9.818  18.802  0.00  0.00    +0.000 A 
ATOM     25  C   UNL     1       1.228   8.907  19.851  0.00  0.00    +0.000 A 
ATOM     26  C   UNL     1       0.588   9.342  21.016  0.00  0.00    +0.000 A 
BRANCH  21  28
ATOM     27  N   UNL     1      -0.833  12.424  22.532  0.00  0.00    +0.000 N 
ATOM     28  C   UNL     1      -0.433  11.121  22.431  0.00  0.00    +0.000 C 
ATOM     29  O   UNL     1      -0.608  10.336  23.355  0.00  0.00    +0.000 OA
ATOM     30  H   UNL     1      -1.311  12.691  23.382  0.00  0.00    +0.000 HD
ATOM     31  H   UNL     1      -0.908  13.042  21.737  0.00  0.00    +0.000 HD
ENDBRANCH  21  28
ENDBRANCH  17  25
ENDBRANCH   1  18
TORSDOF 5
ENDMDL
MODEL 8
REMARK VINA RESULT:      -9.1      2.825      4.573
REMARK  Name = 
REMARK  5 active torsions:
REMARK  status: ('A' for Active; 'I' for Inactive)
REMARK    1  A    between atoms: C_2  and  C_4
REMARK    2  A    between atoms: C_8  and  N_9
REMARK    3  A    between atoms: C_10  and  C_12
REMARK    4  A    between atoms: C_12  and  C_13
REMARK    5  A    between atoms: C_17  and  C_18
REMARK                            x       y       z     vdW  Elec       q    Type
REMARK                         _______ _______ _______ _____ _____    ______ ____
ROOT
ATOM      1  C   UNL     1       2.662   5.046  19.186  0.00  0.00    +0.000 C 
ATOM      2  C   UNL     1       1.522   4.315  18.391  0.00  0.00    +0.000 C 
ATOM      3  C   UNL     1       1.634   2.796  18.381  0.00  0.00    +0.000 C 
ATOM      4  C   UNL     1       1.650   2.240  19.796  0.00  0.00    +0.000 C 
ATOM      5  C   UNL     1       2.750   2.881  20.628  0.00  0.00    +0.000 C 
ATOM      6  C   UNL     1       2.680   4.417  20.612  0.00  0.00    +0.000 C 
ENDROOT
BRANCH   1   7
ATOM      7  C   UNL     1       4.000   4.967  18.414  0.00  0.00    +0.000 A 
ATOM      8  C   UNL     1       4.019   4.499  17.086  0.00  0.00    +0.000 A 
ATOM      9  C   UNL     1       5.212   4.364  16.371  0.00  0.00    +0.000 A 
ATOM     10  C   UNL     1       6.425   4.699  16.964  0.00  0.00    +0.000 A 
ATOM     11  C   UNL     1       6.448   5.197  18.269  0.00  0.00    +0.000 A 
ATOM     12  C   UNL     1       5.235   5.341  18.973  0.00  0.00    +0.000 A 
BRANCH  11  13
ATOM     13  C   UNL     1       7.747   5.571  18.944  0.00  0.00    +0.000 C 
ATOM     14  F   UNL     1       8.252   6.770  18.544  0.00  0.00    +0.000 F 
ATOM     15  F   UNL     1       7.623   5.647  20.298  0.00  0.00    +0.000 F 
ATOM     16  F   UNL     1       8.731   4.656  18.714  0.00  0.00    +0.000 F 
ENDBRANCH  11  13
ENDBRANCH   1   7
BRANCH   1  18
ATOM     17  N   UNL     1       1.795   7.006  20.503  0.00  0.00    +0.000 N 
ATOM     18  C   UNL     1       2.211   6.541  19.259  0.00  0.00    +0.000 C 
ATOM     19  O   UNL     1       2.306   7.263  18.265  0.00  0.00    +0.000 OA
ATOM     20  H   UNL     1       1.974   6.414  21.305  0.00  0.00    +0.000 HD
BRANCH  17  25
ATOM     21  C   UNL     1       0.850  10.560  19.957  0.00  0.00    +0.000 A 
ATOM     22  C   UNL     1       0.260  10.894  21.181  0.00  0.00    +0.000 A 
ATOM     23  C   UNL     1       0.245   9.964  22.213  0.00  0.00    +0.000 A 
ATOM     24  C   UNL     1       0.784   8.690  22.015  0.00  0.00    +0.000 A 
ATOM     25  C   UNL     1       1.322   8.315  20.779  0.00  0.00    +0.000 A 
ATOM     26  C   UNL     1       1.383   9.272  19.761  0.00  0.00    +0.000 A 
BRANCH  21  28
ATOM     27  N   UNL     1       1.903  11.420  17.927  0.00  0.00    +0.000 N 
ATOM     28  C   UNL     1       0.881  11.527  18.828  0.00  0.00    +0.000 C 
ATOM     29  O   UNL     1       0.007  12.375  18.689  0.00  0.00    +0.000 OA
ATOM     30  H   UNL     1       1.877  12.042  17.131  0.00  0.00    +0.000 HD
ATOM     31  H   UNL     1       2.513  10.617  17.877  0.00  0.00    +0.000 HD
ENDBRANCH  21  28
ENDBRANCH  17  25
ENDBRANCH   1  18
TORSDOF 5
ENDMDL
MODEL 9
REMARK VINA RESULT:      -9.1      2.593      4.189
REMARK  Name = 
REMARK  5 active torsions:
REMARK  status: ('A' for Active; 'I' for Inactive)
REMARK    1  A    between atoms: C_2  and  C_4
REMARK    2  A    between atoms: C_8  and  N_9
REMARK    3  A    between atoms: C_10  and  C_12
REMARK    4  A    between atoms: C_12  and  C_13
REMARK    5  A    between atoms: C_17  and  C_18
REMARK                            x       y       z     vdW  Elec       q    Type
REMARK                         _______ _______ _______ _____ _____    ______ ____
ROOT
ATOM      1  C   UNL     1       2.831   4.996  19.118  0.00  0.00    +0.000 C 
ATOM      2  C   UNL     1       1.829   4.447  18.041  0.00  0.00    +0.000 C 
ATOM      3  C   UNL     1       2.254   3.134  17.396  0.00  0.00    +0.000 C 
ATOM      4  C   UNL     1       2.456   2.051  18.444  0.00  0.00    +0.000 C 
ATOM      5  C   UNL     1       3.438   2.497  19.516  0.00  0.00    +0.000 C 
ATOM      6  C   UNL     1       3.050   3.844  20.146  0.00  0.00    +0.000 C 
ENDROOT
BRANCH   1   7
ATOM      7  C   UNL     1       4.115   5.532  18.445  0.00  0.00    +0.000 A 
ATOM      8  C   UNL     1       4.050   6.099  17.158  0.00  0.00    +0.000 A 
ATOM      9  C   UNL     1       5.194   6.548  16.492  0.00  0.00    +0.000 A 
ATOM     10  C   UNL     1       6.442   6.447  17.100  0.00  0.00    +0.000 A 
ATOM     11  C   UNL     1       6.547   5.919  18.390  0.00  0.00    +0.000 A 
ATOM     12  C   UNL     1       5.382   5.483  19.053  0.00  0.00    +0.000 A 
BRANCH  11  13
ATOM     13  C   UNL     1       7.885   5.794  19.079  0.00  0.00    +0.000 C 
ATOM     14  F   UNL     1       8.642   4.754  18.633  0.00  0.00    +0.000 F 
ATOM     15  F   UNL     1       8.651   6.910  18.926  0.00  0.00    +0.000 F 
ATOM     16  F   UNL     1       7.759   5.615  20.424  0.00  0.00    +0.000 F 
ENDBRANCH  11  13
ENDBRANCH   1   7
BRANCH   1  18
ATOM     17  N   UNL     1       2.092   7.402  19.109  0.00  0.00    +0.000 N 
ATOM     18  C   UNL     1       2.082   6.191  19.795  0.00  0.00    +0.000 C 
ATOM     19  O   UNL     1       1.461   6.015  20.844  0.00  0.00    +0.000 OA
ATOM     20  H   UNL     1       2.422   7.391  18.151  0.00  0.00    +0.000 HD
BRANCH  17  25
ATOM     21  C   UNL     1       0.535   9.881  21.400  0.00  0.00    +0.000 A 
ATOM     22  C   UNL     1       0.460  11.018  20.588  0.00  0.00    +0.000 A 
ATOM     23  C   UNL     1       0.855  10.940  19.258  0.00  0.00    +0.000 A 
ATOM     24  C   UNL     1       1.358   9.742  18.747  0.00  0.00    +0.000 A 
ATOM     25  C   UNL     1       1.501   8.611  19.558  0.00  0.00    +0.000 A 
ATOM     26  C   UNL     1       1.052   8.679  20.881  0.00  0.00    +0.000 A 
BRANCH  21  28
ATOM     27  N   UNL     1      -1.110  10.432  23.120  0.00  0.00    +0.000 N 
ATOM     28  C   UNL     1       0.126   9.927  22.829  0.00  0.00    +0.000 C 
ATOM     29  O   UNL     1       0.856   9.503  23.716  0.00  0.00    +0.000 OA
ATOM     30  H   UNL     1      -1.401  10.399  24.088  0.00  0.00    +0.000 HD
ATOM     31  H   UNL     1      -1.822  10.589  22.421  0.00  0.00    +0.000 HD
ENDBRANCH  21  28
ENDBRANCH  17  25
ENDBRANCH   1  18
TORSDOF 5
ENDMDL
