MODEL 1
REMARK VINA RESULT:      -8.6      0.000      0.000
REMARK  Name = 
REMARK  3 active torsions:
REMARK  status: ('A' for Active; 'I' for Inactive)
REMARK    1  A    between atoms: C_8  and  C_9
REMARK    2  A    between atoms: C_20  and  C_21
REMARK    3  A    between atoms: C_21  and  O_23
REMARK                            x       y       z     vdW  Elec       q    Type
REMARK                         _______ _______ _______ _____ _____    ______ ____
ROOT
ATOM      1  C   UNL     1       2.512   5.692  19.274  0.00  0.00    +0.000 C 
ATOM      2  O   UNL     1       1.872   4.725  19.678  0.00  0.00    +0.000 OA
ATOM      3  N   UNL     1       3.700   5.505  18.538  0.00  0.00    +0.000 N 
ATOM      4  C   UNL     1       4.689   6.570  18.320  0.00  0.00    +0.000 C 
ATOM      5  C   UNL     1       4.745   6.959  16.845  0.00  0.00    +0.000 C 
ATOM      6  C   UNL     1       5.242   5.763  16.092  0.00  0.00    +0.000 A 
ATOM      7  C   UNL     1       6.083   5.967  14.987  0.00  0.00    +0.000 A 
ATOM      8  C   UNL     1       6.615   4.874  14.316  0.00  0.00    +0.000 A 
ATOM      9  C   UNL     1       6.290   3.593  14.737  0.00  0.00    +0.000 A 
ATOM     10  C   UNL     1       5.410   3.390  15.806  0.00  0.00    +0.000 A 
ATOM     11  C   UNL     1       4.855   4.471  16.512  0.00  0.00    +0.000 A 
ATOM     12  C   UNL     1       3.798   4.293  17.639  0.00  0.00    +0.000 C 
ENDROOT
BRANCH   1  20
ATOM     13  O   UNL     1      -1.199  12.209  20.218  0.00  0.00    +0.000 OA
ATOM     14  C   UNL     1      -0.486  11.397  20.815  0.00  0.00    +0.000 C 
ATOM     15  C   UNL     1      -0.807  10.990  22.228  0.00  0.00    +0.000 C 
ATOM     16  C   UNL     1      -0.562   9.547  22.623  0.00  0.00    +0.000 C 
ATOM     17  C   UNL     1       0.918   9.177  22.578  0.00  0.00    +0.000 C 
ATOM     18  C   UNL     1       1.299   8.797  21.174  0.00  0.00    +0.000 A 
ATOM     19  C   UNL     1       1.796   7.494  20.912  0.00  0.00    +0.000 A 
ATOM     20  C   UNL     1       2.020   7.067  19.596  0.00  0.00    +0.000 A 
ATOM     21  C   UNL     1       1.678   7.930  18.560  0.00  0.00    +0.000 A 
ATOM     22  C   UNL     1       1.351   9.253  18.804  0.00  0.00    +0.000 A 
ATOM     23  C   UNL     1       1.130   9.690  20.107  0.00  0.00    +0.000 A 
ATOM     24  N   UNL     1       0.667  11.014  20.200  0.00  0.00    +0.000 N 
ATOM     25  H   UNL     1       0.718  11.527  19.325  0.00  0.00    +0.000 HD
ENDBRANCH   1  20
BRANCH  12  26
ATOM     26  C   UNL     1       3.938   2.931  18.391  0.00  0.00    +0.000 C 
ATOM     27  O   UNL     1       3.223   1.955  18.210  0.00  0.00    +0.000 OA
BRANCH  26  28
ATOM     28  O   UNL     1       4.976   2.874  19.265  0.00  0.00    +0.000 OA
ATOM     29  H   UNL     1       5.753   3.319  18.877  0.00  0.00    +0.000 HD
ENDBRANCH  26  28
ENDBRANCH  12  26
TORSDOF 3
ENDMDL
MODEL 2
REMARK VINA RESULT:      -8.5      2.325      8.361
REMARK  Name = 
REMARK  3 active torsions:
REMARK  status: ('A' for Active; 'I' for Inactive)
REMARK    1  A    between atoms: C_8  and  C_9
REMARK    2  A    between atoms: C_20  and  C_21
REMARK    3  A    between atoms: C_21  and  O_23
REMARK                            x       y       z     vdW  Elec       q    Type
REMARK                         _______ _______ _______ _____ _____    ______ ____
ROOT
ATOM      1  C   UNL     1       1.828   8.763  18.573  0.00  0.00    +0.000 C 
ATOM      2  O   UNL     1       1.828   9.269  17.455  0.00  0.00    +0.000 OA
ATOM      3  N   UNL     1       1.460   9.524  19.701  0.00  0.00    +0.000 N 
ATOM      4  C   UNL     1       1.758   9.114  21.081  0.00  0.00    +0.000 C 
ATOM      5  C   UNL     1       0.470   8.791  21.836  0.00  0.00    +0.000 C 
ATOM      6  C   UNL     1      -0.314  10.064  21.935  0.00  0.00    +0.000 A 
ATOM      7  C   UNL     1      -1.056  10.307  23.101  0.00  0.00    +0.000 A 
ATOM      8  C   UNL     1      -1.733  11.510  23.248  0.00  0.00    +0.000 A 
ATOM      9  C   UNL     1      -1.683  12.448  22.227  0.00  0.00    +0.000 A 
ATOM     10  C   UNL     1      -0.986  12.183  21.043  0.00  0.00    +0.000 A 
ATOM     11  C   UNL     1      -0.286  10.980  20.860  0.00  0.00    +0.000 A 
ATOM     12  C   UNL     1       0.417  10.604  19.523  0.00  0.00    +0.000 C 
ENDROOT
BRANCH   1  20
ATOM     13  O   UNL     1       5.058   2.095  20.075  0.00  0.00    +0.000 OA
ATOM     14  C   UNL     1       3.962   2.664  20.045  0.00  0.00    +0.000 C 
ATOM     15  C   UNL     1       2.953   2.441  21.139  0.00  0.00    +0.000 C 
ATOM     16  C   UNL     1       2.110   3.622  21.577  0.00  0.00    +0.000 C 
ATOM     17  C   UNL     1       1.184   4.116  20.469  0.00  0.00    +0.000 C 
ATOM     18  C   UNL     1       1.933   5.059  19.569  0.00  0.00    +0.000 A 
ATOM     19  C   UNL     1       1.486   6.399  19.431  0.00  0.00    +0.000 A 
ATOM     20  C   UNL     1       2.246   7.334  18.717  0.00  0.00    +0.000 A 
ATOM     21  C   UNL     1       3.477   6.929  18.211  0.00  0.00    +0.000 A 
ATOM     22  C   UNL     1       3.845   5.595  18.197  0.00  0.00    +0.000 A 
ATOM     23  C   UNL     1       3.096   4.655  18.899  0.00  0.00    +0.000 A 
ATOM     24  N   UNL     1       3.659   3.367  18.918  0.00  0.00    +0.000 N 
ATOM     25  H   UNL     1       4.442   3.254  18.282  0.00  0.00    +0.000 HD
ENDBRANCH   1  20
BRANCH  12  26
ATOM     26  C   UNL     1       0.901  11.853  18.721  0.00  0.00    +0.000 C 
ATOM     27  O   UNL     1       2.014  12.354  18.810  0.00  0.00    +0.000 OA
BRANCH  26  28
ATOM     28  O   UNL     1      -0.010  12.348  17.844  0.00  0.00    +0.000 OA
ATOM     29  H   UNL     1      -0.085  13.314  17.964  0.00  0.00    +0.000 HD
ENDBRANCH  26  28
ENDBRANCH  12  26
TORSDOF 3
ENDMDL
MODEL 3
REMARK VINA RESULT:      -8.4      0.983      1.958
REMARK  Name = 
REMARK  3 active torsions:
REMARK  status: ('A' for Active; 'I' for Inactive)
REMARK    1  A    between atoms: C_8  and  C_9
REMARK    2  A    between atoms: C_20  and  C_21
REMARK    3  A    between atoms: C_21  and  O_23
REMARK                            x       y       z     vdW  Elec       q    Type
REMARK                         _______ _______ _______ _____ _____    ______ ____
ROOT
ATOM      1  C   UNL     1       2.527   5.618  19.272  0.00  0.00    +0.000 C 
ATOM      2  O   UNL     1       1.920   4.639  19.695  0.00  0.00    +0.000 OA
ATOM      3  N   UNL     1       3.715   5.456  18.531  0.00  0.00    +0.000 N 
ATOM      4  C   UNL     1       4.669   6.548  18.290  0.00  0.00    +0.000 C 
ATOM      5  C   UNL     1       4.703   6.915  16.808  0.00  0.00    +0.000 C 
ATOM      6  C   UNL     1       5.233   5.723  16.070  0.00  0.00    +0.000 A 
ATOM      7  C   UNL     1       6.059   5.936  14.956  0.00  0.00    +0.000 A 
ATOM      8  C   UNL     1       6.621   4.849  14.299  0.00  0.00    +0.000 A 
ATOM      9  C   UNL     1       6.339   3.566  14.743  0.00  0.00    +0.000 A 
ATOM     10  C   UNL     1       5.473   3.353  15.821  0.00  0.00    +0.000 A 
ATOM     11  C   UNL     1       4.889   4.427  16.513  0.00  0.00    +0.000 A 
ATOM     12  C   UNL     1       3.845   4.234  17.650  0.00  0.00    +0.000 C 
ENDROOT
BRANCH   1  20
ATOM     13  O   UNL     1       1.077  12.671  21.574  0.00  0.00    +0.000 OA
ATOM     14  C   UNL     1       1.033  11.940  20.579  0.00  0.00    +0.000 C 
ATOM     15  C   UNL     1       1.473  12.452  19.234  0.00  0.00    +0.000 C 
ATOM     16  C   UNL     1       2.203  11.492  18.315  0.00  0.00    +0.000 C 
ATOM     17  C   UNL     1       1.320  10.329  17.872  0.00  0.00    +0.000 C 
ATOM     18  C   UNL     1       1.344   9.252  18.921  0.00  0.00    +0.000 A 
ATOM     19  C   UNL     1       1.824   7.959  18.586  0.00  0.00    +0.000 A 
ATOM     20  C   UNL     1       1.994   6.982  19.576  0.00  0.00    +0.000 A 
ATOM     21  C   UNL     1       1.745   7.338  20.897  0.00  0.00    +0.000 A 
ATOM     22  C   UNL     1       1.124   8.534  21.216  0.00  0.00    +0.000 A 
ATOM     23  C   UNL     1       0.946   9.511  20.240  0.00  0.00    +0.000 A 
ATOM     24  N   UNL     1       0.434  10.727  20.727  0.00  0.00    +0.000 N 
ATOM     25  H   UNL     1       0.106  10.676  21.687  0.00  0.00    +0.000 HD
ENDBRANCH   1  20
BRANCH  12  26
ATOM     26  C   UNL     1       4.033   2.890  18.424  0.00  0.00    +0.000 C 
ATOM     27  O   UNL     1       3.365   1.880  18.244  0.00  0.00    +0.000 OA
BRANCH  26  28
ATOM     28  O   UNL     1       5.057   2.890  19.315  0.00  0.00    +0.000 OA
ATOM     29  H   UNL     1       5.289   1.970  19.543  0.00  0.00    +0.000 HD
ENDBRANCH  26  28
ENDBRANCH  12  26
TORSDOF 3
ENDMDL
MODEL 4
REMARK VINA RESULT:      -7.8      1.779      8.980
REMARK  Name = 
REMARK  3 active torsions:
REMARK  status: ('A' for Active; 'I' for Inactive)
REMARK    1  A    between atoms: C_8  and  C_9
REMARK    2  A    between atoms: C_20  and  C_21
REMARK    3  A    between atoms: C_21  and  O_23
REMARK                            x       y       z     vdW  Elec       q    Type
REMARK                         _______ _______ _______ _____ _____    ______ ____
ROOT
ATOM      1  C   UNL     1       0.825   9.730  18.619  0.00  0.00    +0.000 C 
ATOM      2  O   UNL     1       0.538   9.961  17.448  0.00  0.00    +0.000 OA
ATOM      3  N   UNL     1       0.426  10.616  19.640  0.00  0.00    +0.000 N 
ATOM      4  C   UNL     1       1.007  10.604  20.990  0.00  0.00    +0.000 C 
ATOM      5  C   UNL     1      -0.033  10.168  22.019  0.00  0.00    +0.000 C 
ATOM      6  C   UNL     1      -1.106  11.214  22.033  0.00  0.00    +0.000 A 
ATOM      7  C   UNL     1      -1.719  11.531  23.254  0.00  0.00    +0.000 A 
ATOM      8  C   UNL     1      -2.665  12.546  23.306  0.00  0.00    +0.000 A 
ATOM      9  C   UNL     1      -3.005  13.219  22.142  0.00  0.00    +0.000 A 
ATOM     10  C   UNL     1      -2.432  12.867  20.915  0.00  0.00    +0.000 A 
ATOM     11  C   UNL     1      -1.469  11.848  20.824  0.00  0.00    +0.000 A 
ATOM     12  C   UNL     1      -0.881  11.358  19.470  0.00  0.00    +0.000 C 
ENDROOT
BRANCH   1  20
ATOM     13  O   UNL     1       3.583   2.837  20.039  0.00  0.00    +0.000 OA
ATOM     14  C   UNL     1       3.829   3.878  19.423  0.00  0.00    +0.000 C 
ATOM     15  C   UNL     1       4.376   3.827  18.021  0.00  0.00    +0.000 C 
ATOM     16  C   UNL     1       3.900   4.876  17.036  0.00  0.00    +0.000 C 
ATOM     17  C   UNL     1       4.335   6.283  17.431  0.00  0.00    +0.000 C 
ATOM     18  C   UNL     1       3.356   6.853  18.421  0.00  0.00    +0.000 A 
ATOM     19  C   UNL     1       2.643   8.037  18.099  0.00  0.00    +0.000 A 
ATOM     20  C   UNL     1       1.623   8.506  18.937  0.00  0.00    +0.000 A 
ATOM     21  C   UNL     1       1.288   7.743  20.051  0.00  0.00    +0.000 A 
ATOM     22  C   UNL     1       2.079   6.684  20.463  0.00  0.00    +0.000 A 
ATOM     23  C   UNL     1       3.098   6.211  19.640  0.00  0.00    +0.000 A 
ATOM     24  N   UNL     1       3.727   5.047  20.114  0.00  0.00    +0.000 N 
ATOM     25  H   UNL     1       3.473   4.804  21.066  0.00  0.00    +0.000 HD
ENDBRANCH   1  20
BRANCH  12  26
ATOM     26  C   UNL     1      -0.860  12.475  18.378  0.00  0.00    +0.000 C 
ATOM     27  O   UNL     1      -0.162  13.479  18.418  0.00  0.00    +0.000 OA
BRANCH  26  28
ATOM     28  O   UNL     1      -1.663  12.235  17.310  0.00  0.00    +0.000 OA
ATOM     29  H   UNL     1      -2.093  11.365  17.415  0.00  0.00    +0.000 HD
ENDBRANCH  26  28
ENDBRANCH  12  26
TORSDOF 3
ENDMDL
MODEL 5
REMARK VINA RESULT:      -7.5      1.633      8.771
REMARK  Name = 
REMARK  3 active torsions:
REMARK  status: ('A' for Active; 'I' for Inactive)
REMARK    1  A    between atoms: C_8  and  C_9
REMARK    2  A    between atoms: C_20  and  C_21
REMARK    3  A    between atoms: C_21  and  O_23
REMARK                            x       y       z     vdW  Elec       q    Type
REMARK                         _______ _______ _______ _____ _____    ______ ____
ROOT
ATOM      1  C   UNL     1       1.475   9.316  18.596  0.00  0.00    +0.000 C 
ATOM      2  O   UNL     1       1.303   9.721  17.450  0.00  0.00    +0.000 OA
ATOM      3  N   UNL     1       1.056  10.091  19.696  0.00  0.00    +0.000 N 
ATOM      4  C   UNL     1       1.520   9.855  21.071  0.00  0.00    +0.000 C 
ATOM      5  C   UNL     1       0.370   9.374  21.952  0.00  0.00    +0.000 C 
ATOM      6  C   UNL     1      -0.624  10.492  22.030  0.00  0.00    +0.000 A 
ATOM      7  C   UNL     1      -1.313  10.695  23.236  0.00  0.00    +0.000 A 
ATOM      8  C   UNL     1      -2.186  11.768  23.357  0.00  0.00    +0.000 A 
ATOM      9  C   UNL     1      -2.380  12.613  22.274  0.00  0.00    +0.000 A 
ATOM     10  C   UNL     1      -1.733  12.379  21.056  0.00  0.00    +0.000 A 
ATOM     11  C   UNL     1      -0.840  11.306  20.897  0.00  0.00    +0.000 A 
ATOM     12  C   UNL     1      -0.178  10.951  19.534  0.00  0.00    +0.000 C 
ENDROOT
BRANCH   1  20
ATOM     13  O   UNL     1       3.601   2.097  19.302  0.00  0.00    +0.000 OA
ATOM     14  C   UNL     1       3.961   3.179  18.827  0.00  0.00    +0.000 C 
ATOM     15  C   UNL     1       4.581   3.244  17.457  0.00  0.00    +0.000 C 
ATOM     16  C   UNL     1       4.244   4.437  16.584  0.00  0.00    +0.000 C 
ATOM     17  C   UNL     1       4.765   5.748  17.165  0.00  0.00    +0.000 C 
ATOM     18  C   UNL     1       3.780   6.279  18.170  0.00  0.00    +0.000 A 
ATOM     19  C   UNL     1       3.180   7.548  17.960  0.00  0.00    +0.000 A 
ATOM     20  C   UNL     1       2.155   8.000  18.800  0.00  0.00    +0.000 A 
ATOM     21  C   UNL     1       1.700   7.145  19.798  0.00  0.00    +0.000 A 
ATOM     22  C   UNL     1       2.381   5.982  20.115  0.00  0.00    +0.000 A 
ATOM     23  C   UNL     1       3.404   5.524  19.290  0.00  0.00    +0.000 A 
ATOM     24  N   UNL     1       3.914   4.263  19.648  0.00  0.00    +0.000 N 
ATOM     25  H   UNL     1       3.588   3.934  20.552  0.00  0.00    +0.000 HD
ENDBRANCH   1  20
BRANCH  12  26
ATOM     26  C   UNL     1       0.012  12.196  18.610  0.00  0.00    +0.000 C 
ATOM     27  O   UNL     1      -0.871  12.707  17.934  0.00  0.00    +0.000 OA
BRANCH  26  28
ATOM     28  O   UNL     1       1.259  12.733  18.636  0.00  0.00    +0.000 OA
ATOM     29  H   UNL     1       1.193  13.705  18.705  0.00  0.00    +0.000 HD
ENDBRANCH  26  28
ENDBRANCH  12  26
TORSDOF 3
ENDMDL
MODEL 6
REMARK VINA RESULT:      -7.5      2.241      7.826
REMARK  Name = 
REMARK  3 active torsions:
REMARK  status: ('A' for Active; 'I' for Inactive)
REMARK    1  A    between atoms: C_8  and  C_9
REMARK    2  A    between atoms: C_20  and  C_21
REMARK    3  A    between atoms: C_21  and  O_23
REMARK                            x       y       z     vdW  Elec       q    Type
REMARK                         _______ _______ _______ _____ _____    ______ ____
ROOT
ATOM      1  C   UNL     1       2.078   6.724  20.060  0.00  0.00    +0.000 C 
ATOM      2  O   UNL     1       1.849   6.286  21.184  0.00  0.00    +0.000 OA
ATOM      3  N   UNL     1       1.487   7.929  19.631  0.00  0.00    +0.000 N 
ATOM      4  C   UNL     1       1.426   8.339  18.221  0.00  0.00    +0.000 C 
ATOM      5  C   UNL     1       2.293   9.574  17.981  0.00  0.00    +0.000 C 
ATOM      6  C   UNL     1       1.691  10.695  18.771  0.00  0.00    +0.000 A 
ATOM      7  C   UNL     1       1.724  11.990  18.232  0.00  0.00    +0.000 A 
ATOM      8  C   UNL     1       1.110  13.035  18.910  0.00  0.00    +0.000 A 
ATOM      9  C   UNL     1       0.489  12.784  20.125  0.00  0.00    +0.000 A 
ATOM     10  C   UNL     1       0.501  11.503  20.687  0.00  0.00    +0.000 A 
ATOM     11  C   UNL     1       1.108  10.421  20.029  0.00  0.00    +0.000 A 
ATOM     12  C   UNL     1       1.232   9.006  20.662  0.00  0.00    +0.000 C 
ENDROOT
BRANCH   1  20
ATOM     13  O   UNL     1       6.015   3.610  14.408  0.00  0.00    +0.000 OA
ATOM     14  C   UNL     1       6.135   4.042  15.559  0.00  0.00    +0.000 C 
ATOM     15  C   UNL     1       7.318   4.891  15.939  0.00  0.00    +0.000 C 
ATOM     16  C   UNL     1       7.089   6.033  16.909  0.00  0.00    +0.000 C 
ATOM     17  C   UNL     1       6.669   5.544  18.292  0.00  0.00    +0.000 C 
ATOM     18  C   UNL     1       5.185   5.306  18.312  0.00  0.00    +0.000 A 
ATOM     19  C   UNL     1       4.370   6.040  19.213  0.00  0.00    +0.000 A 
ATOM     20  C   UNL     1       2.974   5.944  19.152  0.00  0.00    +0.000 A 
ATOM     21  C   UNL     1       2.414   5.167  18.143  0.00  0.00    +0.000 A 
ATOM     22  C   UNL     1       3.191   4.323  17.369  0.00  0.00    +0.000 A 
ATOM     23  C   UNL     1       4.580   4.406  17.424  0.00  0.00    +0.000 A 
ATOM     24  N   UNL     1       5.243   3.595  16.486  0.00  0.00    +0.000 N 
ATOM     25  H   UNL     1       4.633   2.936  16.012  0.00  0.00    +0.000 HD
ENDBRANCH   1  20
BRANCH  12  26
ATOM     26  C   UNL     1       0.078   8.688  21.666  0.00  0.00    +0.000 C 
ATOM     27  O   UNL     1      -0.930   8.049  21.393  0.00  0.00    +0.000 OA
BRANCH  26  28
ATOM     28  O   UNL     1       0.287   9.141  22.928  0.00  0.00    +0.000 OA
ATOM     29  H   UNL     1       0.312   8.385  23.545  0.00  0.00    +0.000 HD
ENDBRANCH  26  28
ENDBRANCH  12  26
TORSDOF 3
ENDMDL
MODEL 7
REMARK VINA RESULT:      -7.3      2.637      7.976
REMARK  Name = 
REMARK  3 active torsions:
REMARK  status: ('A' for Active; 'I' for Inactive)
REMARK    1  A    between atoms: C_8  and  C_9
REMARK    2  A    between atoms: C_20  and  C_21
REMARK    3  A    between atoms: C_21  and  O_23
REMARK                            x       y       z     vdW  Elec       q    Type
REMARK                         _______ _______ _______ _____ _____    ______ ____
ROOT
ATOM      1  C   UNL     1       0.763   8.721  21.007  0.00  0.00    +0.000 C 
ATOM      2  O   UNL     1       0.313   8.713  22.149  0.00  0.00    +0.000 OA
ATOM      3  N   UNL     1       0.647   9.872  20.203  0.00  0.00    +0.000 N 
ATOM      4  C   UNL     1       0.838   9.860  18.745  0.00  0.00    +0.000 C 
ATOM      5  C   UNL     1       2.085  10.653  18.359  0.00  0.00    +0.000 C 
ATOM      6  C   UNL     1       1.834  12.080  18.738  0.00  0.00    +0.000 A 
ATOM      7  C   UNL     1       2.343  13.094  17.911  0.00  0.00    +0.000 A 
ATOM      8  C   UNL     1       2.063  14.423  18.200  0.00  0.00    +0.000 A 
ATOM      9  C   UNL     1       1.300  14.730  19.317  0.00  0.00    +0.000 A 
ATOM     10  C   UNL     1       0.837  13.722  20.170  0.00  0.00    +0.000 A 
ATOM     11  C   UNL     1       1.096  12.367  19.908  0.00  0.00    +0.000 A 
ATOM     12  C   UNL     1       0.688  11.223  20.881  0.00  0.00    +0.000 C 
ENDROOT
BRANCH   1  20
ATOM     13  O   UNL     1       5.208   2.899  19.140  0.00  0.00    +0.000 OA
ATOM     14  C   UNL     1       4.056   3.175  19.489  0.00  0.00    +0.000 C 
ATOM     15  C   UNL     1       3.340   2.324  20.503  0.00  0.00    +0.000 C 
ATOM     16  C   UNL     1       2.434   3.021  21.500  0.00  0.00    +0.000 C 
ATOM     17  C   UNL     1       1.236   3.686  20.829  0.00  0.00    +0.000 C 
ATOM     18  C   UNL     1       1.633   5.047  20.326  0.00  0.00    +0.000 A 
ATOM     19  C   UNL     1       0.968   6.198  20.822  0.00  0.00    +0.000 A 
ATOM     20  C   UNL     1       1.414   7.482  20.481  0.00  0.00    +0.000 A 
ATOM     21  C   UNL     1       2.561   7.592  19.702  0.00  0.00    +0.000 A 
ATOM     22  C   UNL     1       3.117   6.487  19.081  0.00  0.00    +0.000 A 
ATOM     23  C   UNL     1       2.680   5.206  19.408  0.00  0.00    +0.000 A 
ATOM     24  N   UNL     1       3.425   4.173  18.812  0.00  0.00    +0.000 N 
ATOM     25  H   UNL     1       4.067   4.494  18.095  0.00  0.00    +0.000 HD
ENDBRANCH   1  20
BRANCH  12  26
ATOM     26  C   UNL     1      -0.581  11.569  21.723  0.00  0.00    +0.000 C 
ATOM     27  O   UNL     1      -1.668  11.881  21.255  0.00  0.00    +0.000 OA
BRANCH  26  28
ATOM     28  O   UNL     1      -0.416  11.454  23.066  0.00  0.00    +0.000 OA
ATOM     29  H   UNL     1      -1.124  11.947  23.524  0.00  0.00    +0.000 HD
ENDBRANCH  26  28
ENDBRANCH  12  26
TORSDOF 3
ENDMDL
MODEL 8
REMARK VINA RESULT:      -7.2      2.152      7.914
REMARK  Name = 
REMARK  3 active torsions:
REMARK  status: ('A' for Active; 'I' for Inactive)
REMARK    1  A    between atoms: C_8  and  C_9
REMARK    2  A    between atoms: C_20  and  C_21
REMARK    3  A    between atoms: C_21  and  O_23
REMARK                            x       y       z     vdW  Elec       q    Type
REMARK                         _______ _______ _______ _____ _____    ______ ____
ROOT
ATOM      1  C   UNL     1       0.982   8.350  20.971  0.00  0.00    +0.000 C 
ATOM      2  O   UNL     1       0.539   8.359  22.116  0.00  0.00    +0.000 OA
ATOM      3  N   UNL     1       0.846   9.483  20.144  0.00  0.00    +0.000 N 
ATOM      4  C   UNL     1       1.030   9.443  18.686  0.00  0.00    +0.000 C 
ATOM      5  C   UNL     1       2.263  10.245  18.277  0.00  0.00    +0.000 C 
ATOM      6  C   UNL     1       1.995  11.676  18.627  0.00  0.00    +0.000 A 
ATOM      7  C   UNL     1       2.485  12.679  17.777  0.00  0.00    +0.000 A 
ATOM      8  C   UNL     1       2.190  14.010  18.041  0.00  0.00    +0.000 A 
ATOM      9  C   UNL     1       1.429  14.330  19.156  0.00  0.00    +0.000 A 
ATOM     10  C   UNL     1       0.984  13.333  20.032  0.00  0.00    +0.000 A 
ATOM     11  C   UNL     1       1.260  11.976  19.796  0.00  0.00    +0.000 A 
ATOM     12  C   UNL     1       0.873  10.848  20.794  0.00  0.00    +0.000 C 
ENDROOT
BRANCH   1  20
ATOM     13  O   UNL     1       3.111   1.908  17.637  0.00  0.00    +0.000 OA
ATOM     14  C   UNL     1       3.522   3.033  17.939  0.00  0.00    +0.000 C 
ATOM     15  C   UNL     1       4.354   3.829  16.970  0.00  0.00    +0.000 C 
ATOM     16  C   UNL     1       4.139   5.329  16.917  0.00  0.00    +0.000 C 
ATOM     17  C   UNL     1       4.532   6.018  18.221  0.00  0.00    +0.000 C 
ATOM     18  C   UNL     1       3.387   5.946  19.192  0.00  0.00    +0.000 A 
ATOM     19  C   UNL     1       2.804   7.146  19.677  0.00  0.00    +0.000 A 
ATOM     20  C   UNL     1       1.647   7.109  20.466  0.00  0.00    +0.000 A 
ATOM     21  C   UNL     1       1.053   5.873  20.700  0.00  0.00    +0.000 A 
ATOM     22  C   UNL     1       1.697   4.692  20.375  0.00  0.00    +0.000 A 
ATOM     23  C   UNL     1       2.850   4.716  19.595  0.00  0.00    +0.000 A 
ATOM     24  N   UNL     1       3.319   3.444  19.221  0.00  0.00    +0.000 N 
ATOM     25  H   UNL     1       2.858   2.680  19.705  0.00  0.00    +0.000 HD
ENDBRANCH   1  20
BRANCH  12  26
ATOM     26  C   UNL     1      -0.396  11.194  21.637  0.00  0.00    +0.000 C 
ATOM     27  O   UNL     1      -1.484  11.502  21.169  0.00  0.00    +0.000 OA
BRANCH  26  28
ATOM     28  O   UNL     1      -0.230  11.083  22.979  0.00  0.00    +0.000 OA
ATOM     29  H   UNL     1       0.089  10.185  23.194  0.00  0.00    +0.000 HD
ENDBRANCH  26  28
ENDBRANCH  12  26
TORSDOF 3
ENDMDL
MODEL 9
REMARK VINA RESULT:      -7.1      5.897      8.630
REMARK  Name = 
REMARK  3 active torsions:
REMARK  status: ('A' for Active; 'I' for Inactive)
REMARK    1  A    between atoms: C_8  and  C_9
REMARK    2  A    between atoms: C_20  and  C_21
REMARK    3  A    between atoms: C_21  and  O_23
REMARK                            x       y       z     vdW  Elec       q    Type
REMARK                         _______ _______ _______ _____ _____    ______ ____
ROOT
ATOM      1  C   UNL     1      -0.882  11.978  21.810  0.00  0.00    +0.000 C 
ATOM      2  O   UNL     1      -0.036  11.241  22.309  0.00  0.00    +0.000 OA
ATOM      3  N   UNL     1      -1.120  11.953  20.422  0.00  0.00    +0.000 N 
ATOM      4  C   UNL     1      -1.844  13.015  19.709  0.00  0.00    +0.000 C 
ATOM      5  C   UNL     1      -3.174  12.493  19.170  0.00  0.00    +0.000 C 
ATOM      6  C   UNL     1      -2.854  11.445  18.148  0.00  0.00    +0.000 A 
ATOM      7  C   UNL     1      -3.674  11.339  17.015  0.00  0.00    +0.000 A 
ATOM      8  C   UNL     1      -3.358  10.425  16.019  0.00  0.00    +0.000 A 
ATOM      9  C   UNL     1      -2.244   9.613  16.171  0.00  0.00    +0.000 A 
ATOM     10  C   UNL     1      -1.456   9.682  17.325  0.00  0.00    +0.000 A 
ATOM     11  C   UNL     1      -1.743  10.597  18.351  0.00  0.00    +0.000 A 
ATOM     12  C   UNL     1      -0.955  10.638  19.693  0.00  0.00    +0.000 C 
ENDROOT
BRANCH   1  20
ATOM     13  O   UNL     1      -4.246  17.743  25.357  0.00  0.00    +0.000 OA
ATOM     14  C   UNL     1      -4.435  16.579  24.989  0.00  0.00    +0.000 C 
ATOM     15  C   UNL     1      -5.745  16.176  24.366  0.00  0.00    +0.000 C 
ATOM     16  C   UNL     1      -5.710  15.168  23.235  0.00  0.00    +0.000 C 
ATOM     17  C   UNL     1      -5.211  13.801  23.692  0.00  0.00    +0.000 C 
ATOM     18  C   UNL     1      -3.707  13.783  23.675  0.00  0.00    +0.000 A 
ATOM     19  C   UNL     1      -3.027  12.855  22.844  0.00  0.00    +0.000 A 
ATOM     20  C   UNL     1      -1.635  12.915  22.700  0.00  0.00    +0.000 A 
ATOM     21  C   UNL     1      -0.953  13.946  23.337  0.00  0.00    +0.000 A 
ATOM     22  C   UNL     1      -1.579  14.751  24.275  0.00  0.00    +0.000 A 
ATOM     23  C   UNL     1      -2.961  14.698  24.430  0.00  0.00    +0.000 A 
ATOM     24  N   UNL     1      -3.479  15.665  25.310  0.00  0.00    +0.000 N 
ATOM     25  H   UNL     1      -2.767  16.157  25.841  0.00  0.00    +0.000 HD
ENDBRANCH   1  20
BRANCH  12  26
ATOM     26  C   UNL     1       0.523  10.156  19.543  0.00  0.00    +0.000 C 
ATOM     27  O   UNL     1       1.355  10.671  18.808  0.00  0.00    +0.000 OA
BRANCH  26  28
ATOM     28  O   UNL     1       0.862   9.115  20.345  0.00  0.00    +0.000 OA
ATOM     29  H   UNL     1       1.312   8.429  19.816  0.00  0.00    +0.000 HD
ENDBRANCH  26  28
ENDBRANCH  12  26
TORSDOF 3
ENDMDL
