MODEL 1
REMARK VINA RESULT:      -8.8      0.000      0.000
REMARK  Name = 
REMARK  3 active torsions:
REMARK  status: ('A' for Active; 'I' for Inactive)
REMARK    1  A    between atoms: C_1  and  N_2
REMARK    2  A    between atoms: C_9  and  N_10
REMARK    3  A    between atoms: C_11  and  C_13
REMARK                            x       y       z     vdW  Elec       q    Type
REMARK                         _______ _______ _______ _____ _____    ______ ____
ROOT
ATOM      1  C   UNL     1       7.265   6.725  15.930  0.00  0.00    +0.000 C 
ATOM      2  N   UNL     1       6.651   5.406  15.799  0.00  0.00    +0.000 NA
ATOM      3  C   UNL     1       5.191   5.469  15.853  0.00  0.00    +0.000 C 
ATOM      4  C   UNL     1       4.653   5.835  17.235  0.00  0.00    +0.000 C 
ATOM      5  C   UNL     1       5.152   4.854  18.317  0.00  0.00    +0.000 C 
ATOM      6  C   UNL     1       6.687   4.717  18.220  0.00  0.00    +0.000 C 
ATOM      7  C   UNL     1       7.158   4.446  16.787  0.00  0.00    +0.000 C 
ATOM      8  C   UNL     1       4.785   5.283  19.745  0.00  0.00    +0.000 C 
ATOM      9  C   UNL     1       3.262   5.381  19.940  0.00  0.00    +0.000 C 
ATOM     10  C   UNL     1       2.593   4.198  19.278  0.00  0.00    +0.000 A 
ATOM     11  C   UNL     1       1.260   3.872  19.575  0.00  0.00    +0.000 A 
ATOM     12  C   UNL     1       0.664   2.736  19.018  0.00  0.00    +0.000 A 
ATOM     13  C   UNL     1       1.390   1.909  18.163  0.00  0.00    +0.000 A 
ATOM     14  C   UNL     1       2.713   2.218  17.864  0.00  0.00    +0.000 A 
ATOM     15  C   UNL     1       3.305   3.356  18.413  0.00  0.00    +0.000 A 
ATOM     16  O   UNL     1       4.612   3.545  18.059  0.00  0.00    +0.000 OA
ENDROOT
BRANCH   9  17
ATOM     17  N   UNL     1       2.721   6.677  19.501  0.00  0.00    +0.000 N 
ATOM     18  C   UNL     1       1.792   7.323  20.299  0.00  0.00    +0.000 C 
ATOM     19  O   UNL     1       1.410   6.820  21.351  0.00  0.00    +0.000 OA
ATOM     20  H   UNL     1       2.940   7.005  18.571  0.00  0.00    +0.000 HD
BRANCH  18  21
ATOM     21  C   UNL     1       1.278   8.667  19.919  0.00  0.00    +0.000 A 
ATOM     22  C   UNL     1       1.593   9.200  18.674  0.00  0.00    +0.000 A 
ATOM     23  N   UNL     1       1.341  10.479  18.304  0.00  0.00    +0.000 NA
ATOM     24  C   UNL     1       0.726  11.263  19.221  0.00  0.00    +0.000 A 
ATOM     25  C   UNL     1       0.296  10.828  20.476  0.00  0.00    +0.000 A 
ATOM     26  C   UNL     1      -0.412  11.684  21.345  0.00  0.00    +0.000 A 
ATOM     27  C   UNL     1      -0.838  11.241  22.594  0.00  0.00    +0.000 A 
ATOM     28  C   UNL     1      -0.535   9.950  23.002  0.00  0.00    +0.000 A 
ATOM     29  C   UNL     1       0.165   9.096  22.147  0.00  0.00    +0.000 A 
ATOM     30  C   UNL     1       0.590   9.497  20.854  0.00  0.00    +0.000 A 
ENDBRANCH  18  21
ENDBRANCH   9  17
TORSDOF 2
ENDMDL
MODEL 2
REMARK VINA RESULT:      -8.6      1.867      4.458
REMARK  Name = 
REMARK  3 active torsions:
REMARK  status: ('A' for Active; 'I' for Inactive)
REMARK    1  A    between atoms: C_1  and  N_2
REMARK    2  A    between atoms: C_9  and  N_10
REMARK    3  A    between atoms: C_11  and  C_13
REMARK                            x       y       z     vdW  Elec       q    Type
REMARK                         _______ _______ _______ _____ _____    ______ ____
ROOT
ATOM      1  C   UNL     1       1.066   2.588  21.132  0.00  0.00    +0.000 C 
ATOM      2  N   UNL     1       2.420   2.348  20.642  0.00  0.00    +0.000 NA
ATOM      3  C   UNL     1       3.296   3.500  20.851  0.00  0.00    +0.000 C 
ATOM      4  C   UNL     1       2.942   4.696  19.968  0.00  0.00    +0.000 C 
ATOM      5  C   UNL     1       2.958   4.322  18.471  0.00  0.00    +0.000 C 
ATOM      6  C   UNL     1       2.099   3.057  18.247  0.00  0.00    +0.000 C 
ATOM      7  C   UNL     1       2.446   1.936  19.232  0.00  0.00    +0.000 C 
ATOM      8  C   UNL     1       2.435   5.439  17.558  0.00  0.00    +0.000 C 
ATOM      9  C   UNL     1       3.281   6.719  17.677  0.00  0.00    +0.000 C 
ATOM     10  C   UNL     1       4.747   6.352  17.711  0.00  0.00    +0.000 A 
ATOM     11  C   UNL     1       5.734   7.326  17.494  0.00  0.00    +0.000 A 
ATOM     12  C   UNL     1       7.087   6.973  17.453  0.00  0.00    +0.000 A 
ATOM     13  C   UNL     1       7.472   5.644  17.623  0.00  0.00    +0.000 A 
ATOM     14  C   UNL     1       6.503   4.668  17.835  0.00  0.00    +0.000 A 
ATOM     15  C   UNL     1       5.155   5.021  17.884  0.00  0.00    +0.000 A 
ATOM     16  O   UNL     1       4.298   3.974  18.081  0.00  0.00    +0.000 OA
ENDROOT
BRANCH   9  17
ATOM     17  N   UNL     1       2.867   7.565  18.808  0.00  0.00    +0.000 N 
ATOM     18  C   UNL     1       1.866   8.501  18.617  0.00  0.00    +0.000 C 
ATOM     19  O   UNL     1       1.337   8.639  17.518  0.00  0.00    +0.000 OA
ATOM     20  H   UNL     1       3.407   7.533  19.662  0.00  0.00    +0.000 HD
BRANCH  18  21
ATOM     21  C   UNL     1       1.374   9.322  19.757  0.00  0.00    +0.000 A 
ATOM     22  C   UNL     1       0.915   8.696  20.910  0.00  0.00    +0.000 A 
ATOM     23  N   UNL     1       0.275   9.332  21.922  0.00  0.00    +0.000 NA
ATOM     24  C   UNL     1       0.100  10.666  21.781  0.00  0.00    +0.000 A 
ATOM     25  C   UNL     1       0.576  11.421  20.707  0.00  0.00    +0.000 A 
ATOM     26  C   UNL     1       0.425  12.822  20.672  0.00  0.00    +0.000 A 
ATOM     27  C   UNL     1       0.905  13.566  19.597  0.00  0.00    +0.000 A 
ATOM     28  C   UNL     1       1.512  12.916  18.532  0.00  0.00    +0.000 A 
ATOM     29  C   UNL     1       1.666  11.528  18.559  0.00  0.00    +0.000 A 
ATOM     30  C   UNL     1       1.219  10.736  19.649  0.00  0.00    +0.000 A 
ENDBRANCH  18  21
ENDBRANCH   9  17
TORSDOF 2
ENDMDL
MODEL 3
REMARK VINA RESULT:      -8.4      1.931      4.401
REMARK  Name = 
REMARK  3 active torsions:
REMARK  status: ('A' for Active; 'I' for Inactive)
REMARK    1  A    between atoms: C_1  and  N_2
REMARK    2  A    between atoms: C_9  and  N_10
REMARK    3  A    between atoms: C_11  and  C_13
REMARK                            x       y       z     vdW  Elec       q    Type
REMARK                         _______ _______ _______ _____ _____    ______ ____
ROOT
ATOM      1  C   UNL     1       1.084   2.509  21.404  0.00  0.00    +0.000 C 
ATOM      2  N   UNL     1       2.428   2.319  20.865  0.00  0.00    +0.000 NA
ATOM      3  C   UNL     1       3.258   3.513  21.018  0.00  0.00    +0.000 C 
ATOM      4  C   UNL     1       2.816   4.673  20.128  0.00  0.00    +0.000 C 
ATOM      5  C   UNL     1       2.791   4.270  18.639  0.00  0.00    +0.000 C 
ATOM      6  C   UNL     1       1.982   2.965  18.473  0.00  0.00    +0.000 C 
ATOM      7  C   UNL     1       2.417   1.880  19.464  0.00  0.00    +0.000 C 
ATOM      8  C   UNL     1       2.183   5.345  17.727  0.00  0.00    +0.000 C 
ATOM      9  C   UNL     1       2.975   6.663  17.789  0.00  0.00    +0.000 C 
ATOM     10  C   UNL     1       4.457   6.362  17.771  0.00  0.00    +0.000 A 
ATOM     11  C   UNL     1       5.389   7.374  17.497  0.00  0.00    +0.000 A 
ATOM     12  C   UNL     1       6.754   7.080  17.408  0.00  0.00    +0.000 A 
ATOM     13  C   UNL     1       7.205   5.774  17.588  0.00  0.00    +0.000 A 
ATOM     14  C   UNL     1       6.290   4.760  17.856  0.00  0.00    +0.000 A 
ATOM     15  C   UNL     1       4.930   5.055  17.952  0.00  0.00    +0.000 A 
ATOM     16  O   UNL     1       4.129   3.974  18.202  0.00  0.00    +0.000 OA
ENDROOT
BRANCH   9  17
ATOM     17  N   UNL     1       2.568   7.512  18.920  0.00  0.00    +0.000 N 
ATOM     18  C   UNL     1       1.642   8.519  18.706  0.00  0.00    +0.000 C 
ATOM     19  O   UNL     1       1.176   8.715  17.588  0.00  0.00    +0.000 OA
ATOM     20  H   UNL     1       3.064   7.426  19.795  0.00  0.00    +0.000 HD
BRANCH  18  21
ATOM     21  C   UNL     1       1.156   9.349  19.842  0.00  0.00    +0.000 A 
ATOM     22  C   UNL     1       1.612   9.090  21.130  0.00  0.00    +0.000 A 
ATOM     23  N   UNL     1       1.096   9.652  22.250  0.00  0.00    +0.000 NA
ATOM     24  C   UNL     1       0.083  10.531  22.073  0.00  0.00    +0.000 A 
ATOM     25  C   UNL     1      -0.416  10.927  20.831  0.00  0.00    +0.000 A 
ATOM     26  C   UNL     1      -1.420  11.912  20.725  0.00  0.00    +0.000 A 
ATOM     27  C   UNL     1      -1.911  12.302  19.481  0.00  0.00    +0.000 A 
ATOM     28  C   UNL     1      -1.426  11.692  18.333  0.00  0.00    +0.000 A 
ATOM     29  C   UNL     1      -0.432  10.716  18.430  0.00  0.00    +0.000 A 
ATOM     30  C   UNL     1       0.117  10.312  19.675  0.00  0.00    +0.000 A 
ENDBRANCH  18  21
ENDBRANCH   9  17
TORSDOF 2
ENDMDL
MODEL 4
REMARK VINA RESULT:      -7.8      1.809      4.264
REMARK  Name = 
REMARK  3 active torsions:
REMARK  status: ('A' for Active; 'I' for Inactive)
REMARK    1  A    between atoms: C_1  and  N_2
REMARK    2  A    between atoms: C_9  and  N_10
REMARK    3  A    between atoms: C_11  and  C_13
REMARK                            x       y       z     vdW  Elec       q    Type
REMARK                         _______ _______ _______ _____ _____    ______ ____
ROOT
ATOM      1  C   UNL     1       1.048   2.933  21.518  0.00  0.00    +0.000 C 
ATOM      2  N   UNL     1       2.443   2.727  21.137  0.00  0.00    +0.000 NA
ATOM      3  C   UNL     1       3.221   3.964  21.197  0.00  0.00    +0.000 C 
ATOM      4  C   UNL     1       2.836   4.972  20.116  0.00  0.00    +0.000 C 
ATOM      5  C   UNL     1       2.966   4.368  18.702  0.00  0.00    +0.000 C 
ATOM      6  C   UNL     1       2.213   3.020  18.647  0.00  0.00    +0.000 C 
ATOM      7  C   UNL     1       2.580   2.100  19.816  0.00  0.00    +0.000 C 
ATOM      8  C   UNL     1       2.420   5.282  17.596  0.00  0.00    +0.000 C 
ATOM      9  C   UNL     1       3.164   6.627  17.545  0.00  0.00    +0.000 C 
ATOM     10  C   UNL     1       4.649   6.388  17.706  0.00  0.00    +0.000 A 
ATOM     11  C   UNL     1       5.575   7.390  17.380  0.00  0.00    +0.000 A 
ATOM     12  C   UNL     1       6.950   7.144  17.460  0.00  0.00    +0.000 A 
ATOM     13  C   UNL     1       7.417   5.894  17.861  0.00  0.00    +0.000 A 
ATOM     14  C   UNL     1       6.509   4.889  18.184  0.00  0.00    +0.000 A 
ATOM     15  C   UNL     1       5.138   5.138  18.112  0.00  0.00    +0.000 A 
ATOM     16  O   UNL     1       4.348   4.071  18.436  0.00  0.00    +0.000 OA
ENDROOT
BRANCH   9  17
ATOM     17  N   UNL     1       2.626   7.606  18.503  0.00  0.00    +0.000 N 
ATOM     18  C   UNL     1       2.229   8.849  18.044  0.00  0.00    +0.000 C 
ATOM     19  O   UNL     1       2.337   9.143  16.857  0.00  0.00    +0.000 OA
ATOM     20  H   UNL     1       2.676   7.397  19.491  0.00  0.00    +0.000 HD
BRANCH  18  21
ATOM     21  C   UNL     1       1.615   9.836  18.974  0.00  0.00    +0.000 A 
ATOM     22  C   UNL     1       1.748  11.197  18.722  0.00  0.00    +0.000 A 
ATOM     23  N   UNL     1       1.397  12.173  19.594  0.00  0.00    +0.000 NA
ATOM     24  C   UNL     1       0.870  11.769  20.773  0.00  0.00    +0.000 A 
ATOM     25  C   UNL     1       0.620  10.439  21.116  0.00  0.00    +0.000 A 
ATOM     26  C   UNL     1      -0.008  10.102  22.333  0.00  0.00    +0.000 A 
ATOM     27  C   UNL     1      -0.255   8.772  22.666  0.00  0.00    +0.000 A 
ATOM     28  C   UNL     1       0.152   7.764  21.803  0.00  0.00    +0.000 A 
ATOM     29  C   UNL     1       0.775   8.090  20.596  0.00  0.00    +0.000 A 
ATOM     30  C   UNL     1       1.016   9.433  20.204  0.00  0.00    +0.000 A 
ENDBRANCH  18  21
ENDBRANCH   9  17
TORSDOF 2
ENDMDL
MODEL 5
REMARK VINA RESULT:      -7.6      6.875     10.142
REMARK  Name = 
REMARK  3 active torsions:
REMARK  status: ('A' for Active; 'I' for Inactive)
REMARK    1  A    between atoms: C_1  and  N_2
REMARK    2  A    between atoms: C_9  and  N_10
REMARK    3  A    between atoms: C_11  and  C_13
REMARK                            x       y       z     vdW  Elec       q    Type
REMARK                         _______ _______ _______ _____ _____    ______ ____
ROOT
ATOM      1  C   UNL     1      -4.274  15.462  23.173  0.00  0.00    +0.000 C 
ATOM      2  N   UNL     1      -2.949  16.076  23.205  0.00  0.00    +0.000 NA
ATOM      3  C   UNL     1      -2.276  16.005  21.909  0.00  0.00    +0.000 C 
ATOM      4  C   UNL     1      -1.862  14.586  21.520  0.00  0.00    +0.000 C 
ATOM      5  C   UNL     1      -0.955  13.945  22.590  0.00  0.00    +0.000 C 
ATOM      6  C   UNL     1      -1.618  14.083  23.978  0.00  0.00    +0.000 C 
ATOM      7  C   UNL     1      -2.093  15.513  24.257  0.00  0.00    +0.000 C 
ATOM      8  C   UNL     1      -0.661  12.461  22.331  0.00  0.00    +0.000 C 
ATOM      9  C   UNL     1       0.060  12.246  20.988  0.00  0.00    +0.000 C 
ATOM     10  C   UNL     1       1.129  13.301  20.817  0.00  0.00    +0.000 A 
ATOM     11  C   UNL     1       2.136  13.150  19.850  0.00  0.00    +0.000 A 
ATOM     12  C   UNL     1       3.166  14.090  19.740  0.00  0.00    +0.000 A 
ATOM     13  C   UNL     1       3.207  15.189  20.595  0.00  0.00    +0.000 A 
ATOM     14  C   UNL     1       2.218  15.349  21.561  0.00  0.00    +0.000 A 
ATOM     15  C   UNL     1       1.186  14.416  21.665  0.00  0.00    +0.000 A 
ATOM     16  O   UNL     1       0.285  14.671  22.661  0.00  0.00    +0.000 OA
ENDROOT
BRANCH   9  17
ATOM     17  N   UNL     1      -0.873  12.173  19.853  0.00  0.00    +0.000 N 
ATOM     18  C   UNL     1      -1.204  10.934  19.333  0.00  0.00    +0.000 C 
ATOM     19  O   UNL     1      -0.718   9.908  19.797  0.00  0.00    +0.000 OA
ATOM     20  H   UNL     1      -1.152  13.031  19.397  0.00  0.00    +0.000 HD
BRANCH  18  21
ATOM     21  C   UNL     1      -2.199  10.821  18.231  0.00  0.00    +0.000 A 
ATOM     22  C   UNL     1      -1.850  10.176  17.050  0.00  0.00    +0.000 A 
ATOM     23  N   UNL     1      -2.605  10.183  15.924  0.00  0.00    +0.000 NA
ATOM     24  C   UNL     1      -3.777  10.855  15.987  0.00  0.00    +0.000 A 
ATOM     25  C   UNL     1      -4.272  11.483  17.132  0.00  0.00    +0.000 A 
ATOM     26  C   UNL     1      -5.543  12.094  17.141  0.00  0.00    +0.000 A 
ATOM     27  C   UNL     1      -6.029  12.716  18.289  0.00  0.00    +0.000 A 
ATOM     28  C   UNL     1      -5.239  12.760  19.428  0.00  0.00    +0.000 A 
ATOM     29  C   UNL     1      -3.980  12.157  19.427  0.00  0.00    +0.000 A 
ATOM     30  C   UNL     1      -3.460  11.486  18.290  0.00  0.00    +0.000 A 
ENDBRANCH  18  21
ENDBRANCH   9  17
TORSDOF 2
ENDMDL
MODEL 6
REMARK VINA RESULT:      -7.4      6.402      9.303
REMARK  Name = 
REMARK  3 active torsions:
REMARK  status: ('A' for Active; 'I' for Inactive)
REMARK    1  A    between atoms: C_1  and  N_2
REMARK    2  A    between atoms: C_9  and  N_10
REMARK    3  A    between atoms: C_11  and  C_13
REMARK                            x       y       z     vdW  Elec       q    Type
REMARK                         _______ _______ _______ _____ _____    ______ ____
ROOT
ATOM      1  C   UNL     1      -0.051  16.355  18.582  0.00  0.00    +0.000 C 
ATOM      2  N   UNL     1       0.713  15.112  18.664  0.00  0.00    +0.000 NA
ATOM      3  C   UNL     1      -0.152  13.940  18.800  0.00  0.00    +0.000 C 
ATOM      4  C   UNL     1      -0.858  13.865  20.153  0.00  0.00    +0.000 C 
ATOM      5  C   UNL     1       0.149  13.881  21.322  0.00  0.00    +0.000 C 
ATOM      6  C   UNL     1       1.120  15.070  21.148  0.00  0.00    +0.000 C 
ATOM      7  C   UNL     1       1.714  15.135  19.738  0.00  0.00    +0.000 C 
ATOM      8  C   UNL     1      -0.518  13.988  22.700  0.00  0.00    +0.000 C 
ATOM      9  C   UNL     1      -1.458  12.801  22.975  0.00  0.00    +0.000 C 
ATOM     10  C   UNL     1      -0.797  11.520  22.518  0.00  0.00    +0.000 A 
ATOM     11  C   UNL     1      -1.287  10.273  22.937  0.00  0.00    +0.000 A 
ATOM     12  C   UNL     1      -0.633   9.091  22.573  0.00  0.00    +0.000 A 
ATOM     13  C   UNL     1       0.519   9.139  21.791  0.00  0.00    +0.000 A 
ATOM     14  C   UNL     1       1.018  10.368  21.372  0.00  0.00    +0.000 A 
ATOM     15  C   UNL     1       0.361  11.546  21.728  0.00  0.00    +0.000 A 
ATOM     16  O   UNL     1       0.955  12.690  21.273  0.00  0.00    +0.000 OA
ENDROOT
BRANCH   9  17
ATOM     17  N   UNL     1      -2.799  13.000  22.404  0.00  0.00    +0.000 N 
ATOM     18  C   UNL     1      -3.906  12.598  23.130  0.00  0.00    +0.000 C 
ATOM     19  O   UNL     1      -3.777  12.068  24.229  0.00  0.00    +0.000 OA
ATOM     20  H   UNL     1      -2.877  13.307  21.444  0.00  0.00    +0.000 HD
BRANCH  18  21
ATOM     21  C   UNL     1      -5.279  12.849  22.612  0.00  0.00    +0.000 A 
ATOM     22  C   UNL     1      -6.303  13.163  23.498  0.00  0.00    +0.000 A 
ATOM     23  N   UNL     1      -7.614  13.222  23.160  0.00  0.00    +0.000 NA
ATOM     24  C   UNL     1      -7.916  12.971  21.865  0.00  0.00    +0.000 A 
ATOM     25  C   UNL     1      -6.975  12.715  20.866  0.00  0.00    +0.000 A 
ATOM     26  C   UNL     1      -7.363  12.544  19.521  0.00  0.00    +0.000 A 
ATOM     27  C   UNL     1      -6.416  12.290  18.531  0.00  0.00    +0.000 A 
ATOM     28  C   UNL     1      -5.078  12.173  18.878  0.00  0.00    +0.000 A 
ATOM     29  C   UNL     1      -4.686  12.341  20.209  0.00  0.00    +0.000 A 
ATOM     30  C   UNL     1      -5.614  12.632  21.243  0.00  0.00    +0.000 A 
ENDBRANCH  18  21
ENDBRANCH   9  17
TORSDOF 2
ENDMDL
MODEL 7
REMARK VINA RESULT:      -7.3      6.380     10.024
REMARK  Name = 
REMARK  3 active torsions:
REMARK  status: ('A' for Active; 'I' for Inactive)
REMARK    1  A    between atoms: C_1  and  N_2
REMARK    2  A    between atoms: C_9  and  N_10
REMARK    3  A    between atoms: C_11  and  C_13
REMARK                            x       y       z     vdW  Elec       q    Type
REMARK                         _______ _______ _______ _____ _____    ______ ____
ROOT
ATOM      1  C   UNL     1      -3.944  16.013  23.650  0.00  0.00    +0.000 C 
ATOM      2  N   UNL     1      -3.614  14.725  24.254  0.00  0.00    +0.000 NA
ATOM      3  C   UNL     1      -2.203  14.380  24.084  0.00  0.00    +0.000 C 
ATOM      4  C   UNL     1      -1.831  14.056  22.638  0.00  0.00    +0.000 C 
ATOM      5  C   UNL     1      -2.697  12.912  22.071  0.00  0.00    +0.000 C 
ATOM      6  C   UNL     1      -4.189  13.226  22.315  0.00  0.00    +0.000 C 
ATOM      7  C   UNL     1      -4.469  13.636  23.765  0.00  0.00    +0.000 C 
ATOM      8  C   UNL     1      -2.484  12.672  20.570  0.00  0.00    +0.000 C 
ATOM      9  C   UNL     1      -1.027  12.291  20.252  0.00  0.00    +0.000 C 
ATOM     10  C   UNL     1      -0.528  11.305  21.285  0.00  0.00    +0.000 A 
ATOM     11  C   UNL     1       0.637  10.558  21.056  0.00  0.00    +0.000 A 
ATOM     12  C   UNL     1       1.058   9.594  21.978  0.00  0.00    +0.000 A 
ATOM     13  C   UNL     1       0.321   9.361  23.137  0.00  0.00    +0.000 A 
ATOM     14  C   UNL     1      -0.839  10.093  23.375  0.00  0.00    +0.000 A 
ATOM     15  C   UNL     1      -1.255  11.060  22.458  0.00  0.00    +0.000 A 
ATOM     16  O   UNL     1      -2.416  11.699  22.792  0.00  0.00    +0.000 OA
ENDROOT
BRANCH   9  17
ATOM     17  N   UNL     1      -0.156  13.468  20.102  0.00  0.00    +0.000 N 
ATOM     18  C   UNL     1       0.711  13.530  19.026  0.00  0.00    +0.000 C 
ATOM     19  O   UNL     1       0.769  12.613  18.213  0.00  0.00    +0.000 OA
ATOM     20  H   UNL     1      -0.118  14.142  20.854  0.00  0.00    +0.000 HD
BRANCH  18  21
ATOM     21  C   UNL     1       1.554  14.737  18.807  0.00  0.00    +0.000 A 
ATOM     22  C   UNL     1       2.932  14.657  18.979  0.00  0.00    +0.000 A 
ATOM     23  N   UNL     1       3.763  15.727  18.992  0.00  0.00    +0.000 NA
ATOM     24  C   UNL     1       3.191  16.940  18.807  0.00  0.00    +0.000 A 
ATOM     25  C   UNL     1       1.834  17.146  18.554  0.00  0.00    +0.000 A 
ATOM     26  C   UNL     1       1.325  18.434  18.289  0.00  0.00    +0.000 A 
ATOM     27  C   UNL     1      -0.030  18.630  18.036  0.00  0.00    +0.000 A 
ATOM     28  C   UNL     1      -0.897  17.547  18.075  0.00  0.00    +0.000 A 
ATOM     29  C   UNL     1      -0.401  16.268  18.337  0.00  0.00    +0.000 A 
ATOM     30  C   UNL     1       0.977  16.020  18.569  0.00  0.00    +0.000 A 
ENDBRANCH  18  21
ENDBRANCH   9  17
TORSDOF 2
ENDMDL
MODEL 8
REMARK VINA RESULT:      -7.3      6.091     11.546
REMARK  Name = 
REMARK  3 active torsions:
REMARK  status: ('A' for Active; 'I' for Inactive)
REMARK    1  A    between atoms: C_1  and  N_2
REMARK    2  A    between atoms: C_9  and  N_10
REMARK    3  A    between atoms: C_11  and  C_13
REMARK                            x       y       z     vdW  Elec       q    Type
REMARK                         _______ _______ _______ _____ _____    ______ ____
ROOT
ATOM      1  C   UNL     1      -7.358  12.877  20.117  0.00  0.00    +0.000 C 
ATOM      2  N   UNL     1      -7.249  14.007  21.035  0.00  0.00    +0.000 NA
ATOM      3  C   UNL     1      -5.930  14.638  20.980  0.00  0.00    +0.000 C 
ATOM      4  C   UNL     1      -4.819  13.764  21.560  0.00  0.00    +0.000 C 
ATOM      5  C   UNL     1      -5.117  13.357  23.017  0.00  0.00    +0.000 C 
ATOM      6  C   UNL     1      -6.539  12.760  23.104  0.00  0.00    +0.000 C 
ATOM      7  C   UNL     1      -7.585  13.646  22.418  0.00  0.00    +0.000 C 
ATOM      8  C   UNL     1      -4.120  12.335  23.581  0.00  0.00    +0.000 C 
ATOM      9  C   UNL     1      -2.681  12.881  23.586  0.00  0.00    +0.000 C 
ATOM     10  C   UNL     1      -2.690  14.317  24.062  0.00  0.00    +0.000 A 
ATOM     11  C   UNL     1      -1.501  14.944  24.464  0.00  0.00    +0.000 A 
ATOM     12  C   UNL     1      -1.520  16.248  24.972  0.00  0.00    +0.000 A 
ATOM     13  C   UNL     1      -2.724  16.939  25.089  0.00  0.00    +0.000 A 
ATOM     14  C   UNL     1      -3.911  16.327  24.697  0.00  0.00    +0.000 A 
ATOM     15  C   UNL     1      -3.891  15.030  24.183  0.00  0.00    +0.000 A 
ATOM     16  O   UNL     1      -5.119  14.530  23.850  0.00  0.00    +0.000 OA
ENDROOT
BRANCH   9  17
ATOM     17  N   UNL     1      -2.006  12.701  22.292  0.00  0.00    +0.000 N 
ATOM     18  C   UNL     1      -0.906  11.864  22.217  0.00  0.00    +0.000 C 
ATOM     19  O   UNL     1      -0.487  11.289  23.217  0.00  0.00    +0.000 OA
ATOM     20  H   UNL     1      -2.278  13.289  21.516  0.00  0.00    +0.000 HD
BRANCH  18  21
ATOM     21  C   UNL     1      -0.243  11.605  20.910  0.00  0.00    +0.000 A 
ATOM     22  C   UNL     1      -0.483  10.410  20.241  0.00  0.00    +0.000 A 
ATOM     23  N   UNL     1       0.207   9.993  19.151  0.00  0.00    +0.000 NA
ATOM     24  C   UNL     1       1.176  10.821  18.696  0.00  0.00    +0.000 A 
ATOM     25  C   UNL     1       1.465  12.076  19.236  0.00  0.00    +0.000 A 
ATOM     26  C   UNL     1       2.436  12.918  18.654  0.00  0.00    +0.000 A 
ATOM     27  C   UNL     1       2.716  14.169  19.199  0.00  0.00    +0.000 A 
ATOM     28  C   UNL     1       2.052  14.579  20.346  0.00  0.00    +0.000 A 
ATOM     29  C   UNL     1       1.090  13.751  20.928  0.00  0.00    +0.000 A 
ATOM     30  C   UNL     1       0.752  12.483  20.388  0.00  0.00    +0.000 A 
ENDBRANCH  18  21
ENDBRANCH   9  17
TORSDOF 2
ENDMDL
MODEL 9
REMARK VINA RESULT:      -7.2      5.001      9.569
REMARK  Name = 
REMARK  3 active torsions:
REMARK  status: ('A' for Active; 'I' for Inactive)
REMARK    1  A    between atoms: C_1  and  N_2
REMARK    2  A    between atoms: C_9  and  N_10
REMARK    3  A    between atoms: C_11  and  C_13
REMARK                            x       y       z     vdW  Elec       q    Type
REMARK                         _______ _______ _______ _____ _____    ______ ____
ROOT
ATOM      1  C   UNL     1       7.380  14.475  20.194  0.00  0.00    +0.000 C 
ATOM      2  N   UNL     1       6.652  15.721  20.420  0.00  0.00    +0.000 NA
ATOM      3  C   UNL     1       5.387  15.503  21.120  0.00  0.00    +0.000 C 
ATOM      4  C   UNL     1       4.344  14.779  20.270  0.00  0.00    +0.000 C 
ATOM      5  C   UNL     1       4.062  15.531  18.953  0.00  0.00    +0.000 C 
ATOM      6  C   UNL     1       5.398  15.838  18.240  0.00  0.00    +0.000 C 
ATOM      7  C   UNL     1       6.427  16.474  19.180  0.00  0.00    +0.000 C 
ATOM      8  C   UNL     1       3.157  14.752  17.988  0.00  0.00    +0.000 C 
ATOM      9  C   UNL     1       1.778  14.461  18.605  0.00  0.00    +0.000 C 
ATOM     10  C   UNL     1       1.281  15.691  19.330  0.00  0.00    +0.000 A 
ATOM     11  C   UNL     1      -0.067  15.807  19.703  0.00  0.00    +0.000 A 
ATOM     12  C   UNL     1      -0.542  16.975  20.308  0.00  0.00    +0.000 A 
ATOM     13  C   UNL     1       0.321  18.044  20.545  0.00  0.00    +0.000 A 
ATOM     14  C   UNL     1       1.660  17.944  20.177  0.00  0.00    +0.000 A 
ATOM     15  C   UNL     1       2.134  16.775  19.581  0.00  0.00    +0.000 A 
ATOM     16  O   UNL     1       3.460  16.803  19.250  0.00  0.00    +0.000 OA
ENDROOT
BRANCH   9  17
ATOM     17  N   UNL     1       1.781  13.252  19.445  0.00  0.00    +0.000 N 
ATOM     18  C   UNL     1       0.773  12.318  19.282  0.00  0.00    +0.000 C 
ATOM     19  O   UNL     1      -0.121  12.496  18.461  0.00  0.00    +0.000 OA
ATOM     20  H   UNL     1       2.442  13.192  20.207  0.00  0.00    +0.000 HD
BRANCH  18  21
ATOM     21  C   UNL     1       0.786  11.052  20.065  0.00  0.00    +0.000 A 
ATOM     22  C   UNL     1       0.385  11.060  21.397  0.00  0.00    +0.000 A 
ATOM     23  N   UNL     1       0.536  10.016  22.247  0.00  0.00    +0.000 NA
ATOM     24  C   UNL     1       1.103   8.898  21.736  0.00  0.00    +0.000 A 
ATOM     25  C   UNL     1       1.483   8.740  20.402  0.00  0.00    +0.000 A 
ATOM     26  C   UNL     1       1.992   7.514  19.925  0.00  0.00    +0.000 A 
ATOM     27  C   UNL     1       2.366   7.365  18.592  0.00  0.00    +0.000 A 
ATOM     28  C   UNL     1       2.266   8.447  17.728  0.00  0.00    +0.000 A 
ATOM     29  C   UNL     1       1.762   9.664  18.192  0.00  0.00    +0.000 A 
ATOM     30  C   UNL     1       1.340   9.849  19.535  0.00  0.00    +0.000 A 
ENDBRANCH  18  21
ENDBRANCH   9  17
TORSDOF 2
ENDMDL
