MODEL 1
REMARK VINA RESULT:      -8.9      0.000      0.000
REMARK  Name = 
REMARK  8 active torsions:
REMARK  status: ('A' for Active; 'I' for Inactive)
REMARK    1  A    between atoms: C_1  and  N_2
REMARK    2  A    between atoms: C_6  and  C_7
REMARK    3  A    between atoms: C_7  and  C_8
REMARK    4  A    between atoms: C_8  and  C_9
REMARK    5  A    between atoms: C_13  and  N_14
REMARK    6  A    between atoms: N_17  and  C_18
REMARK    7  A    between atoms: C_19  and  C_20
REMARK    8  A    between atoms: C_20  and  C_21
REMARK                            x       y       z     vdW  Elec       q    Type
REMARK                         _______ _______ _______ _____ _____    ______ ____
ROOT
ATOM      1  C   UNL     1       4.060   5.697  17.975  0.00  0.00    +0.000 A 
ATOM      2  C   UNL     1       5.048   5.463  18.954  0.00  0.00    +0.000 A 
ATOM      3  C   UNL     1       6.291   4.923  18.639  0.00  0.00    +0.000 A 
ATOM      4  C   UNL     1       6.593   4.595  17.322  0.00  0.00    +0.000 A 
ATOM      5  C   UNL     1       5.658   4.801  16.309  0.00  0.00    +0.000 A 
ATOM      6  C   UNL     1       4.412   5.365  16.644  0.00  0.00    +0.000 A 
ENDROOT
BRANCH   5   7
ATOM      7  N   UNL     1       5.883   4.444  14.961  0.00  0.00    +0.000 N 
ATOM      8  C   UNL     1       6.952   4.792  14.173  0.00  0.00    +0.000 C 
ATOM      9  O   UNL     1       7.889   5.521  14.497  0.00  0.00    +0.000 OA
ATOM     10  N   UNL     1       6.977   4.283  12.903  0.00  0.00    +0.000 N 
ATOM     11  H   UNL     1       5.208   3.824  14.543  0.00  0.00    +0.000 HD
ATOM     12  H   UNL     1       7.807   4.596  12.412  0.00  0.00    +0.000 HD
BRANCH  10  13
ATOM     13  C   UNL     1       6.134   3.510  12.227  0.00  0.00    +0.000 C 
ATOM     14  C   UNL     1       4.931   3.407  11.754  0.00  0.00    +0.000 C 
ATOM     15  C   UNL     1       6.153   2.281  11.636  0.00  0.00    +0.000 C 
BRANCH  14  16
ATOM     16  C   UNL     1       3.777   2.812  11.012  0.00  0.00    +0.000 C 
BRANCH  16  17
ATOM     17  C   UNL     1       3.153   3.676   9.923  0.00  0.00    +0.000 C 
ATOM     18  F   UNL     1       1.941   3.233   9.528  0.00  0.00    +0.000 F 
ATOM     19  F   UNL     1       3.003   4.951  10.348  0.00  0.00    +0.000 F 
ATOM     20  F   UNL     1       3.949   3.708   8.828  0.00  0.00    +0.000 F 
ENDBRANCH  16  17
ENDBRANCH  14  16
ENDBRANCH  10  13
ENDBRANCH   5   7
BRANCH   1  21
ATOM     21  C   UNL     1       2.608   6.270  18.396  0.00  0.00    +0.000 C 
ATOM     22  C   UNL     1       2.411   6.861  19.820  0.00  0.00    +0.000 C 
ATOM     23  O   UNL     1       2.131   8.181  19.308  0.00  0.00    +0.000 OA
ATOM     24  C   UNL     1       2.350   7.745  17.956  0.00  0.00    +0.000 C 
BRANCH  21  25
ATOM     25  C   UNL     1       1.479   5.329  17.920  0.00  0.00    +0.000 C 
BRANCH  25  31
ATOM     26  C   UNL     1       1.241   3.719  20.654  0.00  0.00    +0.000 C 
ATOM     27  N   UNL     1       1.662   3.220  19.372  0.00  0.00    +0.000 N 
ATOM     28  C   UNL     1       2.089   1.948  19.139  0.00  0.00    +0.000 A 
ATOM     29  N   UNL     1       2.404   1.814  17.875  0.00  0.00    +0.000 NA
ATOM     30  N   UNL     1       2.190   3.024  17.265  0.00  0.00    +0.000 NA
ATOM     31  C   UNL     1       1.745   3.878  18.168  0.00  0.00    +0.000 A 
ENDBRANCH  25  31
ENDBRANCH  21  25
ENDBRANCH   1  21
TORSDOF 7
ENDMDL
MODEL 2
REMARK VINA RESULT:      -8.7      0.747      1.446
REMARK  Name = 
REMARK  8 active torsions:
REMARK  status: ('A' for Active; 'I' for Inactive)
REMARK    1  A    between atoms: C_1  and  N_2
REMARK    2  A    between atoms: C_6  and  C_7
REMARK    3  A    between atoms: C_7  and  C_8
REMARK    4  A    between atoms: C_8  and  C_9
REMARK    5  A    between atoms: C_13  and  N_14
REMARK    6  A    between atoms: N_17  and  C_18
REMARK    7  A    between atoms: C_19  and  C_20
REMARK    8  A    between atoms: C_20  and  C_21
REMARK                            x       y       z     vdW  Elec       q    Type
REMARK                         _______ _______ _______ _____ _____    ______ ____
ROOT
ATOM      1  C   UNL     1       4.183   5.644  17.966  0.00  0.00    +0.000 A 
ATOM      2  C   UNL     1       5.118   5.380  18.989  0.00  0.00    +0.000 A 
ATOM      3  C   UNL     1       6.376   4.846  18.725  0.00  0.00    +0.000 A 
ATOM      4  C   UNL     1       6.746   4.554  17.416  0.00  0.00    +0.000 A 
ATOM      5  C   UNL     1       5.865   4.790  16.362  0.00  0.00    +0.000 A 
ATOM      6  C   UNL     1       4.604   5.348  16.647  0.00  0.00    +0.000 A 
ENDROOT
BRANCH   5   7
ATOM      7  N   UNL     1       6.160   4.471  15.017  0.00  0.00    +0.000 N 
ATOM      8  C   UNL     1       7.178   4.972  14.245  0.00  0.00    +0.000 C 
ATOM      9  O   UNL     1       7.992   5.831  14.581  0.00  0.00    +0.000 OA
ATOM     10  N   UNL     1       7.296   4.473  12.976  0.00  0.00    +0.000 N 
ATOM     11  H   UNL     1       5.590   3.758  14.591  0.00  0.00    +0.000 HD
ATOM     12  H   UNL     1       8.078   4.905  12.497  0.00  0.00    +0.000 HD
BRANCH  10  13
ATOM     13  C   UNL     1       6.586   3.584  12.290  0.00  0.00    +0.000 C 
ATOM     14  C   UNL     1       5.399   3.257  11.881  0.00  0.00    +0.000 C 
ATOM     15  C   UNL     1       6.818   2.430  11.601  0.00  0.00    +0.000 C 
BRANCH  14  16
ATOM     16  C   UNL     1       4.344   2.480  11.161  0.00  0.00    +0.000 C 
BRANCH  16  17
ATOM     17  C   UNL     1       3.246   3.292  10.485  0.00  0.00    +0.000 C 
ATOM     18  F   UNL     1       3.420   4.624  10.612  0.00  0.00    +0.000 F 
ATOM     19  F   UNL     1       3.185   3.012   9.164  0.00  0.00    +0.000 F 
ATOM     20  F   UNL     1       2.037   2.989  11.017  0.00  0.00    +0.000 F 
ENDBRANCH  16  17
ENDBRANCH  14  16
ENDBRANCH  10  13
ENDBRANCH   5   7
BRANCH   1  21
ATOM     21  C   UNL     1       2.712   6.209  18.326  0.00  0.00    +0.000 C 
ATOM     22  C   UNL     1       2.513   7.026  19.634  0.00  0.00    +0.000 C 
ATOM     23  O   UNL     1       2.152   8.223  18.912  0.00  0.00    +0.000 OA
ATOM     24  C   UNL     1       2.365   7.571  17.648  0.00  0.00    +0.000 C 
BRANCH  21  25
ATOM     25  C   UNL     1       1.625   5.146  18.053  0.00  0.00    +0.000 C 
BRANCH  25  31
ATOM     26  C   UNL     1       2.858   2.222  17.815  0.00  0.00    +0.000 C 
ATOM     27  N   UNL     1       2.104   2.773  18.909  0.00  0.00    +0.000 N 
ATOM     28  C   UNL     1       1.744   2.082  20.027  0.00  0.00    +0.000 A 
ATOM     29  N   UNL     1       1.062   2.864  20.827  0.00  0.00    +0.000 NA
ATOM     30  N   UNL     1       0.961   4.090  20.219  0.00  0.00    +0.000 NA
ATOM     31  C   UNL     1       1.585   4.038  19.058  0.00  0.00    +0.000 A 
ENDBRANCH  25  31
ENDBRANCH  21  25
ENDBRANCH   1  21
TORSDOF 7
ENDMDL
MODEL 3
REMARK VINA RESULT:      -8.4      0.980      1.451
REMARK  Name = 
REMARK  8 active torsions:
REMARK  status: ('A' for Active; 'I' for Inactive)
REMARK    1  A    between atoms: C_1  and  N_2
REMARK    2  A    between atoms: C_6  and  C_7
REMARK    3  A    between atoms: C_7  and  C_8
REMARK    4  A    between atoms: C_8  and  C_9
REMARK    5  A    between atoms: C_13  and  N_14
REMARK    6  A    between atoms: N_17  and  C_18
REMARK    7  A    between atoms: C_19  and  C_20
REMARK    8  A    between atoms: C_20  and  C_21
REMARK                            x       y       z     vdW  Elec       q    Type
REMARK                         _______ _______ _______ _____ _____    ______ ____
ROOT
ATOM      1  C   UNL     1       4.842   5.375  18.244  0.00  0.00    +0.000 A 
ATOM      2  C   UNL     1       6.032   5.279  18.996  0.00  0.00    +0.000 A 
ATOM      3  C   UNL     1       7.247   4.920  18.420  0.00  0.00    +0.000 A 
ATOM      4  C   UNL     1       7.315   4.641  17.059  0.00  0.00    +0.000 A 
ATOM      5  C   UNL     1       6.173   4.716  16.263  0.00  0.00    +0.000 A 
ATOM      6  C   UNL     1       4.957   5.099  16.861  0.00  0.00    +0.000 A 
ENDROOT
BRANCH   5   7
ATOM      7  N   UNL     1       6.164   4.398  14.886  0.00  0.00    +0.000 N 
ATOM      8  C   UNL     1       7.120   4.711  13.952  0.00  0.00    +0.000 C 
ATOM      9  O   UNL     1       8.141   5.370  14.147  0.00  0.00    +0.000 OA
ATOM     10  N   UNL     1       6.916   4.250  12.679  0.00  0.00    +0.000 N 
ATOM     11  H   UNL     1       5.395   3.835  14.561  0.00  0.00    +0.000 HD
ATOM     12  H   UNL     1       7.679   4.532  12.075  0.00  0.00    +0.000 HD
BRANCH  10  13
ATOM     13  C   UNL     1       5.931   3.555  12.122  0.00  0.00    +0.000 C 
ATOM     14  C   UNL     1       4.708   3.599  11.693  0.00  0.00    +0.000 C 
ATOM     15  C   UNL     1       5.726   2.280  11.683  0.00  0.00    +0.000 C 
BRANCH  14  16
ATOM     16  C   UNL     1       3.442   3.122  11.055  0.00  0.00    +0.000 C 
BRANCH  16  17
ATOM     17  C   UNL     1       3.058   3.780   9.736  0.00  0.00    +0.000 C 
ATOM     18  F   UNL     1       3.014   2.911   8.704  0.00  0.00    +0.000 F 
ATOM     19  F   UNL     1       1.843   4.366   9.828  0.00  0.00    +0.000 F 
ATOM     20  F   UNL     1       3.948   4.748   9.412  0.00  0.00    +0.000 F 
ENDBRANCH  16  17
ENDBRANCH  14  16
ENDBRANCH  10  13
ENDBRANCH   5   7
BRANCH   1  21
ATOM     21  C   UNL     1       3.442   5.737  18.968  0.00  0.00    +0.000 C 
ATOM     22  C   UNL     1       3.120   7.222  19.293  0.00  0.00    +0.000 C 
ATOM     23  O   UNL     1       1.987   7.244  18.399  0.00  0.00    +0.000 OA
ATOM     24  C   UNL     1       2.236   5.889  17.989  0.00  0.00    +0.000 C 
BRANCH  21  25
ATOM     25  C   UNL     1       3.129   4.739  20.105  0.00  0.00    +0.000 C 
BRANCH  25  31
ATOM     26  C   UNL     1       3.592   2.009  18.539  0.00  0.00    +0.000 C 
ATOM     27  N   UNL     1       2.351   2.538  19.037  0.00  0.00    +0.000 N 
ATOM     28  C   UNL     1       1.133   1.954  18.859  0.00  0.00    +0.000 A 
ATOM     29  N   UNL     1       0.207   2.686  19.427  0.00  0.00    +0.000 NA
ATOM     30  N   UNL     1       0.825   3.778  19.981  0.00  0.00    +0.000 NA
ATOM     31  C   UNL     1       2.120   3.695  19.743  0.00  0.00    +0.000 A 
ENDBRANCH  25  31
ENDBRANCH  21  25
ENDBRANCH   1  21
TORSDOF 7
ENDMDL
MODEL 4
REMARK VINA RESULT:      -8.2      5.877      7.716
REMARK  Name = 
REMARK  8 active torsions:
REMARK  status: ('A' for Active; 'I' for Inactive)
REMARK    1  A    between atoms: C_1  and  N_2
REMARK    2  A    between atoms: C_6  and  C_7
REMARK    3  A    between atoms: C_7  and  C_8
REMARK    4  A    between atoms: C_8  and  C_9
REMARK    5  A    between atoms: C_13  and  N_14
REMARK    6  A    between atoms: N_17  and  C_18
REMARK    7  A    between atoms: C_19  and  C_20
REMARK    8  A    between atoms: C_20  and  C_21
REMARK                            x       y       z     vdW  Elec       q    Type
REMARK                         _______ _______ _______ _____ _____    ______ ____
ROOT
ATOM      1  C   UNL     1       4.847   4.191  17.022  0.00  0.00    +0.000 A 
ATOM      2  C   UNL     1       5.144   3.833  15.691  0.00  0.00    +0.000 A 
ATOM      3  C   UNL     1       6.154   4.455  14.963  0.00  0.00    +0.000 A 
ATOM      4  C   UNL     1       6.909   5.467  15.546  0.00  0.00    +0.000 A 
ATOM      5  C   UNL     1       6.662   5.867  16.858  0.00  0.00    +0.000 A 
ATOM      6  C   UNL     1       5.648   5.214  17.585  0.00  0.00    +0.000 A 
ENDROOT
BRANCH   5   7
ATOM      7  N   UNL     1       7.358   6.921  17.492  0.00  0.00    +0.000 N 
ATOM      8  C   UNL     1       8.058   6.867  18.672  0.00  0.00    +0.000 C 
ATOM      9  O   UNL     1       8.162   5.890  19.413  0.00  0.00    +0.000 OA
ATOM     10  N   UNL     1       8.697   8.011  19.066  0.00  0.00    +0.000 N 
ATOM     11  H   UNL     1       7.388   7.799  17.000  0.00  0.00    +0.000 HD
ATOM     12  H   UNL     1       9.184   7.861  19.942  0.00  0.00    +0.000 HD
BRANCH  10  13
ATOM     13  C   UNL     1       8.766   9.229  18.540  0.00  0.00    +0.000 C 
ATOM     14  C   UNL     1       9.494  10.296  18.418  0.00  0.00    +0.000 C 
ATOM     15  C   UNL     1       7.978  10.038  17.775  0.00  0.00    +0.000 C 
BRANCH  14  16
ATOM     16  C   UNL     1       9.893  11.657  17.946  0.00  0.00    +0.000 C 
BRANCH  16  17
ATOM     17  C   UNL     1      11.273  12.145  18.373  0.00  0.00    +0.000 C 
ATOM     18  F   UNL     1      11.222  13.172  19.247  0.00  0.00    +0.000 F 
ATOM     19  F   UNL     1      11.976  11.148  18.954  0.00  0.00    +0.000 F 
ATOM     20  F   UNL     1      11.981  12.564  17.297  0.00  0.00    +0.000 F 
ENDBRANCH  16  17
ENDBRANCH  14  16
ENDBRANCH  10  13
ENDBRANCH   5   7
BRANCH   1  21
ATOM     21  C   UNL     1       3.625   3.482  17.809  0.00  0.00    +0.000 C 
ATOM     22  C   UNL     1       3.430   1.945  17.676  0.00  0.00    +0.000 C 
ATOM     23  O   UNL     1       3.686   1.723  19.079  0.00  0.00    +0.000 OA
ATOM     24  C   UNL     1       3.943   3.121  19.294  0.00  0.00    +0.000 C 
BRANCH  21  25
ATOM     25  C   UNL     1       2.329   4.315  17.691  0.00  0.00    +0.000 C 
BRANCH  25  31
ATOM     26  C   UNL     1       3.009   7.415  17.908  0.00  0.00    +0.000 C 
ATOM     27  N   UNL     1       2.423   6.570  18.913  0.00  0.00    +0.000 N 
ATOM     28  C   UNL     1       2.109   6.973  20.177  0.00  0.00    +0.000 A 
ATOM     29  N   UNL     1       1.599   5.968  20.845  0.00  0.00    +0.000 NA
ATOM     30  N   UNL     1       1.586   4.880  20.009  0.00  0.00    +0.000 NA
ATOM     31  C   UNL     1       2.088   5.239  18.842  0.00  0.00    +0.000 A 
ENDBRANCH  25  31
ENDBRANCH  21  25
ENDBRANCH   1  21
TORSDOF 7
ENDMDL
MODEL 5
REMARK VINA RESULT:      -8.2      4.112      8.218
REMARK  Name = 
REMARK  8 active torsions:
REMARK  status: ('A' for Active; 'I' for Inactive)
REMARK    1  A    between atoms: C_1  and  N_2
REMARK    2  A    between atoms: C_6  and  C_7
REMARK    3  A    between atoms: C_7  and  C_8
REMARK    4  A    between atoms: C_8  and  C_9
REMARK    5  A    between atoms: C_13  and  N_14
REMARK    6  A    between atoms: N_17  and  C_18
REMARK    7  A    between atoms: C_19  and  C_20
REMARK    8  A    between atoms: C_20  and  C_21
REMARK                            x       y       z     vdW  Elec       q    Type
REMARK                         _______ _______ _______ _____ _____    ______ ____
ROOT
ATOM      1  C   UNL     1       4.576   4.834  17.100  0.00  0.00    +0.000 A 
ATOM      2  C   UNL     1       3.822   3.645  17.002  0.00  0.00    +0.000 A 
ATOM      3  C   UNL     1       2.491   3.576  17.401  0.00  0.00    +0.000 A 
ATOM      4  C   UNL     1       1.860   4.704  17.917  0.00  0.00    +0.000 A 
ATOM      5  C   UNL     1       2.553   5.907  18.040  0.00  0.00    +0.000 A 
ATOM      6  C   UNL     1       3.894   5.962  17.614  0.00  0.00    +0.000 A 
ENDROOT
BRANCH   5   7
ATOM      7  N   UNL     1       1.987   7.074  18.601  0.00  0.00    +0.000 N 
ATOM      8  C   UNL     1       1.892   7.399  19.932  0.00  0.00    +0.000 C 
ATOM      9  O   UNL     1       2.248   6.699  20.879  0.00  0.00    +0.000 OA
ATOM     10  N   UNL     1       1.344   8.616  20.234  0.00  0.00    +0.000 N 
ATOM     11  H   UNL     1       1.660   7.771  17.951  0.00  0.00    +0.000 HD
ATOM     12  H   UNL     1       1.326   8.756  21.238  0.00  0.00    +0.000 HD
BRANCH  10  13
ATOM     13  C   UNL     1       0.834   9.585  19.482  0.00  0.00    +0.000 C 
ATOM     14  C   UNL     1      -0.258  10.158  19.080  0.00  0.00    +0.000 C 
ATOM     15  C   UNL     1       1.301  10.567  18.659  0.00  0.00    +0.000 C 
BRANCH  14  16
ATOM     16  C   UNL     1      -1.128  11.150  18.378  0.00  0.00    +0.000 C 
BRANCH  16  17
ATOM     17  C   UNL     1      -2.157  10.584  17.407  0.00  0.00    +0.000 C 
ATOM     18  F   UNL     1      -3.306  10.216  18.012  0.00  0.00    +0.000 F 
ATOM     19  F   UNL     1      -2.468  11.490  16.454  0.00  0.00    +0.000 F 
ATOM     20  F   UNL     1      -1.664   9.490  16.778  0.00  0.00    +0.000 F 
ENDBRANCH  16  17
ENDBRANCH  14  16
ENDBRANCH  10  13
ENDBRANCH   5   7
BRANCH   1  21
ATOM     21  C   UNL     1       6.137   4.851  16.680  0.00  0.00    +0.000 C 
ATOM     22  C   UNL     1       6.886   6.211  16.605  0.00  0.00    +0.000 C 
ATOM     23  O   UNL     1       7.785   5.853  17.676  0.00  0.00    +0.000 OA
ATOM     24  C   UNL     1       7.121   4.591  17.863  0.00  0.00    +0.000 C 
BRANCH  21  25
ATOM     25  C   UNL     1       6.406   3.895  15.497  0.00  0.00    +0.000 C 
BRANCH  25  31
ATOM     26  C   UNL     1       5.804   3.321  12.426  0.00  0.00    +0.000 C 
ATOM     27  N   UNL     1       6.739   4.264  12.978  0.00  0.00    +0.000 N 
ATOM     28  C   UNL     1       7.578   5.045  12.241  0.00  0.00    +0.000 A 
ATOM     29  N   UNL     1       8.303   5.787  13.040  0.00  0.00    +0.000 NA
ATOM     30  N   UNL     1       7.942   5.483  14.328  0.00  0.00    +0.000 NA
ATOM     31  C   UNL     1       7.000   4.559  14.295  0.00  0.00    +0.000 A 
ENDBRANCH  25  31
ENDBRANCH  21  25
ENDBRANCH   1  21
TORSDOF 7
ENDMDL
MODEL 6
REMARK VINA RESULT:      -8.1      2.032      2.384
REMARK  Name = 
REMARK  8 active torsions:
REMARK  status: ('A' for Active; 'I' for Inactive)
REMARK    1  A    between atoms: C_1  and  N_2
REMARK    2  A    between atoms: C_6  and  C_7
REMARK    3  A    between atoms: C_7  and  C_8
REMARK    4  A    between atoms: C_8  and  C_9
REMARK    5  A    between atoms: C_13  and  N_14
REMARK    6  A    between atoms: N_17  and  C_18
REMARK    7  A    between atoms: C_19  and  C_20
REMARK    8  A    between atoms: C_20  and  C_21
REMARK                            x       y       z     vdW  Elec       q    Type
REMARK                         _______ _______ _______ _____ _____    ______ ____
ROOT
ATOM      1  C   UNL     1       4.213   5.562  17.853  0.00  0.00    +0.000 A 
ATOM      2  C   UNL     1       5.195   5.335  18.839  0.00  0.00    +0.000 A 
ATOM      3  C   UNL     1       6.440   4.792  18.536  0.00  0.00    +0.000 A 
ATOM      4  C   UNL     1       6.748   4.452  17.222  0.00  0.00    +0.000 A 
ATOM      5  C   UNL     1       5.817   4.649  16.204  0.00  0.00    +0.000 A 
ATOM      6  C   UNL     1       4.570   5.217  16.528  0.00  0.00    +0.000 A 
ENDROOT
BRANCH   5   7
ATOM      7  N   UNL     1       6.048   4.279  14.859  0.00  0.00    +0.000 N 
ATOM      8  C   UNL     1       7.038   4.739  14.027  0.00  0.00    +0.000 C 
ATOM      9  O   UNL     1       7.878   5.596  14.298  0.00  0.00    +0.000 OA
ATOM     10  N   UNL     1       7.093   4.195  12.772  0.00  0.00    +0.000 N 
ATOM     11  H   UNL     1       5.450   3.561  14.483  0.00  0.00    +0.000 HD
ATOM     12  H   UNL     1       7.859   4.599  12.245  0.00  0.00    +0.000 HD
BRANCH  10  13
ATOM     13  C   UNL     1       6.341   3.295  12.148  0.00  0.00    +0.000 C 
ATOM     14  C   UNL     1       6.339   2.153  11.533  0.00  0.00    +0.000 C 
ATOM     15  C   UNL     1       5.028   3.141  11.815  0.00  0.00    +0.000 C 
BRANCH  14  16
ATOM     16  C   UNL     1       5.784   0.956  10.831  0.00  0.00    +0.000 C 
BRANCH  16  17
ATOM     17  C   UNL     1       6.089  -0.400  11.456  0.00  0.00    +0.000 C 
ATOM     18  F   UNL     1       7.390  -0.745  11.360  0.00  0.00    +0.000 F 
ATOM     19  F   UNL     1       5.758  -0.411  12.766  0.00  0.00    +0.000 F 
ATOM     20  F   UNL     1       5.367  -1.374  10.851  0.00  0.00    +0.000 F 
ENDBRANCH  16  17
ENDBRANCH  14  16
ENDBRANCH  10  13
ENDBRANCH   5   7
BRANCH   1  21
ATOM     21  C   UNL     1       2.759   6.140  18.262  0.00  0.00    +0.000 C 
ATOM     22  C   UNL     1       2.542   6.698  19.697  0.00  0.00    +0.000 C 
ATOM     23  O   UNL     1       2.285   8.033  19.212  0.00  0.00    +0.000 OA
ATOM     24  C   UNL     1       2.524   7.628  17.854  0.00  0.00    +0.000 C 
BRANCH  21  25
ATOM     25  C   UNL     1       1.629   5.222  17.744  0.00  0.00    +0.000 C 
BRANCH  25  31
ATOM     26  C   UNL     1       1.040   3.802  20.530  0.00  0.00    +0.000 C 
ATOM     27  N   UNL     1       1.561   3.205  19.330  0.00  0.00    +0.000 N 
ATOM     28  C   UNL     1       1.947   1.903  19.218  0.00  0.00    +0.000 A 
ATOM     29  N   UNL     1       2.380   1.675  18.003  0.00  0.00    +0.000 NA
ATOM     30  N   UNL     1       2.287   2.852  17.304  0.00  0.00    +0.000 NA
ATOM     31  C   UNL     1       1.797   3.780  18.104  0.00  0.00    +0.000 A 
ENDBRANCH  25  31
ENDBRANCH  21  25
ENDBRANCH   1  21
TORSDOF 7
ENDMDL
MODEL 7
REMARK VINA RESULT:      -8.0      5.777      7.492
REMARK  Name = 
REMARK  8 active torsions:
REMARK  status: ('A' for Active; 'I' for Inactive)
REMARK    1  A    between atoms: C_1  and  N_2
REMARK    2  A    between atoms: C_6  and  C_7
REMARK    3  A    between atoms: C_7  and  C_8
REMARK    4  A    between atoms: C_8  and  C_9
REMARK    5  A    between atoms: C_13  and  N_14
REMARK    6  A    between atoms: N_17  and  C_18
REMARK    7  A    between atoms: C_19  and  C_20
REMARK    8  A    between atoms: C_20  and  C_21
REMARK                            x       y       z     vdW  Elec       q    Type
REMARK                         _______ _______ _______ _____ _____    ______ ____
ROOT
ATOM      1  C   UNL     1       4.794   4.426  17.176  0.00  0.00    +0.000 A 
ATOM      2  C   UNL     1       5.088   3.998  15.865  0.00  0.00    +0.000 A 
ATOM      3  C   UNL     1       6.117   4.559  15.115  0.00  0.00    +0.000 A 
ATOM      4  C   UNL     1       6.895   5.579  15.654  0.00  0.00    +0.000 A 
ATOM      5  C   UNL     1       6.651   6.047  16.944  0.00  0.00    +0.000 A 
ATOM      6  C   UNL     1       5.617   5.454  17.695  0.00  0.00    +0.000 A 
ENDROOT
BRANCH   5   7
ATOM      7  N   UNL     1       7.370   7.112  17.532  0.00  0.00    +0.000 N 
ATOM      8  C   UNL     1       8.167   7.064  18.649  0.00  0.00    +0.000 C 
ATOM      9  O   UNL     1       8.358   6.082  19.365  0.00  0.00    +0.000 OA
ATOM     10  N   UNL     1       8.807   8.221  19.003  0.00  0.00    +0.000 N 
ATOM     11  H   UNL     1       7.336   7.996  17.050  0.00  0.00    +0.000 HD
ATOM     12  H   UNL     1       9.369   8.074  19.834  0.00  0.00    +0.000 HD
BRANCH  10  13
ATOM     13  C   UNL     1       8.800   9.446  18.489  0.00  0.00    +0.000 C 
ATOM     14  C   UNL     1       9.327  10.629  18.554  0.00  0.00    +0.000 C 
ATOM     15  C   UNL     1       8.130  10.121  17.512  0.00  0.00    +0.000 C 
BRANCH  14  16
ATOM     16  C   UNL     1       9.590  12.054  18.183  0.00  0.00    +0.000 C 
BRANCH  16  17
ATOM     17  C   UNL     1      11.017  12.395  17.771  0.00  0.00    +0.000 C 
ATOM     18  F   UNL     1      11.824  11.315  17.720  0.00  0.00    +0.000 F 
ATOM     19  F   UNL     1      11.038  12.980  16.553  0.00  0.00    +0.000 F 
ATOM     20  F   UNL     1      11.566  13.270  18.648  0.00  0.00    +0.000 F 
ENDBRANCH  16  17
ENDBRANCH  14  16
ENDBRANCH  10  13
ENDBRANCH   5   7
BRANCH   1  21
ATOM     21  C   UNL     1       3.550   3.786  17.988  0.00  0.00    +0.000 C 
ATOM     22  C   UNL     1       2.190   3.594  17.260  0.00  0.00    +0.000 C 
ATOM     23  O   UNL     1       2.249   2.157  17.384  0.00  0.00    +0.000 OA
ATOM     24  C   UNL     1       3.539   2.226  18.015  0.00  0.00    +0.000 C 
BRANCH  21  25
ATOM     25  C   UNL     1       3.449   4.380  19.410  0.00  0.00    +0.000 C 
BRANCH  25  31
ATOM     26  C   UNL     1       0.376   4.005  20.145  0.00  0.00    +0.000 C 
ATOM     27  N   UNL     1       1.509   3.342  20.732  0.00  0.00    +0.000 N 
ATOM     28  C   UNL     1       1.437   2.458  21.767  0.00  0.00    +0.000 A 
ATOM     29  N   UNL     1       2.640   2.038  22.070  0.00  0.00    +0.000 NA
ATOM     30  N   UNL     1       3.522   2.663  21.225  0.00  0.00    +0.000 NA
ATOM     31  C   UNL     1       2.842   3.456  20.418  0.00  0.00    +0.000 A 
ENDBRANCH  25  31
ENDBRANCH  21  25
ENDBRANCH   1  21
TORSDOF 7
ENDMDL
MODEL 8
REMARK VINA RESULT:      -7.9      5.845      7.494
REMARK  Name = 
REMARK  8 active torsions:
REMARK  status: ('A' for Active; 'I' for Inactive)
REMARK    1  A    between atoms: C_1  and  N_2
REMARK    2  A    between atoms: C_6  and  C_7
REMARK    3  A    between atoms: C_7  and  C_8
REMARK    4  A    between atoms: C_8  and  C_9
REMARK    5  A    between atoms: C_13  and  N_14
REMARK    6  A    between atoms: N_17  and  C_18
REMARK    7  A    between atoms: C_19  and  C_20
REMARK    8  A    between atoms: C_20  and  C_21
REMARK                            x       y       z     vdW  Elec       q    Type
REMARK                         _______ _______ _______ _____ _____    ______ ____
ROOT
ATOM      1  C   UNL     1       4.399   5.058  17.263  0.00  0.00    +0.000 A 
ATOM      2  C   UNL     1       4.663   4.524  15.984  0.00  0.00    +0.000 A 
ATOM      3  C   UNL     1       5.743   4.943  15.214  0.00  0.00    +0.000 A 
ATOM      4  C   UNL     1       6.606   5.921  15.699  0.00  0.00    +0.000 A 
ATOM      5  C   UNL     1       6.396   6.489  16.955  0.00  0.00    +0.000 A 
ATOM      6  C   UNL     1       5.308   6.039  17.727  0.00  0.00    +0.000 A 
ENDROOT
BRANCH   5   7
ATOM      7  N   UNL     1       7.205   7.519  17.485  0.00  0.00    +0.000 N 
ATOM      8  C   UNL     1       8.113   7.423  18.509  0.00  0.00    +0.000 C 
ATOM      9  O   UNL     1       8.350   6.419  19.180  0.00  0.00    +0.000 OA
ATOM     10  N   UNL     1       8.820   8.553  18.818  0.00  0.00    +0.000 N 
ATOM     11  H   UNL     1       7.145   8.415  17.028  0.00  0.00    +0.000 HD
ATOM     12  H   UNL     1       9.463   8.372  19.580  0.00  0.00    +0.000 HD
BRANCH  10  13
ATOM     13  C   UNL     1       8.795   9.790  18.333  0.00  0.00    +0.000 C 
ATOM     14  C   UNL     1       9.430  10.919  18.265  0.00  0.00    +0.000 C 
ATOM     15  C   UNL     1       7.959  10.554  17.573  0.00  0.00    +0.000 C 
BRANCH  14  16
ATOM     16  C   UNL     1       9.720  12.326  17.849  0.00  0.00    +0.000 C 
BRANCH  16  17
ATOM     17  C   UNL     1      11.175  12.655  17.538  0.00  0.00    +0.000 C 
ATOM     18  F   UNL     1      12.004  11.605  17.717  0.00  0.00    +0.000 F 
ATOM     19  F   UNL     1      11.311  13.069  16.258  0.00  0.00    +0.000 F 
ATOM     20  F   UNL     1      11.615  13.658  18.335  0.00  0.00    +0.000 F 
ENDBRANCH  16  17
ENDBRANCH  14  16
ENDBRANCH  10  13
ENDBRANCH   5   7
BRANCH   1  21
ATOM     21  C   UNL     1       3.097   4.584  18.096  0.00  0.00    +0.000 C 
ATOM     22  C   UNL     1       1.682   4.892  17.531  0.00  0.00    +0.000 C 
ATOM     23  O   UNL     1       1.364   3.493  17.375  0.00  0.00    +0.000 OA
ATOM     24  C   UNL     1       2.671   3.106  17.832  0.00  0.00    +0.000 C 
BRANCH  21  25
ATOM     25  C   UNL     1       3.270   4.864  19.606  0.00  0.00    +0.000 C 
BRANCH  25  31
ATOM     26  C   UNL     1       4.457   2.126  20.706  0.00  0.00    +0.000 C 
ATOM     27  N   UNL     1       3.143   2.668  20.928  0.00  0.00    +0.000 N 
ATOM     28  C   UNL     1       2.154   2.040  21.624  0.00  0.00    +0.000 A 
ATOM     29  N   UNL     1       1.082   2.793  21.639  0.00  0.00    +0.000 NA
ATOM     30  N   UNL     1       1.366   3.932  20.930  0.00  0.00    +0.000 NA
ATOM     31  C   UNL     1       2.610   3.859  20.495  0.00  0.00    +0.000 A 
ENDBRANCH  25  31
ENDBRANCH  21  25
ENDBRANCH   1  21
TORSDOF 7
ENDMDL
MODEL 9
REMARK VINA RESULT:      -7.9      4.093      8.363
REMARK  Name = 
REMARK  8 active torsions:
REMARK  status: ('A' for Active; 'I' for Inactive)
REMARK    1  A    between atoms: C_1  and  N_2
REMARK    2  A    between atoms: C_6  and  C_7
REMARK    3  A    between atoms: C_7  and  C_8
REMARK    4  A    between atoms: C_8  and  C_9
REMARK    5  A    between atoms: C_13  and  N_14
REMARK    6  A    between atoms: N_17  and  C_18
REMARK    7  A    between atoms: C_19  and  C_20
REMARK    8  A    between atoms: C_20  and  C_21
REMARK                            x       y       z     vdW  Elec       q    Type
REMARK                         _______ _______ _______ _____ _____    ______ ____
ROOT
ATOM      1  C   UNL     1       4.906   4.989  17.243  0.00  0.00    +0.000 A 
ATOM      2  C   UNL     1       4.191   3.877  16.751  0.00  0.00    +0.000 A 
ATOM      3  C   UNL     1       2.848   3.666  17.050  0.00  0.00    +0.000 A 
ATOM      4  C   UNL     1       2.167   4.569  17.860  0.00  0.00    +0.000 A 
ATOM      5  C   UNL     1       2.819   5.686  18.379  0.00  0.00    +0.000 A 
ATOM      6  C   UNL     1       4.173   5.892  18.050  0.00  0.00    +0.000 A 
ENDROOT
BRANCH   5   7
ATOM      7  N   UNL     1       2.200   6.613  19.247  0.00  0.00    +0.000 N 
ATOM      8  C   UNL     1       1.872   6.429  20.567  0.00  0.00    +0.000 C 
ATOM      9  O   UNL     1       2.022   5.396  21.218  0.00  0.00    +0.000 OA
ATOM     10  N   UNL     1       1.318   7.496  21.222  0.00  0.00    +0.000 N 
ATOM     11  H   UNL     1       2.022   7.530  18.870  0.00  0.00    +0.000 HD
ATOM     12  H   UNL     1       1.121   7.255  22.186  0.00  0.00    +0.000 HD
BRANCH  10  13
ATOM     13  C   UNL     1       0.990   8.722  20.828  0.00  0.00    +0.000 C 
ATOM     14  C   UNL     1       0.761   9.485  19.804  0.00  0.00    +0.000 C 
ATOM     15  C   UNL     1       0.705   9.921  21.411  0.00  0.00    +0.000 C 
BRANCH  14  16
ATOM     16  C   UNL     1       0.380  10.718  19.050  0.00  0.00    +0.000 C 
BRANCH  16  17
ATOM     17  C   UNL     1      -0.924  10.656  18.264  0.00  0.00    +0.000 C 
ATOM     18  F   UNL     1      -1.258  11.836  17.701  0.00  0.00    +0.000 F 
ATOM     19  F   UNL     1      -0.845   9.739  17.273  0.00  0.00    +0.000 F 
ATOM     20  F   UNL     1      -1.947  10.289  19.072  0.00  0.00    +0.000 F 
ENDBRANCH  16  17
ENDBRANCH  14  16
ENDBRANCH  10  13
ENDBRANCH   5   7
BRANCH   1  21
ATOM     21  C   UNL     1       6.480   5.161  16.917  0.00  0.00    +0.000 C 
ATOM     22  C   UNL     1       7.062   6.589  16.723  0.00  0.00    +0.000 C 
ATOM     23  O   UNL     1       7.916   6.473  17.881  0.00  0.00    +0.000 OA
ATOM     24  C   UNL     1       7.398   5.165  18.179  0.00  0.00    +0.000 C 
BRANCH  21  25
ATOM     25  C   UNL     1       6.950   4.120  15.876  0.00  0.00    +0.000 C 
BRANCH  25  31
ATOM     26  C   UNL     1       5.576   3.392  13.101  0.00  0.00    +0.000 C 
ATOM     27  N   UNL     1       6.640   4.331  13.337  0.00  0.00    +0.000 N 
ATOM     28  C   UNL     1       7.280   5.037  12.363  0.00  0.00    +0.000 A 
ATOM     29  N   UNL     1       8.199   5.798  12.903  0.00  0.00    +0.000 NA
ATOM     30  N   UNL     1       8.171   5.582  14.258  0.00  0.00    +0.000 NA
ATOM     31  C   UNL     1       7.233   4.692  14.523  0.00  0.00    +0.000 A 
ENDBRANCH  25  31
ENDBRANCH  21  25
ENDBRANCH   1  21
TORSDOF 7
ENDMDL
