MODEL 1
REMARK VINA RESULT:      -8.6      0.000      0.000
REMARK  Name = 
REMARK  2 active torsions:
REMARK  status: ('A' for Active; 'I' for Inactive)
REMARK    1  A    between atoms: C_1  and  C_2
REMARK    2  A    between atoms: C_11  and  C_12
REMARK                            x       y       z     vdW  Elec       q    Type
REMARK                         _______ _______ _______ _____ _____    ______ ____
ROOT
ATOM      1  C   UNL     1       7.470   4.881  12.359  0.00  0.00    +0.000 C 
ATOM      2  C   UNL     1       6.818   4.737  13.685  0.00  0.00    +0.000 A 
ATOM      3  C   UNL     1       5.543   4.200  13.981  0.00  0.00    +0.000 A 
ATOM      4  C   UNL     1       5.394   4.309  15.350  0.00  0.00    +0.000 A 
ATOM      5  N   UNL     1       4.372   3.983  16.193  0.00  0.00    +0.000 NA
ATOM      6  C   UNL     1       4.550   4.164  17.483  0.00  0.00    +0.000 A 
ATOM      7  N   UNL     1       3.540   3.879  18.385  0.00  0.00    +0.000 N 
ATOM      8  C   UNL     1       3.577   2.736  19.287  0.00  0.00    +0.000 C 
ATOM      9  C   UNL     1       2.174   2.155  19.229  0.00  0.00    +0.000 C 
ATOM     10  C   UNL     1       1.287   3.364  18.980  0.00  0.00    +0.000 C 
ATOM     11  C   UNL     1       2.165   4.339  18.172  0.00  0.00    +0.000 C 
ATOM     12  C   UNL     1       5.832   4.742  18.030  0.00  0.00    +0.000 A 
ATOM     13  C   UNL     1       6.019   4.983  19.394  0.00  0.00    +0.000 A 
ATOM     14  C   UNL     1       7.202   5.567  19.851  0.00  0.00    +0.000 A 
ATOM     15  C   UNL     1       8.200   5.930  18.945  0.00  0.00    +0.000 A 
ATOM     16  C   UNL     1       8.022   5.707  17.579  0.00  0.00    +0.000 A 
ATOM     17  C   UNL     1       6.836   5.113  17.138  0.00  0.00    +0.000 A 
ATOM     18  N   UNL     1       6.582   4.869  15.786  0.00  0.00    +0.000 N 
ATOM     19  N   UNL     1       7.454   5.146  14.791  0.00  0.00    +0.000 NA
ENDROOT
BRANCH  11  20
ATOM     20  C   UNL     1       2.039   5.756  18.688  0.00  0.00    +0.000 A 
ATOM     21  C   UNL     1       2.177   6.872  17.847  0.00  0.00    +0.000 A 
ATOM     22  C   UNL     1       2.061   8.158  18.359  0.00  0.00    +0.000 A 
ATOM     23  C   UNL     1       1.814   8.295  19.711  0.00  0.00    +0.000 A 
ATOM     24  N   UNL     1       1.668   7.252  20.558  0.00  0.00    +0.000 NA
ATOM     25  C   UNL     1       1.771   6.011  20.027  0.00  0.00    +0.000 A 
ENDBRANCH  11  20
TORSDOF 1
ENDMDL
MODEL 2
REMARK VINA RESULT:      -8.2      1.824      6.153
REMARK  Name = 
REMARK  2 active torsions:
REMARK  status: ('A' for Active; 'I' for Inactive)
REMARK    1  A    between atoms: C_1  and  C_2
REMARK    2  A    between atoms: C_11  and  C_12
REMARK                            x       y       z     vdW  Elec       q    Type
REMARK                         _______ _______ _______ _____ _____    ______ ____
ROOT
ATOM      1  C   UNL     1       1.332   2.506  22.216  0.00  0.00    +0.000 C 
ATOM      2  C   UNL     1       2.012   3.227  21.110  0.00  0.00    +0.000 A 
ATOM      3  C   UNL     1       3.012   2.745  20.233  0.00  0.00    +0.000 A 
ATOM      4  C   UNL     1       3.328   3.800  19.401  0.00  0.00    +0.000 A 
ATOM      5  N   UNL     1       4.231   3.933  18.387  0.00  0.00    +0.000 NA
ATOM      6  C   UNL     1       4.266   5.075  17.734  0.00  0.00    +0.000 A 
ATOM      7  N   UNL     1       5.179   5.279  16.715  0.00  0.00    +0.000 N 
ATOM      8  C   UNL     1       4.805   5.330  15.307  0.00  0.00    +0.000 C 
ATOM      9  C   UNL     1       5.868   4.512  14.596  0.00  0.00    +0.000 C 
ATOM     10  C   UNL     1       7.117   4.726  15.435  0.00  0.00    +0.000 C 
ATOM     11  C   UNL     1       6.597   4.941  16.870  0.00  0.00    +0.000 C 
ATOM     12  C   UNL     1       3.362   6.224  18.103  0.00  0.00    +0.000 A 
ATOM     13  C   UNL     1       3.420   7.458  17.448  0.00  0.00    +0.000 A 
ATOM     14  C   UNL     1       2.600   8.512  17.855  0.00  0.00    +0.000 A 
ATOM     15  C   UNL     1       1.727   8.344  18.932  0.00  0.00    +0.000 A 
ATOM     16  C   UNL     1       1.667   7.122  19.603  0.00  0.00    +0.000 A 
ATOM     17  C   UNL     1       2.488   6.073  19.177  0.00  0.00    +0.000 A 
ATOM     18  N   UNL     1       2.493   4.826  19.806  0.00  0.00    +0.000 N 
ATOM     19  N   UNL     1       1.694   4.502  20.848  0.00  0.00    +0.000 NA
ENDROOT
BRANCH  11  20
ATOM     20  C   UNL     1       7.302   6.096  17.547  0.00  0.00    +0.000 A 
ATOM     21  C   UNL     1       7.353   7.378  16.976  0.00  0.00    +0.000 A 
ATOM     22  C   UNL     1       8.014   8.412  17.625  0.00  0.00    +0.000 A 
ATOM     23  C   UNL     1       8.618   8.134  18.837  0.00  0.00    +0.000 A 
ATOM     24  N   UNL     1       8.591   6.919  19.428  0.00  0.00    +0.000 NA
ATOM     25  C   UNL     1       7.925   5.935  18.778  0.00  0.00    +0.000 A 
ENDBRANCH  11  20
TORSDOF 1
ENDMDL
MODEL 3
REMARK VINA RESULT:      -8.1      0.683      1.041
REMARK  Name = 
REMARK  2 active torsions:
REMARK  status: ('A' for Active; 'I' for Inactive)
REMARK    1  A    between atoms: C_1  and  C_2
REMARK    2  A    between atoms: C_11  and  C_12
REMARK                            x       y       z     vdW  Elec       q    Type
REMARK                         _______ _______ _______ _____ _____    ______ ____
ROOT
ATOM      1  C   UNL     1       6.985   4.447  12.438  0.00  0.00    +0.000 C 
ATOM      2  C   UNL     1       6.441   4.422  13.820  0.00  0.00    +0.000 A 
ATOM      3  C   UNL     1       5.200   3.907  14.264  0.00  0.00    +0.000 A 
ATOM      4  C   UNL     1       5.158   4.140  15.624  0.00  0.00    +0.000 A 
ATOM      5  N   UNL     1       4.209   3.888  16.572  0.00  0.00    +0.000 NA
ATOM      6  C   UNL     1       4.486   4.188  17.822  0.00  0.00    +0.000 A 
ATOM      7  N   UNL     1       3.554   3.982  18.823  0.00  0.00    +0.000 N 
ATOM      8  C   UNL     1       3.676   2.926  19.821  0.00  0.00    +0.000 C 
ATOM      9  C   UNL     1       2.281   2.334  19.927  0.00  0.00    +0.000 C 
ATOM     10  C   UNL     1       1.361   3.509  19.641  0.00  0.00    +0.000 C 
ATOM     11  C   UNL     1       2.159   4.411  18.679  0.00  0.00    +0.000 C 
ATOM     12  C   UNL     1       5.799   4.822  18.210  0.00  0.00    +0.000 A 
ATOM     13  C   UNL     1       6.089   5.189  19.528  0.00  0.00    +0.000 A 
ATOM     14  C   UNL     1       7.296   5.819  19.834  0.00  0.00    +0.000 A 
ATOM     15  C   UNL     1       8.215   6.103  18.823  0.00  0.00    +0.000 A 
ATOM     16  C   UNL     1       7.934   5.754  17.501  0.00  0.00    +0.000 A 
ATOM     17  C   UNL     1       6.725   5.114  17.211  0.00  0.00    +0.000 A 
ATOM     18  N   UNL     1       6.368   4.746  15.912  0.00  0.00    +0.000 N 
ATOM     19  N   UNL     1       7.156   4.935  14.830  0.00  0.00    +0.000 NA
ENDROOT
BRANCH  11  20
ATOM     20  C   UNL     1       2.056   5.869  19.072  0.00  0.00    +0.000 A 
ATOM     21  C   UNL     1       1.702   6.269  20.371  0.00  0.00    +0.000 A 
ATOM     22  C   UNL     1       1.612   7.617  20.693  0.00  0.00    +0.000 A 
ATOM     23  C   UNL     1       1.874   8.538  19.697  0.00  0.00    +0.000 A 
ATOM     24  N   UNL     1       2.223   8.202  18.435  0.00  0.00    +0.000 NA
ATOM     25  C   UNL     1       2.318   6.880  18.156  0.00  0.00    +0.000 A 
ENDBRANCH  11  20
TORSDOF 1
ENDMDL
MODEL 4
REMARK VINA RESULT:      -7.0      8.240     10.864
REMARK  Name = 
REMARK  2 active torsions:
REMARK  status: ('A' for Active; 'I' for Inactive)
REMARK    1  A    between atoms: C_1  and  C_2
REMARK    2  A    between atoms: C_11  and  C_12
REMARK                            x       y       z     vdW  Elec       q    Type
REMARK                         _______ _______ _______ _____ _____    ______ ____
ROOT
ATOM      1  C   UNL     1      -4.196   9.883  14.044  0.00  0.00    +0.000 C 
ATOM      2  C   UNL     1      -3.702  10.508  15.297  0.00  0.00    +0.000 A 
ATOM      3  C   UNL     1      -2.384  10.917  15.612  0.00  0.00    +0.000 A 
ATOM      4  C   UNL     1      -2.440  11.417  16.898  0.00  0.00    +0.000 A 
ATOM      5  N   UNL     1      -1.485  11.926  17.729  0.00  0.00    +0.000 NA
ATOM      6  C   UNL     1      -1.863  12.377  18.905  0.00  0.00    +0.000 A 
ATOM      7  N   UNL     1      -0.937  12.879  19.802  0.00  0.00    +0.000 N 
ATOM      8  C   UNL     1      -0.818  14.297  20.116  0.00  0.00    +0.000 C 
ATOM      9  C   UNL     1       0.677  14.565  20.127  0.00  0.00    +0.000 C 
ATOM     10  C   UNL     1       1.281  13.254  20.603  0.00  0.00    +0.000 C 
ATOM     11  C   UNL     1       0.309  12.167  20.104  0.00  0.00    +0.000 C 
ATOM     12  C   UNL     1      -3.303  12.314  19.350  0.00  0.00    +0.000 A 
ATOM     13  C   UNL     1      -3.712  12.747  20.615  0.00  0.00    +0.000 A 
ATOM     14  C   UNL     1      -5.047  12.623  21.005  0.00  0.00    +0.000 A 
ATOM     15  C   UNL     1      -5.979  12.049  20.139  0.00  0.00    +0.000 A 
ATOM     16  C   UNL     1      -5.583  11.600  18.878  0.00  0.00    +0.000 A 
ATOM     17  C   UNL     1      -4.244  11.740  18.498  0.00  0.00    +0.000 A 
ATOM     18  N   UNL     1      -3.771  11.305  17.258  0.00  0.00    +0.000 N 
ATOM     19  N   UNL     1      -4.550  10.746  16.306  0.00  0.00    +0.000 NA
ENDROOT
BRANCH  11  20
ATOM     20  C   UNL     1       0.032  11.136  21.176  0.00  0.00    +0.000 A 
ATOM     21  C   UNL     1       0.356   9.779  21.009  0.00  0.00    +0.000 A 
ATOM     22  C   UNL     1       0.082   8.861  22.014  0.00  0.00    +0.000 A 
ATOM     23  C   UNL     1      -0.520   9.326  23.168  0.00  0.00    +0.000 A 
ATOM     24  N   UNL     1      -0.844  10.621  23.377  0.00  0.00    +0.000 NA
ATOM     25  C   UNL     1      -0.550  11.495  22.385  0.00  0.00    +0.000 A 
ENDBRANCH  11  20
TORSDOF 1
ENDMDL
MODEL 5
REMARK VINA RESULT:      -6.4      7.361     10.460
REMARK  Name = 
REMARK  2 active torsions:
REMARK  status: ('A' for Active; 'I' for Inactive)
REMARK    1  A    between atoms: C_1  and  C_2
REMARK    2  A    between atoms: C_11  and  C_12
REMARK                            x       y       z     vdW  Elec       q    Type
REMARK                         _______ _______ _______ _____ _____    ______ ____
ROOT
ATOM      1  C   UNL     1      -3.021  10.087  15.026  0.00  0.00    +0.000 C 
ATOM      2  C   UNL     1      -2.744  10.529  16.417  0.00  0.00    +0.000 A 
ATOM      3  C   UNL     1      -3.468  11.457  17.202  0.00  0.00    +0.000 A 
ATOM      4  C   UNL     1      -2.799  11.537  18.407  0.00  0.00    +0.000 A 
ATOM      5  N   UNL     1      -3.014  12.280  19.531  0.00  0.00    +0.000 NA
ATOM      6  C   UNL     1      -2.214  12.096  20.559  0.00  0.00    +0.000 A 
ATOM      7  N   UNL     1      -2.366  12.840  21.716  0.00  0.00    +0.000 N 
ATOM      8  C   UNL     1      -2.885  12.283  22.959  0.00  0.00    +0.000 C 
ATOM      9  C   UNL     1      -3.849  13.335  23.478  0.00  0.00    +0.000 C 
ATOM     10  C   UNL     1      -3.253  14.648  22.996  0.00  0.00    +0.000 C 
ATOM     11  C   UNL     1      -2.532  14.296  21.681  0.00  0.00    +0.000 C 
ATOM     12  C   UNL     1      -1.068  11.117  20.502  0.00  0.00    +0.000 A 
ATOM     13  C   UNL     1      -0.182  10.945  21.570  0.00  0.00    +0.000 A 
ATOM     14  C   UNL     1       0.897  10.065  21.455  0.00  0.00    +0.000 A 
ATOM     15  C   UNL     1       1.106   9.365  20.267  0.00  0.00    +0.000 A 
ATOM     16  C   UNL     1       0.237   9.536  19.188  0.00  0.00    +0.000 A 
ATOM     17  C   UNL     1      -0.844  10.413  19.321  0.00  0.00    +0.000 A 
ATOM     18  N   UNL     1      -1.748  10.646  18.283  0.00  0.00    +0.000 N 
ATOM     19  N   UNL     1      -1.691  10.032  17.079  0.00  0.00    +0.000 NA
ENDROOT
BRANCH  11  20
ATOM     20  C   UNL     1      -1.165  14.940  21.608  0.00  0.00    +0.000 A 
ATOM     21  C   UNL     1      -0.719  15.617  20.460  0.00  0.00    +0.000 A 
ATOM     22  C   UNL     1       0.545  16.191  20.429  0.00  0.00    +0.000 A 
ATOM     23  C   UNL     1       1.339  16.068  21.554  0.00  0.00    +0.000 A 
ATOM     24  N   UNL     1       0.951  15.433  22.682  0.00  0.00    +0.000 NA
ATOM     25  C   UNL     1      -0.292  14.896  22.687  0.00  0.00    +0.000 A 
ENDBRANCH  11  20
TORSDOF 1
ENDMDL
MODEL 6
REMARK VINA RESULT:      -6.4      7.049     11.402
REMARK  Name = 
REMARK  2 active torsions:
REMARK  status: ('A' for Active; 'I' for Inactive)
REMARK    1  A    between atoms: C_1  and  C_2
REMARK    2  A    between atoms: C_11  and  C_12
REMARK                            x       y       z     vdW  Elec       q    Type
REMARK                         _______ _______ _______ _____ _____    ______ ____
ROOT
ATOM      1  C   UNL     1       1.237   7.549  21.186  0.00  0.00    +0.000 C 
ATOM      2  C   UNL     1       0.700   8.910  21.443  0.00  0.00    +0.000 A 
ATOM      3  C   UNL     1       0.128   9.416  22.634  0.00  0.00    +0.000 A 
ATOM      4  C   UNL     1      -0.234  10.719  22.357  0.00  0.00    +0.000 A 
ATOM      5  N   UNL     1      -0.844  11.683  23.106  0.00  0.00    +0.000 NA
ATOM      6  C   UNL     1      -1.014  12.871  22.568  0.00  0.00    +0.000 A 
ATOM      7  N   UNL     1      -1.652  13.880  23.267  0.00  0.00    +0.000 N 
ATOM      8  C   UNL     1      -0.954  15.038  23.811  0.00  0.00    +0.000 C 
ATOM      9  C   UNL     1      -1.537  15.221  25.201  0.00  0.00    +0.000 C 
ATOM     10  C   UNL     1      -2.971  14.735  25.064  0.00  0.00    +0.000 C 
ATOM     11  C   UNL     1      -2.917  13.650  23.971  0.00  0.00    +0.000 C 
ATOM     12  C   UNL     1      -0.579  13.167  21.154  0.00  0.00    +0.000 A 
ATOM     13  C   UNL     1      -0.795  14.411  20.554  0.00  0.00    +0.000 A 
ATOM     14  C   UNL     1      -0.422  14.627  19.225  0.00  0.00    +0.000 A 
ATOM     15  C   UNL     1       0.154  13.594  18.483  0.00  0.00    +0.000 A 
ATOM     16  C   UNL     1       0.364  12.344  19.066  0.00  0.00    +0.000 A 
ATOM     17  C   UNL     1      -0.006  12.146  20.400  0.00  0.00    +0.000 A 
ATOM     18  N   UNL     1       0.162  10.920  21.047  0.00  0.00    +0.000 N 
ATOM     19  N   UNL     1       0.719   9.831  20.471  0.00  0.00    +0.000 NA
ENDROOT
BRANCH  11  20
ATOM     20  C   UNL     1      -4.057  13.798  22.987  0.00  0.00    +0.000 A 
ATOM     21  C   UNL     1      -4.480  12.738  22.169  0.00  0.00    +0.000 A 
ATOM     22  C   UNL     1      -5.526  12.914  21.273  0.00  0.00    +0.000 A 
ATOM     23  C   UNL     1      -6.123  14.159  21.212  0.00  0.00    +0.000 A 
ATOM     24  N   UNL     1      -5.754  15.207  21.982  0.00  0.00    +0.000 NA
ATOM     25  C   UNL     1      -4.742  15.000  22.857  0.00  0.00    +0.000 A 
ENDBRANCH  11  20
TORSDOF 1
ENDMDL
MODEL 7
REMARK VINA RESULT:      -6.3      5.148      9.211
REMARK  Name = 
REMARK  2 active torsions:
REMARK  status: ('A' for Active; 'I' for Inactive)
REMARK    1  A    between atoms: C_1  and  C_2
REMARK    2  A    between atoms: C_11  and  C_12
REMARK                            x       y       z     vdW  Elec       q    Type
REMARK                         _______ _______ _______ _____ _____    ______ ____
ROOT
ATOM      1  C   UNL     1       2.644   6.448  18.107  0.00  0.00    +0.000 C 
ATOM      2  C   UNL     1       2.173   7.786  18.545  0.00  0.00    +0.000 A 
ATOM      3  C   UNL     1       2.288   9.022  17.866  0.00  0.00    +0.000 A 
ATOM      4  C   UNL     1       1.716   9.965  18.696  0.00  0.00    +0.000 A 
ATOM      5  N   UNL     1       1.561  11.316  18.584  0.00  0.00    +0.000 NA
ATOM      6  C   UNL     1       0.917  11.948  19.540  0.00  0.00    +0.000 A 
ATOM      7  N   UNL     1       0.752  13.321  19.496  0.00  0.00    +0.000 N 
ATOM      8  C   UNL     1      -0.527  13.963  19.219  0.00  0.00    +0.000 C 
ATOM      9  C   UNL     1      -0.193  15.085  18.251  0.00  0.00    +0.000 C 
ATOM     10  C   UNL     1       1.213  15.505  18.649  0.00  0.00    +0.000 C 
ATOM     11  C   UNL     1       1.869  14.222  19.196  0.00  0.00    +0.000 C 
ATOM     12  C   UNL     1       0.384  11.219  20.749  0.00  0.00    +0.000 A 
ATOM     13  C   UNL     1      -0.262  11.884  21.795  0.00  0.00    +0.000 A 
ATOM     14  C   UNL     1      -0.694  11.178  22.920  0.00  0.00    +0.000 A 
ATOM     15  C   UNL     1      -0.467   9.804  23.013  0.00  0.00    +0.000 A 
ATOM     16  C   UNL     1       0.187   9.129  21.982  0.00  0.00    +0.000 A 
ATOM     17  C   UNL     1       0.605   9.848  20.858  0.00  0.00    +0.000 A 
ATOM     18  N   UNL     1       1.277   9.245  19.792  0.00  0.00    +0.000 N 
ATOM     19  N   UNL     1       1.554   7.923  19.726  0.00  0.00    +0.000 NA
ENDROOT
BRANCH  11  20
ATOM     20  C   UNL     1       2.634  14.492  20.473  0.00  0.00    +0.000 A 
ATOM     21  C   UNL     1       4.020  14.286  20.572  0.00  0.00    +0.000 A 
ATOM     22  C   UNL     1       4.686  14.539  21.764  0.00  0.00    +0.000 A 
ATOM     23  C   UNL     1       3.942  14.991  22.837  0.00  0.00    +0.000 A 
ATOM     24  N   UNL     1       2.609  15.210  22.788  0.00  0.00    +0.000 NA
ATOM     25  C   UNL     1       1.990  14.968  21.608  0.00  0.00    +0.000 A 
ENDBRANCH  11  20
TORSDOF 1
ENDMDL
MODEL 8
REMARK VINA RESULT:      -6.3      7.552     10.697
REMARK  Name = 
REMARK  2 active torsions:
REMARK  status: ('A' for Active; 'I' for Inactive)
REMARK    1  A    between atoms: C_1  and  C_2
REMARK    2  A    between atoms: C_11  and  C_12
REMARK                            x       y       z     vdW  Elec       q    Type
REMARK                         _______ _______ _______ _____ _____    ______ ____
ROOT
ATOM      1  C   UNL     1      -3.231  10.071  14.812  0.00  0.00    +0.000 C 
ATOM      2  C   UNL     1      -2.967  10.548  16.194  0.00  0.00    +0.000 A 
ATOM      3  C   UNL     1      -3.756  11.413  16.988  0.00  0.00    +0.000 A 
ATOM      4  C   UNL     1      -3.072  11.564  18.178  0.00  0.00    +0.000 A 
ATOM      5  N   UNL     1      -3.331  12.293  19.302  0.00  0.00    +0.000 NA
ATOM      6  C   UNL     1      -2.496  12.192  20.313  0.00  0.00    +0.000 A 
ATOM      7  N   UNL     1      -2.691  12.928  21.468  0.00  0.00    +0.000 N 
ATOM      8  C   UNL     1      -3.130  12.337  22.725  0.00  0.00    +0.000 C 
ATOM      9  C   UNL     1      -4.177  13.301  23.259  0.00  0.00    +0.000 C 
ATOM     10  C   UNL     1      -3.714  14.659  22.756  0.00  0.00    +0.000 C 
ATOM     11  C   UNL     1      -2.992  14.363  21.427  0.00  0.00    +0.000 C 
ATOM     12  C   UNL     1      -1.266  11.323  20.238  0.00  0.00    +0.000 A 
ATOM     13  C   UNL     1      -0.346  11.241  21.287  0.00  0.00    +0.000 A 
ATOM     14  C   UNL     1       0.807  10.464  21.155  0.00  0.00    +0.000 A 
ATOM     15  C   UNL     1       1.055   9.775  19.966  0.00  0.00    +0.000 A 
ATOM     16  C   UNL     1       0.151   9.857  18.906  0.00  0.00    +0.000 A 
ATOM     17  C   UNL     1      -1.003  10.632  19.057  0.00  0.00    +0.000 A 
ATOM     18  N   UNL     1      -1.947  10.772  18.036  0.00  0.00    +0.000 N 
ATOM     19  N   UNL     1      -1.859  10.156  16.836  0.00  0.00    +0.000 NA
ENDROOT
BRANCH  11  20
ATOM     20  C   UNL     1      -1.692  15.130  21.320  0.00  0.00    +0.000 A 
ATOM     21  C   UNL     1      -0.741  15.135  22.355  0.00  0.00    +0.000 A 
ATOM     22  C   UNL     1       0.438  15.856  22.223  0.00  0.00    +0.000 A 
ATOM     23  C   UNL     1       0.636  16.564  21.052  0.00  0.00    +0.000 A 
ATOM     24  N   UNL     1      -0.246  16.584  20.028  0.00  0.00    +0.000 NA
ATOM     25  C   UNL     1      -1.380  15.860  20.181  0.00  0.00    +0.000 A 
ENDBRANCH  11  20
TORSDOF 1
ENDMDL
MODEL 9
REMARK VINA RESULT:      -6.2      5.698      9.838
REMARK  Name = 
REMARK  2 active torsions:
REMARK  status: ('A' for Active; 'I' for Inactive)
REMARK    1  A    between atoms: C_1  and  C_2
REMARK    2  A    between atoms: C_11  and  C_12
REMARK                            x       y       z     vdW  Elec       q    Type
REMARK                         _______ _______ _______ _____ _____    ______ ____
ROOT
ATOM      1  C   UNL     1       2.378   7.205  18.029  0.00  0.00    +0.000 C 
ATOM      2  C   UNL     1       1.928   8.535  18.513  0.00  0.00    +0.000 A 
ATOM      3  C   UNL     1       2.092   9.795  17.891  0.00  0.00    +0.000 A 
ATOM      4  C   UNL     1       1.522  10.717  18.747  0.00  0.00    +0.000 A 
ATOM      5  N   UNL     1       1.403  12.075  18.689  0.00  0.00    +0.000 NA
ATOM      6  C   UNL     1       0.749  12.682  19.655  0.00  0.00    +0.000 A 
ATOM      7  N   UNL     1       0.620  14.059  19.666  0.00  0.00    +0.000 N 
ATOM      8  C   UNL     1      -0.634  14.745  19.383  0.00  0.00    +0.000 C 
ATOM      9  C   UNL     1      -0.246  15.899  18.475  0.00  0.00    +0.000 C 
ATOM     10  C   UNL     1       1.158  16.265  18.928  0.00  0.00    +0.000 C 
ATOM     11  C   UNL     1       1.767  14.943  19.435  0.00  0.00    +0.000 C 
ATOM     12  C   UNL     1       0.165  11.916  20.816  0.00  0.00    +0.000 A 
ATOM     13  C   UNL     1      -0.493  12.552  21.873  0.00  0.00    +0.000 A 
ATOM     14  C   UNL     1      -0.973  11.810  22.953  0.00  0.00    +0.000 A 
ATOM     15  C   UNL     1      -0.784  10.427  22.992  0.00  0.00    +0.000 A 
ATOM     16  C   UNL     1      -0.118   9.780  21.950  0.00  0.00    +0.000 A 
ATOM     17  C   UNL     1       0.349  10.536  20.871  0.00  0.00    +0.000 A 
ATOM     18  N   UNL     1       1.034   9.962  19.798  0.00  0.00    +0.000 N 
ATOM     19  N   UNL     1       1.281   8.638  19.681  0.00  0.00    +0.000 NA
ENDROOT
BRANCH  11  20
ATOM     20  C   UNL     1       2.502  15.138  20.743  0.00  0.00    +0.000 A 
ATOM     21  C   UNL     1       2.244  16.229  21.590  0.00  0.00    +0.000 A 
ATOM     22  C   UNL     1       2.943  16.377  22.781  0.00  0.00    +0.000 A 
ATOM     23  C   UNL     1       3.896  15.426  23.093  0.00  0.00    +0.000 A 
ATOM     24  N   UNL     1       4.176  14.358  22.314  0.00  0.00    +0.000 NA
ATOM     25  C   UNL     1       3.466  14.232  21.167  0.00  0.00    +0.000 A 
ENDBRANCH  11  20
TORSDOF 1
ENDMDL
