MODEL 1
REMARK VINA RESULT:      -8.7      0.000      0.000
REMARK  Name = 
REMARK  7 active torsions:
REMARK  status: ('A' for Active; 'I' for Inactive)
REMARK    1  A    between atoms: C_1  and  C_2
REMARK    2  A    between atoms: C_8  and  S_9
REMARK    3  A    between atoms: S_9  and  N_12
REMARK    4  A    between atoms: N_12  and  C_13
REMARK    5  A    between atoms: C_18  and  C_19
REMARK    6  A    between atoms: C_20  and  C_21
REMARK    7  A    between atoms: C_27  and  C_28
REMARK                            x       y       z     vdW  Elec       q    Type
REMARK                         _______ _______ _______ _____ _____    ______ ____
ROOT
ATOM      1  S   UNL     1       2.414   2.771  18.404  0.00  0.00    +0.000 S 
ATOM      2  O   UNL     1       1.719   1.835  19.267  0.00  0.00    +0.000 OA
ATOM      3  O   UNL     1       2.045   2.880  17.007  0.00  0.00    +0.000 OA
ENDROOT
BRANCH   1  11
ATOM      4  C   UNL     1       0.824  10.823  21.175  0.00  0.00    +0.000 C 
ATOM      5  C   UNL     1       1.186   9.325  21.258  0.00  0.00    +0.000 C 
ATOM      6  O   UNL     1       1.147   8.798  22.376  0.00  0.00    +0.000 OA
ATOM      7  N   UNL     1       1.445   8.610  20.057  0.00  0.00    +0.000 N 
ATOM      8  C   UNL     1       1.700   7.165  19.948  0.00  0.00    +0.000 A 
ATOM      9  C   UNL     1       1.537   6.118  20.847  0.00  0.00    +0.000 A 
ATOM     10  C   UNL     1       1.796   4.761  20.377  0.00  0.00    +0.000 A 
ATOM     11  C   UNL     1       2.134   4.410  19.072  0.00  0.00    +0.000 A 
ATOM     12  C   UNL     1       2.241   5.473  18.200  0.00  0.00    +0.000 A 
ATOM     13  C   UNL     1       2.034   6.789  18.618  0.00  0.00    +0.000 A 
ATOM     14  C   UNL     1       2.173   8.006  17.766  0.00  0.00    +0.000 C 
ATOM     15  C   UNL     1       1.771   9.198  18.681  0.00  0.00    +0.000 C 
ATOM     16  C   UNL     1       0.649   9.953  17.967  0.00  0.00    +0.000 C 
ENDBRANCH   1  11
BRANCH   1  17
ATOM     17  N   UNL     1       4.079   2.442  18.511  0.00  0.00    +0.000 N 
ATOM     18  H   UNL     1       4.396   1.485  18.597  0.00  0.00    +0.000 HD
BRANCH  17  19
ATOM     19  C   UNL     1       5.025   3.528  18.385  0.00  0.00    +0.000 A 
ATOM     20  C   UNL     1       5.352   4.247  19.545  0.00  0.00    +0.000 A 
ATOM     21  C   UNL     1       6.215   5.313  19.536  0.00  0.00    +0.000 A 
ATOM     22  C   UNL     1       6.639   5.661  18.296  0.00  0.00    +0.000 A 
ATOM     23  O   UNL     1       7.688   6.431  18.186  0.00  0.00    +0.000 OA
ATOM     24  C   UNL     1       7.452   7.194  17.126  0.00  0.00    +0.000 A 
ATOM     25  C   UNL     1       8.119   8.671  17.826  0.00  0.00    +0.000 C 
ATOM     26  C   UNL     1       7.009   6.268  15.984  0.00  0.00    +0.000 A 
ATOM     27  C   UNL     1       6.511   5.214  14.764  0.00  0.00    +0.000 C 
ATOM     28  C   UNL     1       6.304   5.191  17.073  0.00  0.00    +0.000 A 
ATOM     29  C   UNL     1       5.591   3.905  17.127  0.00  0.00    +0.000 A 
ENDBRANCH  17  19
ENDBRANCH   1  17
TORSDOF 3
ENDMDL
MODEL 2
REMARK VINA RESULT:      -8.2      3.537      8.752
REMARK  Name = 
REMARK  7 active torsions:
REMARK  status: ('A' for Active; 'I' for Inactive)
REMARK    1  A    between atoms: C_1  and  C_2
REMARK    2  A    between atoms: C_8  and  S_9
REMARK    3  A    between atoms: S_9  and  N_12
REMARK    4  A    between atoms: N_12  and  C_13
REMARK    5  A    between atoms: C_18  and  C_19
REMARK    6  A    between atoms: C_20  and  C_21
REMARK    7  A    between atoms: C_27  and  C_28
REMARK                            x       y       z     vdW  Elec       q    Type
REMARK                         _______ _______ _______ _____ _____    ______ ____
ROOT
ATOM      1  S   UNL     1       0.643   9.312  21.190  0.00  0.00    +0.000 S 
ATOM      2  O   UNL     1      -0.656   8.670  21.236  0.00  0.00    +0.000 OA
ATOM      3  O   UNL     1       1.444   9.414  22.393  0.00  0.00    +0.000 OA
ENDROOT
BRANCH   1  11
ATOM      4  C   UNL     1       5.263   4.327  15.820  0.00  0.00    +0.000 C 
ATOM      5  C   UNL     1       4.695   5.621  16.440  0.00  0.00    +0.000 C 
ATOM      6  O   UNL     1       4.821   6.661  15.785  0.00  0.00    +0.000 OA
ATOM      7  N   UNL     1       3.979   5.542  17.666  0.00  0.00    +0.000 N 
ATOM      8  C   UNL     1       3.287   6.654  18.336  0.00  0.00    +0.000 A 
ATOM      9  C   UNL     1       2.937   7.929  17.910  0.00  0.00    +0.000 A 
ATOM     10  C   UNL     1       2.151   8.765  18.811  0.00  0.00    +0.000 A 
ATOM     11  C   UNL     1       1.657   8.370  20.052  0.00  0.00    +0.000 A 
ATOM     12  C   UNL     1       1.987   7.082  20.419  0.00  0.00    +0.000 A 
ATOM     13  C   UNL     1       2.766   6.262  19.601  0.00  0.00    +0.000 A 
ATOM     14  C   UNL     1       3.215   4.877  19.928  0.00  0.00    +0.000 C 
ATOM     15  C   UNL     1       3.986   4.386  18.670  0.00  0.00    +0.000 C 
ATOM     16  C   UNL     1       3.331   3.077  18.225  0.00  0.00    +0.000 C 
ENDBRANCH   1  11
BRANCH   1  17
ATOM     17  N   UNL     1       0.433  10.867  20.535  0.00  0.00    +0.000 N 
ATOM     18  H   UNL     1       1.211  11.514  20.521  0.00  0.00    +0.000 HD
BRANCH  17  19
ATOM     19  C   UNL     1      -0.831  11.214  19.924  0.00  0.00    +0.000 A 
ATOM     20  C   UNL     1      -1.741  11.964  20.685  0.00  0.00    +0.000 A 
ATOM     21  C   UNL     1      -2.978  12.323  20.217  0.00  0.00    +0.000 A 
ATOM     22  C   UNL     1      -3.271  11.806  18.997  0.00  0.00    +0.000 A 
ATOM     23  O   UNL     1      -4.258  12.324  18.318  0.00  0.00    +0.000 OA
ATOM     24  C   UNL     1      -4.807  11.305  17.668  0.00  0.00    +0.000 A 
ATOM     25  C   UNL     1      -6.477  11.832  17.903  0.00  0.00    +0.000 C 
ATOM     26  C   UNL     1      -3.672  10.535  16.979  0.00  0.00    +0.000 A 
ATOM     27  C   UNL     1      -2.390   9.710  16.254  0.00  0.00    +0.000 C 
ATOM     28  C   UNL     1      -2.591  10.945  18.206  0.00  0.00    +0.000 A 
ATOM     29  C   UNL     1      -1.185  10.785  18.607  0.00  0.00    +0.000 A 
ENDBRANCH  17  19
ENDBRANCH   1  17
TORSDOF 3
ENDMDL
MODEL 3
REMARK VINA RESULT:      -8.1      3.430      8.714
REMARK  Name = 
REMARK  7 active torsions:
REMARK  status: ('A' for Active; 'I' for Inactive)
REMARK    1  A    between atoms: C_1  and  C_2
REMARK    2  A    between atoms: C_8  and  S_9
REMARK    3  A    between atoms: S_9  and  N_12
REMARK    4  A    between atoms: N_12  and  C_13
REMARK    5  A    between atoms: C_18  and  C_19
REMARK    6  A    between atoms: C_20  and  C_21
REMARK    7  A    between atoms: C_27  and  C_28
REMARK                            x       y       z     vdW  Elec       q    Type
REMARK                         _______ _______ _______ _____ _____    ______ ____
ROOT
ATOM      1  S   UNL     1       0.679   9.386  21.499  0.00  0.00    +0.000 S 
ATOM      2  O   UNL     1      -0.680   8.982  21.807  0.00  0.00    +0.000 OA
ATOM      3  O   UNL     1       1.615   9.655  22.572  0.00  0.00    +0.000 OA
ENDROOT
BRANCH   1  11
ATOM      4  C   UNL     1       3.898   2.615  17.159  0.00  0.00    +0.000 C 
ATOM      5  C   UNL     1       3.712   4.088  17.583  0.00  0.00    +0.000 C 
ATOM      6  O   UNL     1       4.191   4.952  16.840  0.00  0.00    +0.000 OA
ATOM      7  N   UNL     1       2.928   4.381  18.732  0.00  0.00    +0.000 N 
ATOM      8  C   UNL     1       2.565   5.723  19.213  0.00  0.00    +0.000 A 
ATOM      9  C   UNL     1       2.650   6.980  18.625  0.00  0.00    +0.000 A 
ATOM     10  C   UNL     1       2.099   8.118  19.352  0.00  0.00    +0.000 A 
ATOM     11  C   UNL     1       1.429   8.049  20.572  0.00  0.00    +0.000 A 
ATOM     12  C   UNL     1       1.326   6.779  21.099  0.00  0.00    +0.000 A 
ATOM     13  C   UNL     1       1.869   5.668  20.452  0.00  0.00    +0.000 A 
ATOM     14  C   UNL     1       1.853   4.266  20.963  0.00  0.00    +0.000 C 
ATOM     15  C   UNL     1       2.517   3.413  19.846  0.00  0.00    +0.000 C 
ATOM     16  C   UNL     1       1.525   2.310  19.473  0.00  0.00    +0.000 C 
ENDBRANCH   1  11
BRANCH   1  17
ATOM     17  N   UNL     1       0.601  10.746  20.482  0.00  0.00    +0.000 N 
ATOM     18  H   UNL     1       1.449  11.248  20.250  0.00  0.00    +0.000 HD
BRANCH  17  19
ATOM     19  C   UNL     1      -0.665  11.116  19.888  0.00  0.00    +0.000 A 
ATOM     20  C   UNL     1      -1.524  11.934  20.637  0.00  0.00    +0.000 A 
ATOM     21  C   UNL     1      -2.759  12.320  20.184  0.00  0.00    +0.000 A 
ATOM     22  C   UNL     1      -3.104  11.762  18.997  0.00  0.00    +0.000 A 
ATOM     23  O   UNL     1      -4.089  12.288  18.320  0.00  0.00    +0.000 OA
ATOM     24  C   UNL     1      -4.694  11.264  17.731  0.00  0.00    +0.000 A 
ATOM     25  C   UNL     1      -6.335  11.867  17.983  0.00  0.00    +0.000 C 
ATOM     26  C   UNL     1      -3.608  10.420  17.049  0.00  0.00    +0.000 A 
ATOM     27  C   UNL     1      -2.379   9.513  16.330  0.00  0.00    +0.000 C 
ATOM     28  C   UNL     1      -2.479  10.840  18.229  0.00  0.00    +0.000 A 
ATOM     29  C   UNL     1      -1.070  10.642  18.601  0.00  0.00    +0.000 A 
ENDBRANCH  17  19
ENDBRANCH   1  17
TORSDOF 3
ENDMDL
MODEL 4
REMARK VINA RESULT:      -8.0      1.805      2.975
REMARK  Name = 
REMARK  7 active torsions:
REMARK  status: ('A' for Active; 'I' for Inactive)
REMARK    1  A    between atoms: C_1  and  C_2
REMARK    2  A    between atoms: C_8  and  S_9
REMARK    3  A    between atoms: S_9  and  N_12
REMARK    4  A    between atoms: N_12  and  C_13
REMARK    5  A    between atoms: C_18  and  C_19
REMARK    6  A    between atoms: C_20  and  C_21
REMARK    7  A    between atoms: C_27  and  C_28
REMARK                            x       y       z     vdW  Elec       q    Type
REMARK                         _______ _______ _______ _____ _____    ______ ____
ROOT
ATOM      1  S   UNL     1       2.231   3.561  20.733  0.00  0.00    +0.000 S 
ATOM      2  O   UNL     1       2.220   3.553  22.183  0.00  0.00    +0.000 OA
ATOM      3  O   UNL     1       1.217   2.834  19.997  0.00  0.00    +0.000 OA
ENDROOT
BRANCH   1  11
ATOM      4  C   UNL     1       1.294  11.937  18.734  0.00  0.00    +0.000 C 
ATOM      5  C   UNL     1       1.582  10.436  18.517  0.00  0.00    +0.000 C 
ATOM      6  O   UNL     1       2.140  10.117  17.462  0.00  0.00    +0.000 OA
ATOM      7  N   UNL     1       1.288   9.519  19.563  0.00  0.00    +0.000 N 
ATOM      8  C   UNL     1       1.594   8.080  19.563  0.00  0.00    +0.000 A 
ATOM      9  C   UNL     1       2.400   7.297  18.746  0.00  0.00    +0.000 A 
ATOM     10  C   UNL     1       2.565   5.888  19.089  0.00  0.00    +0.000 A 
ATOM     11  C   UNL     1       2.031   5.264  20.214  0.00  0.00    +0.000 A 
ATOM     12  C   UNL     1       1.276   6.086  21.023  0.00  0.00    +0.000 A 
ATOM     13  C   UNL     1       1.066   7.431  20.713  0.00  0.00    +0.000 A 
ATOM     14  C   UNL     1       0.228   8.386  21.496  0.00  0.00    +0.000 C 
ATOM     15  C   UNL     1       0.380   9.755  20.774  0.00  0.00    +0.000 C 
ATOM     16  C   UNL     1       0.866  10.762  21.818  0.00  0.00    +0.000 C 
ENDBRANCH   1  11
BRANCH   1  17
ATOM     17  N   UNL     1       3.765   3.036  20.220  0.00  0.00    +0.000 N 
ATOM     18  H   UNL     1       4.253   2.323  20.746  0.00  0.00    +0.000 HD
BRANCH  17  19
ATOM     19  C   UNL     1       4.314   3.552  18.985  0.00  0.00    +0.000 A 
ATOM     20  C   UNL     1       3.815   3.032  17.781  0.00  0.00    +0.000 A 
ATOM     21  C   UNL     1       4.284   3.426  16.555  0.00  0.00    +0.000 A 
ATOM     22  C   UNL     1       5.331   4.286  16.622  0.00  0.00    +0.000 A 
ATOM     23  O   UNL     1       5.649   4.970  15.556  0.00  0.00    +0.000 OA
ATOM     24  C   UNL     1       6.971   5.078  15.591  0.00  0.00    +0.000 A 
ATOM     25  C   UNL     1       7.209   4.841  13.857  0.00  0.00    +0.000 C 
ATOM     26  C   UNL     1       7.355   5.555  16.999  0.00  0.00    +0.000 A 
ATOM     27  C   UNL     1       7.731   6.064  18.564  0.00  0.00    +0.000 C 
ATOM     28  C   UNL     1       6.034   4.757  17.677  0.00  0.00    +0.000 A 
ATOM     29  C   UNL     1       5.360   4.526  18.964  0.00  0.00    +0.000 A 
ENDBRANCH  17  19
ENDBRANCH   1  17
TORSDOF 3
ENDMDL
MODEL 5
REMARK VINA RESULT:      -7.7      4.018      9.397
REMARK  Name = 
REMARK  7 active torsions:
REMARK  status: ('A' for Active; 'I' for Inactive)
REMARK    1  A    between atoms: C_1  and  C_2
REMARK    2  A    between atoms: C_8  and  S_9
REMARK    3  A    between atoms: S_9  and  N_12
REMARK    4  A    between atoms: N_12  and  C_13
REMARK    5  A    between atoms: C_18  and  C_19
REMARK    6  A    between atoms: C_20  and  C_21
REMARK    7  A    between atoms: C_27  and  C_28
REMARK                            x       y       z     vdW  Elec       q    Type
REMARK                         _______ _______ _______ _____ _____    ______ ____
ROOT
ATOM      1  S   UNL     1       0.492   9.768  20.565  0.00  0.00    +0.000 S 
ATOM      2  O   UNL     1      -0.726   9.008  20.766  0.00  0.00    +0.000 OA
ATOM      3  O   UNL     1       1.296  10.162  21.704  0.00  0.00    +0.000 OA
ENDROOT
BRANCH   1  11
ATOM      4  C   UNL     1       5.505   4.454  15.909  0.00  0.00    +0.000 C 
ATOM      5  C   UNL     1       4.871   5.782  16.377  0.00  0.00    +0.000 C 
ATOM      6  O   UNL     1       5.001   6.760  15.633  0.00  0.00    +0.000 OA
ATOM      7  N   UNL     1       4.099   5.795  17.570  0.00  0.00    +0.000 N 
ATOM      8  C   UNL     1       3.344   6.941  18.100  0.00  0.00    +0.000 A 
ATOM      9  C   UNL     1       2.981   8.160  17.540  0.00  0.00    +0.000 A 
ATOM     10  C   UNL     1       2.129   9.050  18.320  0.00  0.00    +0.000 A 
ATOM     11  C   UNL     1       1.587   8.757  19.570  0.00  0.00    +0.000 A 
ATOM     12  C   UNL     1       1.933   7.520  20.071  0.00  0.00    +0.000 A 
ATOM     13  C   UNL     1       2.773   6.652  19.370  0.00  0.00    +0.000 A 
ATOM     14  C   UNL     1       3.243   5.319  19.848  0.00  0.00    +0.000 C 
ATOM     15  C   UNL     1       4.088   4.738  18.679  0.00  0.00    +0.000 C 
ATOM     16  C   UNL     1       3.492   3.373  18.329  0.00  0.00    +0.000 C 
ENDBRANCH   1  11
BRANCH   1  17
ATOM     17  N   UNL     1       0.099  11.154  19.662  0.00  0.00    +0.000 N 
ATOM     18  H   UNL     1       0.790  11.565  19.048  0.00  0.00    +0.000 HD
BRANCH  17  19
ATOM     19  C   UNL     1      -1.249  11.676  19.715  0.00  0.00    +0.000 A 
ATOM     20  C   UNL     1      -1.688  12.230  20.927  0.00  0.00    +0.000 A 
ATOM     21  C   UNL     1      -2.955  12.726  21.098  0.00  0.00    +0.000 A 
ATOM     22  C   UNL     1      -3.762  12.542  20.023  0.00  0.00    +0.000 A 
ATOM     23  O   UNL     1      -4.863  13.239  19.941  0.00  0.00    +0.000 OA
ATOM     24  C   UNL     1      -5.745  12.433  19.364  0.00  0.00    +0.000 A 
ATOM     25  C   UNL     1      -7.110  12.924  20.371  0.00  0.00    +0.000 C 
ATOM     26  C   UNL     1      -5.074  11.835  18.119  0.00  0.00    +0.000 A 
ATOM     27  C   UNL     1      -4.291  11.189  16.771  0.00  0.00    +0.000 C 
ATOM     28  C   UNL     1      -3.558  11.894  18.854  0.00  0.00    +0.000 A 
ATOM     29  C   UNL     1      -2.139  11.603  18.599  0.00  0.00    +0.000 A 
ENDBRANCH  17  19
ENDBRANCH   1  17
TORSDOF 3
ENDMDL
MODEL 6
REMARK VINA RESULT:      -7.7      3.960      9.389
REMARK  Name = 
REMARK  7 active torsions:
REMARK  status: ('A' for Active; 'I' for Inactive)
REMARK    1  A    between atoms: C_1  and  C_2
REMARK    2  A    between atoms: C_8  and  S_9
REMARK    3  A    between atoms: S_9  and  N_12
REMARK    4  A    between atoms: N_12  and  C_13
REMARK    5  A    between atoms: C_18  and  C_19
REMARK    6  A    between atoms: C_20  and  C_21
REMARK    7  A    between atoms: C_27  and  C_28
REMARK                            x       y       z     vdW  Elec       q    Type
REMARK                         _______ _______ _______ _____ _____    ______ ____
ROOT
ATOM      1  S   UNL     1       0.548   9.670  20.799  0.00  0.00    +0.000 S 
ATOM      2  O   UNL     1      -0.652   8.913  21.099  0.00  0.00    +0.000 OA
ATOM      3  O   UNL     1       1.411  10.117  21.873  0.00  0.00    +0.000 OA
ENDROOT
BRANCH   1  11
ATOM      4  C   UNL     1       5.303   4.192  16.062  0.00  0.00    +0.000 C 
ATOM      5  C   UNL     1       4.735   5.542  16.553  0.00  0.00    +0.000 C 
ATOM      6  O   UNL     1       4.917   6.525  15.826  0.00  0.00    +0.000 OA
ATOM      7  N   UNL     1       3.960   5.573  17.744  0.00  0.00    +0.000 N 
ATOM      8  C   UNL     1       3.262   6.746  18.292  0.00  0.00    +0.000 A 
ATOM      9  C   UNL     1       2.964   7.991  17.752  0.00  0.00    +0.000 A 
ATOM     10  C   UNL     1       2.155   8.910  18.546  0.00  0.00    +0.000 A 
ATOM     11  C   UNL     1       1.593   8.623  19.788  0.00  0.00    +0.000 A 
ATOM     12  C   UNL     1       1.875   7.361  20.268  0.00  0.00    +0.000 A 
ATOM     13  C   UNL     1       2.672   6.464  19.555  0.00  0.00    +0.000 A 
ATOM     14  C   UNL     1       3.073   5.101  20.010  0.00  0.00    +0.000 C 
ATOM     15  C   UNL     1       3.892   4.498  18.833  0.00  0.00    +0.000 C 
ATOM     16  C   UNL     1       3.228   3.172  18.457  0.00  0.00    +0.000 C 
ENDBRANCH   1  11
BRANCH   1  17
ATOM     17  N   UNL     1       0.095  11.014  19.860  0.00  0.00    +0.000 N 
ATOM     18  H   UNL     1       0.805  11.651  19.522  0.00  0.00    +0.000 HD
BRANCH  17  19
ATOM     19  C   UNL     1      -1.291  11.179  19.480  0.00  0.00    +0.000 A 
ATOM     20  C   UNL     1      -1.705  10.622  18.261  0.00  0.00    +0.000 A 
ATOM     21  C   UNL     1      -2.986  10.744  17.789  0.00  0.00    +0.000 A 
ATOM     22  C   UNL     1      -3.779  11.529  18.561  0.00  0.00    +0.000 A 
ATOM     23  O   UNL     1      -5.073  11.462  18.400  0.00  0.00    +0.000 OA
ATOM     24  C   UNL     1      -5.515  12.695  18.608  0.00  0.00    +0.000 A 
ATOM     25  C   UNL     1      -6.714  12.669  17.311  0.00  0.00    +0.000 C 
ATOM     26  C   UNL     1      -4.891  13.190  19.921  0.00  0.00    +0.000 A 
ATOM     27  C   UNL     1      -4.169  13.699  21.359  0.00  0.00    +0.000 C 
ATOM     28  C   UNL     1      -3.506  12.265  19.662  0.00  0.00    +0.000 A 
ATOM     29  C   UNL     1      -2.218  11.918  20.280  0.00  0.00    +0.000 A 
ENDBRANCH  17  19
ENDBRANCH   1  17
TORSDOF 3
ENDMDL
MODEL 7
REMARK VINA RESULT:      -7.7      3.252      8.351
REMARK  Name = 
REMARK  7 active torsions:
REMARK  status: ('A' for Active; 'I' for Inactive)
REMARK    1  A    between atoms: C_1  and  C_2
REMARK    2  A    between atoms: C_8  and  S_9
REMARK    3  A    between atoms: S_9  and  N_12
REMARK    4  A    between atoms: N_12  and  C_13
REMARK    5  A    between atoms: C_18  and  C_19
REMARK    6  A    between atoms: C_20  and  C_21
REMARK    7  A    between atoms: C_27  and  C_28
REMARK                            x       y       z     vdW  Elec       q    Type
REMARK                         _______ _______ _______ _____ _____    ______ ____
ROOT
ATOM      1  S   UNL     1       0.733   9.294  21.567  0.00  0.00    +0.000 S 
ATOM      2  O   UNL     1      -0.555   8.837  22.052  0.00  0.00    +0.000 OA
ATOM      3  O   UNL     1       1.757   9.703  22.506  0.00  0.00    +0.000 OA
ENDROOT
BRANCH   1  11
ATOM      4  C   UNL     1       3.846   2.441  17.279  0.00  0.00    +0.000 C 
ATOM      5  C   UNL     1       3.732   3.909  17.745  0.00  0.00    +0.000 C 
ATOM      6  O   UNL     1       4.349   4.756  17.091  0.00  0.00    +0.000 OA
ATOM      7  N   UNL     1       2.860   4.224  18.823  0.00  0.00    +0.000 N 
ATOM      8  C   UNL     1       2.555   5.574  19.322  0.00  0.00    +0.000 A 
ATOM      9  C   UNL     1       2.795   6.839  18.800  0.00  0.00    +0.000 A 
ATOM     10  C   UNL     1       2.262   7.992  19.518  0.00  0.00    +0.000 A 
ATOM     11  C   UNL     1       1.469   7.934  20.661  0.00  0.00    +0.000 A 
ATOM     12  C   UNL     1       1.215   6.660  21.121  0.00  0.00    +0.000 A 
ATOM     13  C   UNL     1       1.734   5.531  20.483  0.00  0.00    +0.000 A 
ATOM     14  C   UNL     1       1.558   4.119  20.929  0.00  0.00    +0.000 C 
ATOM     15  C   UNL     1       2.265   3.254  19.848  0.00  0.00    +0.000 C 
ATOM     16  C   UNL     1       1.234   2.248  19.332  0.00  0.00    +0.000 C 
ENDBRANCH   1  11
BRANCH   1  17
ATOM     17  N   UNL     1       0.456  10.562  20.468  0.00  0.00    +0.000 N 
ATOM     18  H   UNL     1       0.983  11.422  20.551  0.00  0.00    +0.000 HD
BRANCH  17  19
ATOM     19  C   UNL     1      -0.467  10.362  19.372  0.00  0.00    +0.000 A 
ATOM     20  C   UNL     1       0.015   9.717  18.223  0.00  0.00    +0.000 A 
ATOM     21  C   UNL     1      -0.763   9.502  17.114  0.00  0.00    +0.000 A 
ATOM     22  C   UNL     1      -2.000  10.053  17.200  0.00  0.00    +0.000 A 
ATOM     23  O   UNL     1      -2.923   9.653  16.369  0.00  0.00    +0.000 OA
ATOM     24  C   UNL     1      -3.658  10.729  16.118  0.00  0.00    +0.000 A 
ATOM     25  C   UNL     1      -3.870  10.393  14.397  0.00  0.00    +0.000 C 
ATOM     26  C   UNL     1      -4.011  11.368  17.468  0.00  0.00    +0.000 A 
ATOM     27  C   UNL     1      -4.361  12.046  18.973  0.00  0.00    +0.000 C 
ATOM     28  C   UNL     1      -2.564  10.835  18.149  0.00  0.00    +0.000 A 
ATOM     29  C   UNL     1      -1.815  10.834  19.415  0.00  0.00    +0.000 A 
ENDBRANCH  17  19
ENDBRANCH   1  17
TORSDOF 3
ENDMDL
MODEL 8
REMARK VINA RESULT:      -7.7      3.380      9.154
REMARK  Name = 
REMARK  7 active torsions:
REMARK  status: ('A' for Active; 'I' for Inactive)
REMARK    1  A    between atoms: C_1  and  C_2
REMARK    2  A    between atoms: C_8  and  S_9
REMARK    3  A    between atoms: S_9  and  N_12
REMARK    4  A    between atoms: N_12  and  C_13
REMARK    5  A    between atoms: C_18  and  C_19
REMARK    6  A    between atoms: C_20  and  C_21
REMARK    7  A    between atoms: C_27  and  C_28
REMARK                            x       y       z     vdW  Elec       q    Type
REMARK                         _______ _______ _______ _____ _____    ______ ____
ROOT
ATOM      1  S   UNL     1       0.587   9.054  21.079  0.00  0.00    +0.000 S 
ATOM      2  O   UNL     1      -0.474   8.126  21.419  0.00  0.00    +0.000 OA
ATOM      3  O   UNL     1       1.471   9.554  22.112  0.00  0.00    +0.000 OA
ENDROOT
BRANCH   1  11
ATOM      4  C   UNL     1       5.576   4.548  15.615  0.00  0.00    +0.000 C 
ATOM      5  C   UNL     1       4.920   5.783  16.270  0.00  0.00    +0.000 C 
ATOM      6  O   UNL     1       4.990   6.851  15.651  0.00  0.00    +0.000 OA
ATOM      7  N   UNL     1       4.195   5.619  17.481  0.00  0.00    +0.000 N 
ATOM      8  C   UNL     1       3.427   6.662  18.178  0.00  0.00    +0.000 A 
ATOM      9  C   UNL     1       3.004   7.928  17.789  0.00  0.00    +0.000 A 
ATOM     10  C   UNL     1       2.156   8.682  18.705  0.00  0.00    +0.000 A 
ATOM     11  C   UNL     1       1.672   8.215  19.926  0.00  0.00    +0.000 A 
ATOM     12  C   UNL     1       2.076   6.938  20.254  0.00  0.00    +0.000 A 
ATOM     13  C   UNL     1       2.914   6.196  19.420  0.00  0.00    +0.000 A 
ATOM     14  C   UNL     1       3.444   4.831  19.708  0.00  0.00    +0.000 C 
ATOM     15  C   UNL     1       4.260   4.431  18.446  0.00  0.00    +0.000 C 
ATOM     16  C   UNL     1       3.693   3.101  17.947  0.00  0.00    +0.000 C 
ENDBRANCH   1  11
BRANCH   1  17
ATOM     17  N   UNL     1      -0.115  10.374  20.268  0.00  0.00    +0.000 N 
ATOM     18  H   UNL     1      -0.438  10.263  19.315  0.00  0.00    +0.000 HD
BRANCH  17  19
ATOM     19  C   UNL     1      -0.324  11.614  20.981  0.00  0.00    +0.000 A 
ATOM     20  C   UNL     1       0.692  12.580  20.924  0.00  0.00    +0.000 A 
ATOM     21  C   UNL     1       0.613  13.778  21.585  0.00  0.00    +0.000 A 
ATOM     22  C   UNL     1      -0.488  13.896  22.370  0.00  0.00    +0.000 A 
ATOM     23  O   UNL     1      -0.836  15.084  22.786  0.00  0.00    +0.000 OA
ATOM     24  C   UNL     1      -1.334  14.896  24.001  0.00  0.00    +0.000 A 
ATOM     25  C   UNL     1      -0.611  16.343  24.709  0.00  0.00    +0.000 C 
ATOM     26  C   UNL     1      -2.347  13.745  23.908  0.00  0.00    +0.000 A 
ATOM     27  C   UNL     1      -3.438  12.466  23.763  0.00  0.00    +0.000 C 
ATOM     28  C   UNL     1      -1.470  13.016  22.667  0.00  0.00    +0.000 A 
ATOM     29  C   UNL     1      -1.497  11.857  21.762  0.00  0.00    +0.000 A 
ENDBRANCH  17  19
ENDBRANCH   1  17
TORSDOF 3
ENDMDL
MODEL 9
REMARK VINA RESULT:      -7.6      1.853      2.658
REMARK  Name = 
REMARK  7 active torsions:
REMARK  status: ('A' for Active; 'I' for Inactive)
REMARK    1  A    between atoms: C_1  and  C_2
REMARK    2  A    between atoms: C_8  and  S_9
REMARK    3  A    between atoms: S_9  and  N_12
REMARK    4  A    between atoms: N_12  and  C_13
REMARK    5  A    between atoms: C_18  and  C_19
REMARK    6  A    between atoms: C_20  and  C_21
REMARK    7  A    between atoms: C_27  and  C_28
REMARK                            x       y       z     vdW  Elec       q    Type
REMARK                         _______ _______ _______ _____ _____    ______ ____
ROOT
ATOM      1  S   UNL     1       3.877   3.662  18.694  0.00  0.00    +0.000 S 
ATOM      2  O   UNL     1       5.283   3.782  19.025  0.00  0.00    +0.000 OA
ATOM      3  O   UNL     1       3.097   2.565  19.230  0.00  0.00    +0.000 OA
ENDROOT
BRANCH   1  11
ATOM      4  C   UNL     1      -0.281  10.844  21.179  0.00  0.00    +0.000 C 
ATOM      5  C   UNL     1       0.495   9.517  21.318  0.00  0.00    +0.000 C 
ATOM      6  O   UNL     1       0.500   8.983  22.433  0.00  0.00    +0.000 OA
ATOM      7  N   UNL     1       1.073   8.930  20.160  0.00  0.00    +0.000 N 
ATOM      8  C   UNL     1       1.751   7.626  20.097  0.00  0.00    +0.000 A 
ATOM      9  C   UNL     1       1.814   6.562  20.989  0.00  0.00    +0.000 A 
ATOM     10  C   UNL     1       2.506   5.349  20.567  0.00  0.00    +0.000 A 
ATOM     11  C   UNL     1       3.062   5.135  19.307  0.00  0.00    +0.000 A 
ATOM     12  C   UNL     1       2.939   6.197  18.436  0.00  0.00    +0.000 A 
ATOM     13  C   UNL     1       2.314   7.387  18.813  0.00  0.00    +0.000 A 
ATOM     14  C   UNL     1       2.174   8.606  17.963  0.00  0.00    +0.000 C 
ATOM     15  C   UNL     1       1.349   9.611  18.816  0.00  0.00    +0.000 C 
ATOM     16  C   UNL     1       0.133  10.015  17.982  0.00  0.00    +0.000 C 
ENDBRANCH   1  11
BRANCH   1  17
ATOM     17  N   UNL     1       3.739   3.658  16.999  0.00  0.00    +0.000 N 
ATOM     18  H   UNL     1       2.847   3.453  16.569  0.00  0.00    +0.000 HD
BRANCH  17  19
ATOM     19  C   UNL     1       4.879   4.039  16.194  0.00  0.00    +0.000 A 
ATOM     20  C   UNL     1       5.716   5.053  16.684  0.00  0.00    +0.000 A 
ATOM     21  C   UNL     1       6.806   5.512  15.991  0.00  0.00    +0.000 A 
ATOM     22  C   UNL     1       6.938   4.964  14.757  0.00  0.00    +0.000 A 
ATOM     23  O   UNL     1       8.086   5.073  14.144  0.00  0.00    +0.000 OA
ATOM     24  C   UNL     1       7.784   5.196  12.857  0.00  0.00    +0.000 A 
ATOM     25  C   UNL     1       9.017   6.411  12.507  0.00  0.00    +0.000 C 
ATOM     26  C   UNL     1       6.787   4.081  12.511  0.00  0.00    +0.000 A 
ATOM     27  C   UNL     1       5.681   2.850  12.181  0.00  0.00    +0.000 C 
ATOM     28  C   UNL     1       6.147   4.110  14.071  0.00  0.00    +0.000 A 
ATOM     29  C   UNL     1       5.143   3.449  14.919  0.00  0.00    +0.000 A 
ENDBRANCH  17  19
ENDBRANCH   1  17
TORSDOF 3
ENDMDL
