MODEL 1
REMARK VINA RESULT:      -9.4      0.000      0.000
REMARK  Name = 
REMARK  3 active torsions:
REMARK  status: ('A' for Active; 'I' for Inactive)
REMARK    1  A    between atoms: C_7  and  S_8
REMARK    2  A    between atoms: S_8  and  N_11
REMARK    3  A    between atoms: N_14  and  C_15
REMARK                            x       y       z     vdW  Elec       q    Type
REMARK                         _______ _______ _______ _____ _____    ______ ____
ROOT
ATOM      1  S   UNL     1       3.877   3.199  18.585  0.00  0.00    +0.000 S 
ATOM      2  O   UNL     1       3.293   2.037  17.945  0.00  0.00    +0.000 OA
ATOM      3  O   UNL     1       4.523   3.097  19.877  0.00  0.00    +0.000 OA
ENDROOT
BRANCH   1  10
ATOM      4  O   UNL     1       8.514   5.881  12.635  0.00  0.00    +0.000 OA
ATOM      5  C   UNL     1       7.761   5.318  13.421  0.00  0.00    +0.000 A 
ATOM      6  C   UNL     1       6.722   4.391  12.933  0.00  0.00    +0.000 A 
ATOM      7  C   UNL     1       5.831   3.819  13.750  0.00  0.00    +0.000 A 
ATOM      8  C   UNL     1       5.884   4.098  15.177  0.00  0.00    +0.000 A 
ATOM      9  C   UNL     1       4.955   3.571  16.074  0.00  0.00    +0.000 A 
ATOM     10  C   UNL     1       5.072   3.863  17.444  0.00  0.00    +0.000 A 
ATOM     11  C   UNL     1       6.144   4.618  17.930  0.00  0.00    +0.000 A 
ATOM     12  C   UNL     1       7.063   5.157  17.031  0.00  0.00    +0.000 A 
ATOM     13  C   UNL     1       6.910   4.905  15.666  0.00  0.00    +0.000 A 
ATOM     14  O   UNL     1       7.840   5.505  14.794  0.00  0.00    +0.000 OA
ENDBRANCH   1  10
BRANCH   1  15
ATOM     15  N   UNL     1       2.702   4.389  18.654  0.00  0.00    +0.000 NA
ATOM     16  C   UNL     1       2.882   5.656  17.911  0.00  0.00    +0.000 C 
ATOM     17  C   UNL     1       3.153   6.838  18.857  0.00  0.00    +0.000 C 
ATOM     18  N   UNL     1       2.092   6.922  19.868  0.00  0.00    +0.000 N 
ATOM     19  C   UNL     1       1.884   5.701  20.664  0.00  0.00    +0.000 C 
ATOM     20  C   UNL     1       1.709   4.463  19.759  0.00  0.00    +0.000 C 
BRANCH  18  21
ATOM     21  C   UNL     1       1.509   8.136  20.197  0.00  0.00    +0.000 A 
ATOM     22  C   UNL     1       1.289   8.497  21.539  0.00  0.00    +0.000 A 
ATOM     23  C   UNL     1       0.817   9.765  21.902  0.00  0.00    +0.000 A 
ATOM     24  C   UNL     1       0.537  10.713  20.924  0.00  0.00    +0.000 A 
ATOM     25  C   UNL     1       0.703  10.376  19.585  0.00  0.00    +0.000 A 
ATOM     26  C   UNL     1       1.174   9.108  19.234  0.00  0.00    +0.000 A 
ATOM     27  F   UNL     1       1.372   8.867  17.926  0.00  0.00    +0.000 F 
ENDBRANCH  18  21
ENDBRANCH   1  15
TORSDOF 3
ENDMDL
MODEL 2
REMARK VINA RESULT:      -9.0      1.040      1.438
REMARK  Name = 
REMARK  3 active torsions:
REMARK  status: ('A' for Active; 'I' for Inactive)
REMARK    1  A    between atoms: C_7  and  S_8
REMARK    2  A    between atoms: S_8  and  N_11
REMARK    3  A    between atoms: N_14  and  C_15
REMARK                            x       y       z     vdW  Elec       q    Type
REMARK                         _______ _______ _______ _____ _____    ______ ____
ROOT
ATOM      1  S   UNL     1       3.502   2.832  18.721  0.00  0.00    +0.000 S 
ATOM      2  O   UNL     1       2.818   1.863  17.888  0.00  0.00    +0.000 OA
ATOM      3  O   UNL     1       4.134   2.440  19.963  0.00  0.00    +0.000 OA
ENDROOT
BRANCH   1  10
ATOM      4  O   UNL     1       8.467   5.928  13.255  0.00  0.00    +0.000 OA
ATOM      5  C   UNL     1       7.679   5.306  13.958  0.00  0.00    +0.000 A 
ATOM      6  C   UNL     1       6.713   4.368  13.355  0.00  0.00    +0.000 A 
ATOM      7  C   UNL     1       5.786   3.731  14.078  0.00  0.00    +0.000 A 
ATOM      8  C   UNL     1       5.722   3.948  15.515  0.00  0.00    +0.000 A 
ATOM      9  C   UNL     1       4.749   3.352  16.316  0.00  0.00    +0.000 A 
ATOM     10  C   UNL     1       4.753   3.586  17.702  0.00  0.00    +0.000 A 
ATOM     11  C   UNL     1       5.759   4.353  18.299  0.00  0.00    +0.000 A 
ATOM     12  C   UNL     1       6.721   4.962  17.495  0.00  0.00    +0.000 A 
ATOM     13  C   UNL     1       6.679   4.766  16.113  0.00  0.00    +0.000 A 
ATOM     14  O   UNL     1       7.649   5.434  15.340  0.00  0.00    +0.000 OA
ENDBRANCH   1  10
BRANCH   1  15
ATOM     15  N   UNL     1       2.438   4.089  19.021  0.00  0.00    +0.000 NA
ATOM     16  C   UNL     1       1.903   4.896  17.902  0.00  0.00    +0.000 C 
ATOM     17  C   UNL     1       2.494   6.316  17.890  0.00  0.00    +0.000 C 
ATOM     18  N   UNL     1       2.286   6.954  19.196  0.00  0.00    +0.000 N 
ATOM     19  C   UNL     1       2.824   6.215  20.350  0.00  0.00    +0.000 C 
ATOM     20  C   UNL     1       2.342   4.748  20.352  0.00  0.00    +0.000 C 
BRANCH  18  21
ATOM     21  C   UNL     1       1.834   8.261  19.291  0.00  0.00    +0.000 A 
ATOM     22  C   UNL     1       1.966   9.156  18.214  0.00  0.00    +0.000 A 
ATOM     23  C   UNL     1       1.410  10.442  18.239  0.00  0.00    +0.000 A 
ATOM     24  C   UNL     1       0.710  10.877  19.357  0.00  0.00    +0.000 A 
ATOM     25  C   UNL     1       0.595  10.035  20.458  0.00  0.00    +0.000 A 
ATOM     26  C   UNL     1       1.155   8.755  20.422  0.00  0.00    +0.000 A 
ATOM     27  F   UNL     1       0.955   7.967  21.493  0.00  0.00    +0.000 F 
ENDBRANCH  18  21
ENDBRANCH   1  15
TORSDOF 3
ENDMDL
MODEL 3
REMARK VINA RESULT:      -8.3      0.805      1.255
REMARK  Name = 
REMARK  3 active torsions:
REMARK  status: ('A' for Active; 'I' for Inactive)
REMARK    1  A    between atoms: C_7  and  S_8
REMARK    2  A    between atoms: S_8  and  N_11
REMARK    3  A    between atoms: N_14  and  C_15
REMARK                            x       y       z     vdW  Elec       q    Type
REMARK                         _______ _______ _______ _____ _____    ______ ____
ROOT
ATOM      1  S   UNL     1       3.719   3.564  18.867  0.00  0.00    +0.000 S 
ATOM      2  O   UNL     1       2.493   3.334  18.130  0.00  0.00    +0.000 OA
ATOM      3  O   UNL     1       4.306   2.525  19.688  0.00  0.00    +0.000 OA
ENDROOT
BRANCH   1  10
ATOM      4  O   UNL     1       8.422   5.614  12.720  0.00  0.00    +0.000 OA
ATOM      5  C   UNL     1       7.629   5.160  13.536  0.00  0.00    +0.000 A 
ATOM      6  C   UNL     1       6.429   4.426  13.090  0.00  0.00    +0.000 A 
ATOM      7  C   UNL     1       5.500   3.984  13.944  0.00  0.00    +0.000 A 
ATOM      8  C   UNL     1       5.670   4.214  15.371  0.00  0.00    +0.000 A 
ATOM      9  C   UNL     1       4.715   3.822  16.308  0.00  0.00    +0.000 A 
ATOM     10  C   UNL     1       4.947   4.055  17.674  0.00  0.00    +0.000 A 
ATOM     11  C   UNL     1       6.151   4.615  18.114  0.00  0.00    +0.000 A 
ATOM     12  C   UNL     1       7.098   5.021  17.176  0.00  0.00    +0.000 A 
ATOM     13  C   UNL     1       6.837   4.833  15.817  0.00  0.00    +0.000 A 
ATOM     14  O   UNL     1       7.807   5.296  14.906  0.00  0.00    +0.000 OA
ENDBRANCH   1  10
BRANCH   1  15
ATOM     15  N   UNL     1       3.508   4.940  19.795  0.00  0.00    +0.000 NA
ATOM     16  C   UNL     1       2.523   4.949  20.900  0.00  0.00    +0.000 C 
ATOM     17  C   UNL     1       1.301   5.823  20.568  0.00  0.00    +0.000 C 
ATOM     18  N   UNL     1       1.741   7.173  20.192  0.00  0.00    +0.000 N 
ATOM     19  C   UNL     1       2.699   7.234  19.076  0.00  0.00    +0.000 C 
ATOM     20  C   UNL     1       3.899   6.292  19.313  0.00  0.00    +0.000 C 
BRANCH  18  21
ATOM     21  C   UNL     1       1.108   8.298  20.696  0.00  0.00    +0.000 A 
ATOM     22  C   UNL     1       0.929   8.472  22.081  0.00  0.00    +0.000 A 
ATOM     23  C   UNL     1       0.405   9.653  22.623  0.00  0.00    +0.000 A 
ATOM     24  C   UNL     1       0.030  10.698  21.788  0.00  0.00    +0.000 A 
ATOM     25  C   UNL     1       0.153  10.545  20.411  0.00  0.00    +0.000 A 
ATOM     26  C   UNL     1       0.677   9.362  19.881  0.00  0.00    +0.000 A 
ATOM     27  F   UNL     1       0.829   9.302  18.547  0.00  0.00    +0.000 F 
ENDBRANCH  18  21
ENDBRANCH   1  15
TORSDOF 3
ENDMDL
MODEL 4
REMARK VINA RESULT:      -8.0      1.110      1.731
REMARK  Name = 
REMARK  3 active torsions:
REMARK  status: ('A' for Active; 'I' for Inactive)
REMARK    1  A    between atoms: C_7  and  S_8
REMARK    2  A    between atoms: S_8  and  N_11
REMARK    3  A    between atoms: N_14  and  C_15
REMARK                            x       y       z     vdW  Elec       q    Type
REMARK                         _______ _______ _______ _____ _____    ______ ____
ROOT
ATOM      1  S   UNL     1       4.222   3.454  19.011  0.00  0.00    +0.000 S 
ATOM      2  O   UNL     1       3.035   2.928  18.367  0.00  0.00    +0.000 OA
ATOM      3  O   UNL     1       4.992   2.648  19.935  0.00  0.00    +0.000 OA
ENDROOT
BRANCH   1  10
ATOM      4  O   UNL     1       8.285   5.598  12.454  0.00  0.00    +0.000 OA
ATOM      5  C   UNL     1       7.580   5.130  13.339  0.00  0.00    +0.000 A 
ATOM      6  C   UNL     1       6.352   4.383  13.006  0.00  0.00    +0.000 A 
ATOM      7  C   UNL     1       5.515   3.924  13.943  0.00  0.00    +0.000 A 
ATOM      8  C   UNL     1       5.819   4.148  15.348  0.00  0.00    +0.000 A 
ATOM      9  C   UNL     1       4.963   3.739  16.370  0.00  0.00    +0.000 A 
ATOM     10  C   UNL     1       5.323   3.968  17.709  0.00  0.00    +0.000 A 
ATOM     11  C   UNL     1       6.557   4.540  18.034  0.00  0.00    +0.000 A 
ATOM     12  C   UNL     1       7.404   4.964  17.012  0.00  0.00    +0.000 A 
ATOM     13  C   UNL     1       7.016   4.780  15.683  0.00  0.00    +0.000 A 
ATOM     14  O   UNL     1       7.888   5.261  14.686  0.00  0.00    +0.000 OA
ENDBRANCH   1  10
BRANCH   1  15
ATOM     15  N   UNL     1       3.805   4.893  19.757  0.00  0.00    +0.000 NA
ATOM     16  C   UNL     1       2.524   5.008  20.489  0.00  0.00    +0.000 C 
ATOM     17  C   UNL     1       1.520   5.905  19.744  0.00  0.00    +0.000 C 
ATOM     18  N   UNL     1       2.130   7.211  19.463  0.00  0.00    +0.000 N 
ATOM     19  C   UNL     1       3.392   7.166  18.709  0.00  0.00    +0.000 C 
ATOM     20  C   UNL     1       4.403   6.197  19.360  0.00  0.00    +0.000 C 
BRANCH  18  21
ATOM     21  C   UNL     1       1.434   8.388  19.686  0.00  0.00    +0.000 A 
ATOM     22  C   UNL     1       1.034   9.210  18.616  0.00  0.00    +0.000 A 
ATOM     23  C   UNL     1       0.226  10.339  18.804  0.00  0.00    +0.000 A 
ATOM     24  C   UNL     1      -0.199  10.689  20.081  0.00  0.00    +0.000 A 
ATOM     25  C   UNL     1       0.212   9.924  21.167  0.00  0.00    +0.000 A 
ATOM     26  C   UNL     1       1.019   8.800  20.968  0.00  0.00    +0.000 A 
ATOM     27  F   UNL     1       1.329   8.068  22.051  0.00  0.00    +0.000 F 
ENDBRANCH  18  21
ENDBRANCH   1  15
TORSDOF 3
ENDMDL
MODEL 5
REMARK VINA RESULT:      -7.9      5.567      9.696
REMARK  Name = 
REMARK  3 active torsions:
REMARK  status: ('A' for Active; 'I' for Inactive)
REMARK    1  A    between atoms: C_7  and  S_8
REMARK    2  A    between atoms: S_8  and  N_11
REMARK    3  A    between atoms: N_14  and  C_15
REMARK                            x       y       z     vdW  Elec       q    Type
REMARK                         _______ _______ _______ _____ _____    ______ ____
ROOT
ATOM      1  S   UNL     1       0.829  10.937  19.980  0.00  0.00    +0.000 S 
ATOM      2  O   UNL     1       1.634  11.800  19.139  0.00  0.00    +0.000 OA
ATOM      3  O   UNL     1       1.062  10.852  21.407  0.00  0.00    +0.000 OA
ENDROOT
BRANCH   1  10
ATOM      4  O   UNL     1      -6.816  12.397  18.099  0.00  0.00    +0.000 OA
ATOM      5  C   UNL     1      -5.618  12.154  18.188  0.00  0.00    +0.000 A 
ATOM      6  C   UNL     1      -4.918  11.421  17.116  0.00  0.00    +0.000 A 
ATOM      7  C   UNL     1      -3.632  11.068  17.211  0.00  0.00    +0.000 A 
ATOM      8  C   UNL     1      -2.876  11.424  18.402  0.00  0.00    +0.000 A 
ATOM      9  C   UNL     1      -1.547  11.043  18.583  0.00  0.00    +0.000 A 
ATOM     10  C   UNL     1      -0.865  11.435  19.748  0.00  0.00    +0.000 A 
ATOM     11  C   UNL     1      -1.479  12.259  20.697  0.00  0.00    +0.000 A 
ATOM     12  C   UNL     1      -2.812  12.625  20.524  0.00  0.00    +0.000 A 
ATOM     13  C   UNL     1      -3.498  12.188  19.388  0.00  0.00    +0.000 A 
ATOM     14  O   UNL     1      -4.855  12.551  19.278  0.00  0.00    +0.000 OA
ENDBRANCH   1  10
BRANCH   1  15
ATOM     15  N   UNL     1       0.874   9.398  19.326  0.00  0.00    +0.000 NA
ATOM     16  C   UNL     1       0.756   8.212  20.203  0.00  0.00    +0.000 C 
ATOM     17  C   UNL     1       2.089   7.453  20.318  0.00  0.00    +0.000 C 
ATOM     18  N   UNL     1       2.589   7.117  18.978  0.00  0.00    +0.000 N 
ATOM     19  C   UNL     1       2.759   8.260  18.066  0.00  0.00    +0.000 C 
ATOM     20  C   UNL     1       1.476   9.117  17.994  0.00  0.00    +0.000 C 
BRANCH  18  21
ATOM     21  C   UNL     1       3.087   5.855  18.695  0.00  0.00    +0.000 A 
ATOM     22  C   UNL     1       4.319   5.424  19.221  0.00  0.00    +0.000 A 
ATOM     23  C   UNL     1       4.785   4.114  19.051  0.00  0.00    +0.000 A 
ATOM     24  C   UNL     1       4.031   3.192  18.334  0.00  0.00    +0.000 A 
ATOM     25  C   UNL     1       2.828   3.595  17.764  0.00  0.00    +0.000 A 
ATOM     26  C   UNL     1       2.373   4.905  17.939  0.00  0.00    +0.000 A 
ATOM     27  F   UNL     1       1.174   5.213  17.416  0.00  0.00    +0.000 F 
ENDBRANCH  18  21
ENDBRANCH   1  15
TORSDOF 3
ENDMDL
MODEL 6
REMARK VINA RESULT:      -7.9      5.703      9.992
REMARK  Name = 
REMARK  3 active torsions:
REMARK  status: ('A' for Active; 'I' for Inactive)
REMARK    1  A    between atoms: C_7  and  S_8
REMARK    2  A    between atoms: S_8  and  N_11
REMARK    3  A    between atoms: N_14  and  C_15
REMARK                            x       y       z     vdW  Elec       q    Type
REMARK                         _______ _______ _______ _____ _____    ______ ____
ROOT
ATOM      1  S   UNL     1       0.781  11.138  20.137  0.00  0.00    +0.000 S 
ATOM      2  O   UNL     1       1.543  12.018  19.274  0.00  0.00    +0.000 OA
ATOM      3  O   UNL     1       1.125  10.977  21.534  0.00  0.00    +0.000 OA
ENDROOT
BRANCH   1  10
ATOM      4  O   UNL     1      -6.944  12.887  18.966  0.00  0.00    +0.000 OA
ATOM      5  C   UNL     1      -5.751  12.607  18.945  0.00  0.00    +0.000 A 
ATOM      6  C   UNL     1      -5.167  11.897  17.791  0.00  0.00    +0.000 A 
ATOM      7  C   UNL     1      -3.889  11.503  17.763  0.00  0.00    +0.000 A 
ATOM      8  C   UNL     1      -3.025  11.792  18.898  0.00  0.00    +0.000 A 
ATOM      9  C   UNL     1      -1.699  11.366  18.951  0.00  0.00    +0.000 A 
ATOM     10  C   UNL     1      -0.910  11.693  20.067  0.00  0.00    +0.000 A 
ATOM     11  C   UNL     1      -1.415  12.496  21.095  0.00  0.00    +0.000 A 
ATOM     12  C   UNL     1      -2.746  12.907  21.048  0.00  0.00    +0.000 A 
ATOM     13  C   UNL     1      -3.538  12.534  19.961  0.00  0.00    +0.000 A 
ATOM     14  O   UNL     1      -4.887  12.940  19.979  0.00  0.00    +0.000 OA
ENDBRANCH   1  10
BRANCH   1  15
ATOM     15  N   UNL     1       0.725   9.632  19.411  0.00  0.00    +0.000 NA
ATOM     16  C   UNL     1       0.803   8.405  20.234  0.00  0.00    +0.000 C 
ATOM     17  C   UNL     1       2.147   7.678  20.049  0.00  0.00    +0.000 C 
ATOM     18  N   UNL     1       2.381   7.418  18.623  0.00  0.00    +0.000 N 
ATOM     19  C   UNL     1       2.348   8.605  17.753  0.00  0.00    +0.000 C 
ATOM     20  C   UNL     1       1.061   9.428  17.975  0.00  0.00    +0.000 C 
BRANCH  18  21
ATOM     21  C   UNL     1       2.836   6.184  18.186  0.00  0.00    +0.000 A 
ATOM     22  C   UNL     1       1.979   5.070  18.133  0.00  0.00    +0.000 A 
ATOM     23  C   UNL     1       2.379   3.846  17.581  0.00  0.00    +0.000 A 
ATOM     24  C   UNL     1       3.664   3.695  17.074  0.00  0.00    +0.000 A 
ATOM     25  C   UNL     1       4.553   4.762  17.149  0.00  0.00    +0.000 A 
ATOM     26  C   UNL     1       4.143   5.979  17.702  0.00  0.00    +0.000 A 
ATOM     27  F   UNL     1       5.029   6.989  17.688  0.00  0.00    +0.000 F 
ENDBRANCH  18  21
ENDBRANCH   1  15
TORSDOF 3
ENDMDL
MODEL 7
REMARK VINA RESULT:      -7.7      5.865     10.743
REMARK  Name = 
REMARK  3 active torsions:
REMARK  status: ('A' for Active; 'I' for Inactive)
REMARK    1  A    between atoms: C_7  and  S_8
REMARK    2  A    between atoms: S_8  and  N_11
REMARK    3  A    between atoms: N_14  and  C_15
REMARK                            x       y       z     vdW  Elec       q    Type
REMARK                         _______ _______ _______ _____ _____    ______ ____
ROOT
ATOM      1  S   UNL     1       0.698  11.637  20.194  0.00  0.00    +0.000 S 
ATOM      2  O   UNL     1       1.089  12.561  19.148  0.00  0.00    +0.000 OA
ATOM      3  O   UNL     1       1.442  11.550  21.433  0.00  0.00    +0.000 OA
ENDROOT
BRANCH   1  10
ATOM      4  O   UNL     1      -6.504  13.512  23.147  0.00  0.00    +0.000 OA
ATOM      5  C   UNL     1      -5.376  13.123  22.867  0.00  0.00    +0.000 A 
ATOM      6  C   UNL     1      -4.430  12.734  23.930  0.00  0.00    +0.000 A 
ATOM      7  C   UNL     1      -3.167  12.380  23.671  0.00  0.00    +0.000 A 
ATOM      8  C   UNL     1      -2.695  12.359  22.294  0.00  0.00    +0.000 A 
ATOM      9  C   UNL     1      -1.377  12.047  21.963  0.00  0.00    +0.000 A 
ATOM     10  C   UNL     1      -0.989  12.024  20.613  0.00  0.00    +0.000 A 
ATOM     11  C   UNL     1      -1.920  12.244  19.592  0.00  0.00    +0.000 A 
ATOM     12  C   UNL     1      -3.233  12.572  19.926  0.00  0.00    +0.000 A 
ATOM     13  C   UNL     1      -3.598  12.643  21.271  0.00  0.00    +0.000 A 
ATOM     14  O   UNL     1      -4.926  13.017  21.558  0.00  0.00    +0.000 OA
ENDBRANCH   1  10
BRANCH   1  15
ATOM     15  N   UNL     1       0.588  10.112  19.514  0.00  0.00    +0.000 NA
ATOM     16  C   UNL     1       0.642   8.907  20.372  0.00  0.00    +0.000 C 
ATOM     17  C   UNL     1       1.961   8.137  20.192  0.00  0.00    +0.000 C 
ATOM     18  N   UNL     1       2.168   7.827  18.772  0.00  0.00    +0.000 N 
ATOM     19  C   UNL     1       2.157   8.988  17.867  0.00  0.00    +0.000 C 
ATOM     20  C   UNL     1       0.899   9.856  18.081  0.00  0.00    +0.000 C 
BRANCH  18  21
ATOM     21  C   UNL     1       2.581   6.567  18.367  0.00  0.00    +0.000 A 
ATOM     22  C   UNL     1       1.745   5.445  18.514  0.00  0.00    +0.000 A 
ATOM     23  C   UNL     1       2.087   4.187  18.003  0.00  0.00    +0.000 A 
ATOM     24  C   UNL     1       3.292   4.010  17.334  0.00  0.00    +0.000 A 
ATOM     25  C   UNL     1       4.163   5.086  17.206  0.00  0.00    +0.000 A 
ATOM     26  C   UNL     1       3.812   6.338  17.721  0.00  0.00    +0.000 A 
ATOM     27  F   UNL     1       4.669   7.351  17.510  0.00  0.00    +0.000 F 
ENDBRANCH  18  21
ENDBRANCH   1  15
TORSDOF 3
ENDMDL
MODEL 8
REMARK VINA RESULT:      -7.7      5.745      9.840
REMARK  Name = 
REMARK  3 active torsions:
REMARK  status: ('A' for Active; 'I' for Inactive)
REMARK    1  A    between atoms: C_7  and  S_8
REMARK    2  A    between atoms: S_8  and  N_11
REMARK    3  A    between atoms: N_14  and  C_15
REMARK                            x       y       z     vdW  Elec       q    Type
REMARK                         _______ _______ _______ _____ _____    ______ ____
ROOT
ATOM      1  S   UNL     1       0.589  11.108  20.134  0.00  0.00    +0.000 S 
ATOM      2  O   UNL     1       1.393  11.791  19.141  0.00  0.00    +0.000 OA
ATOM      3  O   UNL     1       0.848  11.273  21.549  0.00  0.00    +0.000 OA
ENDROOT
BRANCH   1  10
ATOM      4  O   UNL     1      -6.989  12.525  17.972  0.00  0.00    +0.000 OA
ATOM      5  C   UNL     1      -5.793  12.294  18.105  0.00  0.00    +0.000 A 
ATOM      6  C   UNL     1      -5.040  11.596  17.046  0.00  0.00    +0.000 A 
ATOM      7  C   UNL     1      -3.755  11.255  17.186  0.00  0.00    +0.000 A 
ATOM      8  C   UNL     1      -3.053  11.591  18.415  0.00  0.00    +0.000 A 
ATOM      9  C   UNL     1      -1.728  11.221  18.642  0.00  0.00    +0.000 A 
ATOM     10  C   UNL     1      -1.100  11.593  19.843  0.00  0.00    +0.000 A 
ATOM     11  C   UNL     1      -1.762  12.385  20.786  0.00  0.00    +0.000 A 
ATOM     12  C   UNL     1      -3.092  12.741  20.565  0.00  0.00    +0.000 A 
ATOM     13  C   UNL     1      -3.725  12.323  19.393  0.00  0.00    +0.000 A 
ATOM     14  O   UNL     1      -5.081  12.673  19.235  0.00  0.00    +0.000 OA
ENDBRANCH   1  10
BRANCH   1  15
ATOM     15  N   UNL     1       0.594   9.477  19.763  0.00  0.00    +0.000 NA
ATOM     16  C   UNL     1       0.526   8.467  20.843  0.00  0.00    +0.000 C 
ATOM     17  C   UNL     1       1.863   7.725  21.015  0.00  0.00    +0.000 C 
ATOM     18  N   UNL     1       2.284   7.152  19.731  0.00  0.00    +0.000 N 
ATOM     19  C   UNL     1       2.402   8.111  18.621  0.00  0.00    +0.000 C 
ATOM     20  C   UNL     1       1.119   8.957  18.471  0.00  0.00    +0.000 C 
BRANCH  18  21
ATOM     21  C   UNL     1       2.763   5.853  19.649  0.00  0.00    +0.000 A 
ATOM     22  C   UNL     1       4.060   5.585  19.173  0.00  0.00    +0.000 A 
ATOM     23  C   UNL     1       4.611   4.297  19.195  0.00  0.00    +0.000 A 
ATOM     24  C   UNL     1       3.870   3.229  19.687  0.00  0.00    +0.000 A 
ATOM     25  C   UNL     1       2.569   3.450  20.127  0.00  0.00    +0.000 A 
ATOM     26  C   UNL     1       2.029   4.739  20.099  0.00  0.00    +0.000 A 
ATOM     27  F   UNL     1       0.790   4.896  20.596  0.00  0.00    +0.000 F 
ENDBRANCH  18  21
ENDBRANCH   1  15
TORSDOF 3
ENDMDL
MODEL 9
REMARK VINA RESULT:      -7.6      1.901      2.655
REMARK  Name = 
REMARK  3 active torsions:
REMARK  status: ('A' for Active; 'I' for Inactive)
REMARK    1  A    between atoms: C_7  and  S_8
REMARK    2  A    between atoms: S_8  and  N_11
REMARK    3  A    between atoms: N_14  and  C_15
REMARK                            x       y       z     vdW  Elec       q    Type
REMARK                         _______ _______ _______ _____ _____    ______ ____
ROOT
ATOM      1  S   UNL     1       2.921   5.667  18.892  0.00  0.00    +0.000 S 
ATOM      2  O   UNL     1       1.793   5.221  18.098  0.00  0.00    +0.000 OA
ATOM      3  O   UNL     1       3.311   4.968  20.098  0.00  0.00    +0.000 OA
ENDROOT
BRANCH   1  10
ATOM      4  O   UNL     1       8.559   5.327  13.217  0.00  0.00    +0.000 OA
ATOM      5  C   UNL     1       7.630   5.206  14.007  0.00  0.00    +0.000 A 
ATOM      6  C   UNL     1       6.453   4.386  13.662  0.00  0.00    +0.000 A 
ATOM      7  C   UNL     1       5.386   4.292  14.463  0.00  0.00    +0.000 A 
ATOM      8  C   UNL     1       5.375   5.006  15.731  0.00  0.00    +0.000 A 
ATOM      9  C   UNL     1       4.274   4.988  16.586  0.00  0.00    +0.000 A 
ATOM     10  C   UNL     1       4.333   5.682  17.807  0.00  0.00    +0.000 A 
ATOM     11  C   UNL     1       5.503   6.336  18.207  0.00  0.00    +0.000 A 
ATOM     12  C   UNL     1       6.597   6.366  17.343  0.00  0.00    +0.000 A 
ATOM     13  C   UNL     1       6.512   5.717  16.110  0.00  0.00    +0.000 A 
ATOM     14  O   UNL     1       7.629   5.811  15.256  0.00  0.00    +0.000 OA
ENDBRANCH   1  10
BRANCH   1  15
ATOM     15  N   UNL     1       2.689   7.285  19.249  0.00  0.00    +0.000 NA
ATOM     16  C   UNL     1       2.058   7.683  20.527  0.00  0.00    +0.000 C 
ATOM     17  C   UNL     1       0.639   8.238  20.315  0.00  0.00    +0.000 C 
ATOM     18  N   UNL     1       0.673   9.333  19.337  0.00  0.00    +0.000 N 
ATOM     19  C   UNL     1       1.261   8.992  18.031  0.00  0.00    +0.000 C 
ATOM     20  C   UNL     1       2.648   8.334  18.194  0.00  0.00    +0.000 C 
BRANCH  18  21
ATOM     21  C   UNL     1      -0.018  10.514  19.560  0.00  0.00    +0.000 A 
ATOM     22  C   UNL     1       0.574  11.581  20.261  0.00  0.00    +0.000 A 
ATOM     23  C   UNL     1      -0.055  12.826  20.393  0.00  0.00    +0.000 A 
ATOM     24  C   UNL     1      -1.310  13.037  19.835  0.00  0.00    +0.000 A 
ATOM     25  C   UNL     1      -1.944  11.992  19.172  0.00  0.00    +0.000 A 
ATOM     26  C   UNL     1      -1.307  10.753  19.047  0.00  0.00    +0.000 A 
ATOM     27  F   UNL     1      -1.946   9.804  18.340  0.00  0.00    +0.000 F 
ENDBRANCH  18  21
ENDBRANCH   1  15
TORSDOF 3
ENDMDL
