MODEL 1
REMARK VINA RESULT:      -7.5      0.000      0.000
REMARK  Name = 
REMARK  5 active torsions:
REMARK  status: ('A' for Active; 'I' for Inactive)
REMARK    1  A    between atoms: C_1  and  N_2
REMARK    2  A    between atoms: C_4  and  C_5
REMARK    3  A    between atoms: N_7  and  C_8
REMARK    4  A    between atoms: N_7  and  C_15
REMARK    5  A    between atoms: C_8  and  C_9
REMARK                            x       y       z     vdW  Elec       q    Type
REMARK                         _______ _______ _______ _____ _____    ______ ____
ROOT
ATOM      1  C   UNL     1       4.100   4.098  17.134  0.00  0.00    +0.000 C 
ATOM      2  O   UNL     1       3.409   3.262  16.544  0.00  0.00    +0.000 OA
ATOM      3  N   UNL     1       5.462   4.277  16.798  0.00  0.00    +0.000 N 
ENDROOT
BRANCH   1   7
ATOM      4  C   UNL     1       1.960   3.904  21.521  0.00  0.00    +0.000 C 
ATOM      5  N   UNL     1       2.201   4.741  20.363  0.00  0.00    +0.000 N 
ATOM      6  C   UNL     1       2.400   4.138  19.040  0.00  0.00    +0.000 C 
ATOM      7  C   UNL     1       3.535   4.894  18.342  0.00  0.00    +0.000 C 
ATOM      8  C   UNL     1       3.046   6.328  18.158  0.00  0.00    +0.000 A 
ATOM      9  C   UNL     1       3.339   7.127  17.047  0.00  0.00    +0.000 A 
ATOM     10  C   UNL     1       2.898   8.455  17.000  0.00  0.00    +0.000 A 
ATOM     11  C   UNL     1       2.183   9.012  18.062  0.00  0.00    +0.000 A 
ATOM     12  C   UNL     1       1.904   8.243  19.187  0.00  0.00    +0.000 A 
ATOM     13  C   UNL     1       2.328   6.912  19.238  0.00  0.00    +0.000 A 
ATOM     14  C   UNL     1       2.036   6.124  20.482  0.00  0.00    +0.000 C 
ATOM     15  O   UNL     1       1.699   6.683  21.516  0.00  0.00    +0.000 OA
ENDBRANCH   1   7
BRANCH   3  16
ATOM     16  C   UNL     1       6.290   5.244  17.417  0.00  0.00    +0.000 A 
ATOM     17  C   UNL     1       6.396   6.534  16.881  0.00  0.00    +0.000 A 
ATOM     18  C   UNL     1       7.280   7.449  17.450  0.00  0.00    +0.000 A 
ATOM     19  C   UNL     1       8.039   7.073  18.552  0.00  0.00    +0.000 A 
ATOM     20  F   UNL     1       8.908   7.944  19.081  0.00  0.00    +0.000 F 
ATOM     21  C   UNL     1       7.917   5.807  19.113  0.00  0.00    +0.000 A 
ATOM     22  C   UNL     1       7.025   4.897  18.557  0.00  0.00    +0.000 A 
ENDBRANCH   3  16
BRANCH   3  23
ATOM     23  C   UNL     1       6.118   3.400  15.810  0.00  0.00    +0.000 C 
BRANCH  23  24
ATOM     24  C   UNL     1       6.451   4.033  14.476  0.00  0.00    +0.000 A 
ATOM     25  C   UNL     1       7.457   5.002  14.315  0.00  0.00    +0.000 A 
ATOM     26  C   UNL     1       7.850   5.386  13.030  0.00  0.00    +0.000 A 
ATOM     27  C   UNL     1       7.218   4.802  11.944  0.00  0.00    +0.000 A 
ATOM     28  N   UNL     1       6.205   3.919  12.060  0.00  0.00    +0.000 NA
ATOM     29  C   UNL     1       5.842   3.562  13.316  0.00  0.00    +0.000 A 
ENDBRANCH  23  24
ENDBRANCH   3  23
TORSDOF 4
ENDMDL
MODEL 2
REMARK VINA RESULT:      -7.3      2.976      7.168
REMARK  Name = 
REMARK  5 active torsions:
REMARK  status: ('A' for Active; 'I' for Inactive)
REMARK    1  A    between atoms: C_1  and  N_2
REMARK    2  A    between atoms: C_4  and  C_5
REMARK    3  A    between atoms: N_7  and  C_8
REMARK    4  A    between atoms: N_7  and  C_15
REMARK    5  A    between atoms: C_8  and  C_9
REMARK                            x       y       z     vdW  Elec       q    Type
REMARK                         _______ _______ _______ _____ _____    ______ ____
ROOT
ATOM      1  C   UNL     1       3.773   7.158  17.432  0.00  0.00    +0.000 C 
ATOM      2  O   UNL     1       3.905   8.301  16.985  0.00  0.00    +0.000 OA
ATOM      3  N   UNL     1       2.541   6.735  17.981  0.00  0.00    +0.000 N 
ENDROOT
BRANCH   1   7
ATOM      4  C   UNL     1       7.893   5.959  19.768  0.00  0.00    +0.000 C 
ATOM      5  N   UNL     1       7.165   5.834  18.521  0.00  0.00    +0.000 N 
ATOM      6  C   UNL     1       6.222   6.877  18.104  0.00  0.00    +0.000 C 
ATOM      7  C   UNL     1       4.983   6.188  17.521  0.00  0.00    +0.000 C 
ATOM      8  C   UNL     1       5.456   5.432  16.282  0.00  0.00    +0.000 A 
ATOM      9  C   UNL     1       4.705   5.288  15.111  0.00  0.00    +0.000 A 
ATOM     10  C   UNL     1       5.199   4.518  14.049  0.00  0.00    +0.000 A 
ATOM     11  C   UNL     1       6.429   3.866  14.148  0.00  0.00    +0.000 A 
ATOM     12  C   UNL     1       7.179   3.975  15.315  0.00  0.00    +0.000 A 
ATOM     13  C   UNL     1       6.702   4.752  16.375  0.00  0.00    +0.000 A 
ATOM     14  C   UNL     1       7.523   4.819  17.629  0.00  0.00    +0.000 C 
ATOM     15  O   UNL     1       8.423   4.016  17.835  0.00  0.00    +0.000 OA
ENDBRANCH   1   7
BRANCH   3  16
ATOM     16  C   UNL     1       2.323   5.426  18.476  0.00  0.00    +0.000 A 
ATOM     17  C   UNL     1       2.770   5.069  19.755  0.00  0.00    +0.000 A 
ATOM     18  C   UNL     1       2.624   3.755  20.196  0.00  0.00    +0.000 A 
ATOM     19  C   UNL     1       2.025   2.816  19.364  0.00  0.00    +0.000 A 
ATOM     20  F   UNL     1       1.911   1.548  19.778  0.00  0.00    +0.000 F 
ATOM     21  C   UNL     1       1.548   3.167  18.106  0.00  0.00    +0.000 A 
ATOM     22  C   UNL     1       1.678   4.481  17.669  0.00  0.00    +0.000 A 
ENDBRANCH   3  16
BRANCH   3  23
ATOM     23  C   UNL     1       1.416   7.678  18.128  0.00  0.00    +0.000 C 
BRANCH  23  24
ATOM     24  C   UNL     1       1.429   8.542  19.371  0.00  0.00    +0.000 A 
ATOM     25  C   UNL     1       1.178   9.924  19.348  0.00  0.00    +0.000 A 
ATOM     26  C   UNL     1       1.000  10.617  20.549  0.00  0.00    +0.000 A 
ATOM     27  C   UNL     1       1.092   9.912  21.737  0.00  0.00    +0.000 A 
ATOM     28  N   UNL     1       1.397   8.599  21.801  0.00  0.00    +0.000 NA
ATOM     29  C   UNL     1       1.565   7.950  20.623  0.00  0.00    +0.000 A 
ENDBRANCH  23  24
ENDBRANCH   3  23
TORSDOF 4
ENDMDL
MODEL 3
REMARK VINA RESULT:      -7.0      8.517     12.141
REMARK  Name = 
REMARK  5 active torsions:
REMARK  status: ('A' for Active; 'I' for Inactive)
REMARK    1  A    between atoms: C_1  and  N_2
REMARK    2  A    between atoms: C_4  and  C_5
REMARK    3  A    between atoms: N_7  and  C_8
REMARK    4  A    between atoms: N_7  and  C_15
REMARK    5  A    between atoms: C_8  and  C_9
REMARK                            x       y       z     vdW  Elec       q    Type
REMARK                         _______ _______ _______ _____ _____    ______ ____
ROOT
ATOM      1  C   UNL     1      -0.114  14.066  22.181  0.00  0.00    +0.000 C 
ATOM      2  O   UNL     1      -0.315  14.722  23.207  0.00  0.00    +0.000 OA
ATOM      3  N   UNL     1      -0.743  12.815  21.988  0.00  0.00    +0.000 N 
ENDROOT
BRANCH   1   7
ATOM      4  C   UNL     1       4.609  14.614  21.061  0.00  0.00    +0.000 C 
ATOM      5  N   UNL     1       3.266  15.062  20.755  0.00  0.00    +0.000 N 
ATOM      6  C   UNL     1       2.220  15.026  21.784  0.00  0.00    +0.000 C 
ATOM      7  C   UNL     1       0.928  14.529  21.126  0.00  0.00    +0.000 C 
ATOM      8  C   UNL     1       0.550  15.574  20.080  0.00  0.00    +0.000 A 
ATOM      9  C   UNL     1      -0.763  15.948  19.774  0.00  0.00    +0.000 A 
ATOM     10  C   UNL     1      -1.012  16.870  18.749  0.00  0.00    +0.000 A 
ATOM     11  C   UNL     1       0.035  17.412  18.003  0.00  0.00    +0.000 A 
ATOM     12  C   UNL     1       1.347  17.034  18.273  0.00  0.00    +0.000 A 
ATOM     13  C   UNL     1       1.607  16.125  19.302  0.00  0.00    +0.000 A 
ATOM     14  C   UNL     1       3.031  15.716  19.542  0.00  0.00    +0.000 C 
ATOM     15  O   UNL     1       3.898  15.938  18.709  0.00  0.00    +0.000 OA
ENDBRANCH   1   7
BRANCH   3  16
ATOM     16  C   UNL     1      -0.575  12.037  20.817  0.00  0.00    +0.000 A 
ATOM     17  C   UNL     1      -1.310  12.330  19.661  0.00  0.00    +0.000 A 
ATOM     18  C   UNL     1      -1.198  11.505  18.543  0.00  0.00    +0.000 A 
ATOM     19  C   UNL     1      -0.348  10.406  18.586  0.00  0.00    +0.000 A 
ATOM     20  F   UNL     1      -0.263   9.598  17.522  0.00  0.00    +0.000 F 
ATOM     21  C   UNL     1       0.411  10.124  19.717  0.00  0.00    +0.000 A 
ATOM     22  C   UNL     1       0.313  10.955  20.828  0.00  0.00    +0.000 A 
ENDBRANCH   3  16
BRANCH   3  23
ATOM     23  C   UNL     1      -1.573  12.214  23.050  0.00  0.00    +0.000 C 
BRANCH  23  24
ATOM     24  C   UNL     1      -3.017  12.666  23.102  0.00  0.00    +0.000 A 
ATOM     25  C   UNL     1      -3.646  13.349  22.047  0.00  0.00    +0.000 A 
ATOM     26  C   UNL     1      -5.029  13.548  22.077  0.00  0.00    +0.000 A 
ATOM     27  C   UNL     1      -5.741  13.072  23.166  0.00  0.00    +0.000 A 
ATOM     28  N   UNL     1      -5.163  12.472  24.226  0.00  0.00    +0.000 NA
ATOM     29  C   UNL     1      -3.821  12.290  24.173  0.00  0.00    +0.000 A 
ENDBRANCH  23  24
ENDBRANCH   3  23
TORSDOF 4
ENDMDL
MODEL 4
REMARK VINA RESULT:      -7.0      9.118     11.704
REMARK  Name = 
REMARK  5 active torsions:
REMARK  status: ('A' for Active; 'I' for Inactive)
REMARK    1  A    between atoms: C_1  and  N_2
REMARK    2  A    between atoms: C_4  and  C_5
REMARK    3  A    between atoms: N_7  and  C_8
REMARK    4  A    between atoms: N_7  and  C_15
REMARK    5  A    between atoms: C_8  and  C_9
REMARK                            x       y       z     vdW  Elec       q    Type
REMARK                         _______ _______ _______ _____ _____    ______ ____
ROOT
ATOM      1  C   UNL     1      -2.715  13.884  21.865  0.00  0.00    +0.000 C 
ATOM      2  O   UNL     1      -2.924  15.089  22.034  0.00  0.00    +0.000 OA
ATOM      3  N   UNL     1      -1.420  13.344  22.039  0.00  0.00    +0.000 N 
ENDROOT
BRANCH   1   7
ATOM      4  C   UNL     1      -4.626  11.553  18.021  0.00  0.00    +0.000 C 
ATOM      5  N   UNL     1      -4.907  12.068  19.346  0.00  0.00    +0.000 N 
ATOM      6  C   UNL     1      -4.162  13.220  19.867  0.00  0.00    +0.000 C 
ATOM      7  C   UNL     1      -3.833  12.944  21.339  0.00  0.00    +0.000 C 
ATOM      8  C   UNL     1      -5.172  12.856  22.067  0.00  0.00    +0.000 A 
ATOM      9  C   UNL     1      -5.395  13.320  23.368  0.00  0.00    +0.000 A 
ATOM     10  C   UNL     1      -6.643  13.135  23.977  0.00  0.00    +0.000 A 
ATOM     11  C   UNL     1      -7.673  12.468  23.312  0.00  0.00    +0.000 A 
ATOM     12  C   UNL     1      -7.463  11.974  22.028  0.00  0.00    +0.000 A 
ATOM     13  C   UNL     1      -6.226  12.166  21.406  0.00  0.00    +0.000 A 
ATOM     14  C   UNL     1      -6.027  11.592  20.034  0.00  0.00    +0.000 C 
ATOM     15  O   UNL     1      -6.797  10.754  19.585  0.00  0.00    +0.000 OA
ENDBRANCH   1   7
BRANCH   3  16
ATOM     16  C   UNL     1      -1.131  11.966  21.892  0.00  0.00    +0.000 A 
ATOM     17  C   UNL     1      -1.047  11.136  23.017  0.00  0.00    +0.000 A 
ATOM     18  C   UNL     1      -0.678   9.800  22.865  0.00  0.00    +0.000 A 
ATOM     19  C   UNL     1      -0.408   9.305  21.595  0.00  0.00    +0.000 A 
ATOM     20  F   UNL     1      -0.026   8.030  21.453  0.00  0.00    +0.000 F 
ATOM     21  C   UNL     1      -0.520  10.111  20.467  0.00  0.00    +0.000 A 
ATOM     22  C   UNL     1      -0.903  11.440  20.614  0.00  0.00    +0.000 A 
ENDBRANCH   3  16
BRANCH   3  23
ATOM     23  C   UNL     1      -0.268  14.220  22.324  0.00  0.00    +0.000 C 
BRANCH  23  24
ATOM     24  C   UNL     1       0.687  14.460  21.174  0.00  0.00    +0.000 A 
ATOM     25  C   UNL     1       1.877  13.732  20.999  0.00  0.00    +0.000 A 
ATOM     26  C   UNL     1       2.599  13.860  19.810  0.00  0.00    +0.000 A 
ATOM     27  C   UNL     1       2.120  14.721  18.836  0.00  0.00    +0.000 A 
ATOM     28  N   UNL     1       1.019  15.485  18.995  0.00  0.00    +0.000 NA
ATOM     29  C   UNL     1       0.336  15.342  20.156  0.00  0.00    +0.000 A 
ENDBRANCH  23  24
ENDBRANCH   3  23
TORSDOF 4
ENDMDL
MODEL 5
REMARK VINA RESULT:      -6.9      8.955     12.560
REMARK  Name = 
REMARK  5 active torsions:
REMARK  status: ('A' for Active; 'I' for Inactive)
REMARK    1  A    between atoms: C_1  and  N_2
REMARK    2  A    between atoms: C_4  and  C_5
REMARK    3  A    between atoms: N_7  and  C_8
REMARK    4  A    between atoms: N_7  and  C_15
REMARK    5  A    between atoms: C_8  and  C_9
REMARK                            x       y       z     vdW  Elec       q    Type
REMARK                         _______ _______ _______ _____ _____    ______ ____
ROOT
ATOM      1  C   UNL     1       0.208  15.007  21.631  0.00  0.00    +0.000 C 
ATOM      2  O   UNL     1       0.240  15.759  22.609  0.00  0.00    +0.000 OA
ATOM      3  N   UNL     1      -0.405  13.736  21.714  0.00  0.00    +0.000 N 
ENDROOT
BRANCH   1   7
ATOM      4  C   UNL     1       4.467  15.220  19.248  0.00  0.00    +0.000 C 
ATOM      5  N   UNL     1       3.119  15.746  19.300  0.00  0.00    +0.000 N 
ATOM      6  C   UNL     1       2.394  15.804  20.575  0.00  0.00    +0.000 C 
ATOM      7  C   UNL     1       0.945  15.376  20.314  0.00  0.00    +0.000 C 
ATOM      8  C   UNL     1       0.355  16.417  19.367  0.00  0.00    +0.000 A 
ATOM      9  C   UNL     1      -0.969  16.867  19.414  0.00  0.00    +0.000 A 
ATOM     10  C   UNL     1      -1.438  17.778  18.459  0.00  0.00    +0.000 A 
ATOM     11  C   UNL     1      -0.606  18.233  17.434  0.00  0.00    +0.000 A 
ATOM     12  C   UNL     1       0.706  17.777  17.353  0.00  0.00    +0.000 A 
ATOM     13  C   UNL     1       1.187  16.878  18.310  0.00  0.00    +0.000 A 
ATOM     14  C   UNL     1       2.597  16.384  18.171  0.00  0.00    +0.000 C 
ATOM     15  O   UNL     1       3.214  16.528  17.124  0.00  0.00    +0.000 OA
ENDBRANCH   1   7
BRANCH   3  16
ATOM     16  C   UNL     1      -0.500  12.849  20.616  0.00  0.00    +0.000 A 
ATOM     17  C   UNL     1      -1.491  13.029  19.643  0.00  0.00    +0.000 A 
ATOM     18  C   UNL     1      -1.627  12.100  18.613  0.00  0.00    +0.000 A 
ATOM     19  C   UNL     1      -0.767  11.009  18.558  0.00  0.00    +0.000 A 
ATOM     20  F   UNL     1      -0.916  10.102  17.585  0.00  0.00    +0.000 F 
ATOM     21  C   UNL     1       0.242  10.838  19.500  0.00  0.00    +0.000 A 
ATOM     22  C   UNL     1       0.389  11.772  20.519  0.00  0.00    +0.000 A 
ENDBRANCH   3  16
BRANCH   3  23
ATOM     23  C   UNL     1      -0.930  13.234  22.999  0.00  0.00    +0.000 C 
BRANCH  23  24
ATOM     24  C   UNL     1      -2.424  13.368  23.205  0.00  0.00    +0.000 A 
ATOM     25  C   UNL     1      -3.137  14.545  22.917  0.00  0.00    +0.000 A 
ATOM     26  C   UNL     1      -4.534  14.530  22.931  0.00  0.00    +0.000 A 
ATOM     27  C   UNL     1      -5.179  13.345  23.246  0.00  0.00    +0.000 A 
ATOM     28  N   UNL     1      -4.528  12.215  23.593  0.00  0.00    +0.000 NA
ATOM     29  C   UNL     1      -3.174  12.254  23.571  0.00  0.00    +0.000 A 
ENDBRANCH  23  24
ENDBRANCH   3  23
TORSDOF 4
ENDMDL
MODEL 6
REMARK VINA RESULT:      -6.9      8.857     12.537
REMARK  Name = 
REMARK  5 active torsions:
REMARK  status: ('A' for Active; 'I' for Inactive)
REMARK    1  A    between atoms: C_1  and  N_2
REMARK    2  A    between atoms: C_4  and  C_5
REMARK    3  A    between atoms: N_7  and  C_8
REMARK    4  A    between atoms: N_7  and  C_15
REMARK    5  A    between atoms: C_8  and  C_9
REMARK                            x       y       z     vdW  Elec       q    Type
REMARK                         _______ _______ _______ _____ _____    ______ ____
ROOT
ATOM      1  C   UNL     1      -0.774  14.085  22.040  0.00  0.00    +0.000 C 
ATOM      2  O   UNL     1      -0.872  14.745  23.079  0.00  0.00    +0.000 OA
ATOM      3  N   UNL     1      -1.381  12.813  21.931  0.00  0.00    +0.000 N 
ENDROOT
BRANCH   1   7
ATOM      4  C   UNL     1       3.721  14.307  20.139  0.00  0.00    +0.000 C 
ATOM      5  N   UNL     1       2.406  14.915  20.130  0.00  0.00    +0.000 N 
ATOM      6  C   UNL     1       1.554  14.857  21.323  0.00  0.00    +0.000 C 
ATOM      7  C   UNL     1       0.119  14.570  20.865  0.00  0.00    +0.000 C 
ATOM      8  C   UNL     1      -0.307  15.764  20.017  0.00  0.00    +0.000 A 
ATOM      9  C   UNL     1      -1.601  16.296  19.995  0.00  0.00    +0.000 A 
ATOM     10  C   UNL     1      -1.912  17.354  19.131  0.00  0.00    +0.000 A 
ATOM     11  C   UNL     1      -0.952  17.879  18.266  0.00  0.00    +0.000 A 
ATOM     12  C   UNL     1       0.334  17.347  18.252  0.00  0.00    +0.000 A 
ATOM     13  C   UNL     1       0.658  16.300  19.119  0.00  0.00    +0.000 A 
ATOM     14  C   UNL     1       2.045  15.731  19.053  0.00  0.00    +0.000 C 
ATOM     15  O   UNL     1       2.777  15.966  18.102  0.00  0.00    +0.000 OA
ENDBRANCH   1   7
BRANCH   3  16
ATOM     16  C   UNL     1      -1.330  12.029  20.753  0.00  0.00    +0.000 A 
ATOM     17  C   UNL     1      -0.479  10.919  20.678  0.00  0.00    +0.000 A 
ATOM     18  C   UNL     1      -0.376  10.206  19.485  0.00  0.00    +0.000 A 
ATOM     19  C   UNL     1      -1.128  10.601  18.385  0.00  0.00    +0.000 A 
ATOM     20  F   UNL     1      -1.007   9.934  17.230  0.00  0.00    +0.000 F 
ATOM     21  C   UNL     1      -2.001  11.682  18.458  0.00  0.00    +0.000 A 
ATOM     22  C   UNL     1      -2.118  12.385  19.652  0.00  0.00    +0.000 A 
ENDBRANCH   3  16
BRANCH   3  23
ATOM     23  C   UNL     1      -2.059  12.198  23.088  0.00  0.00    +0.000 C 
BRANCH  23  24
ATOM     24  C   UNL     1      -3.519  12.554  23.271  0.00  0.00    +0.000 A 
ATOM     25  C   UNL     1      -4.312  13.095  22.244  0.00  0.00    +0.000 A 
ATOM     26  C   UNL     1      -5.695  13.202  22.419  0.00  0.00    +0.000 A 
ATOM     27  C   UNL     1      -6.243  12.780  23.619  0.00  0.00    +0.000 A 
ATOM     28  N   UNL     1      -5.506  12.319  24.651  0.00  0.00    +0.000 NA
ATOM     29  C   UNL     1      -4.169  12.224  24.457  0.00  0.00    +0.000 A 
ENDBRANCH  23  24
ENDBRANCH   3  23
TORSDOF 4
ENDMDL
MODEL 7
REMARK VINA RESULT:      -6.8      8.371     10.785
REMARK  Name = 
REMARK  5 active torsions:
REMARK  status: ('A' for Active; 'I' for Inactive)
REMARK    1  A    between atoms: C_1  and  N_2
REMARK    2  A    between atoms: C_4  and  C_5
REMARK    3  A    between atoms: N_7  and  C_8
REMARK    4  A    between atoms: N_7  and  C_15
REMARK    5  A    between atoms: C_8  and  C_9
REMARK                            x       y       z     vdW  Elec       q    Type
REMARK                         _______ _______ _______ _____ _____    ______ ____
ROOT
ATOM      1  C   UNL     1      -0.430  12.783  18.959  0.00  0.00    +0.000 C 
ATOM      2  O   UNL     1      -0.653  13.287  17.855  0.00  0.00    +0.000 OA
ATOM      3  N   UNL     1      -1.015  11.547  19.321  0.00  0.00    +0.000 N 
ENDROOT
BRANCH   1   7
ATOM      4  C   UNL     1      -0.505  15.430  23.064  0.00  0.00    +0.000 C 
ATOM      5  N   UNL     1       0.274  15.102  21.887  0.00  0.00    +0.000 N 
ATOM      6  C   UNL     1      -0.394  14.704  20.643  0.00  0.00    +0.000 C 
ATOM      7  C   UNL     1       0.397  13.540  20.033  0.00  0.00    +0.000 C 
ATOM      8  C   UNL     1       1.778  14.092  19.693  0.00  0.00    +0.000 A 
ATOM      9  C   UNL     1       2.526  13.715  18.573  0.00  0.00    +0.000 A 
ATOM     10  C   UNL     1       3.815  14.229  18.381  0.00  0.00    +0.000 A 
ATOM     11  C   UNL     1       4.383  15.102  19.309  0.00  0.00    +0.000 A 
ATOM     12  C   UNL     1       3.668  15.470  20.444  0.00  0.00    +0.000 A 
ATOM     13  C   UNL     1       2.375  14.973  20.637  0.00  0.00    +0.000 A 
ATOM     14  C   UNL     1       1.647  15.366  21.889  0.00  0.00    +0.000 C 
ATOM     15  O   UNL     1       2.243  15.863  22.835  0.00  0.00    +0.000 OA
ENDBRANCH   1   7
BRANCH   3  16
ATOM     16  C   UNL     1      -0.768  10.907  20.559  0.00  0.00    +0.000 A 
ATOM     17  C   UNL     1      -1.301  11.427  21.745  0.00  0.00    +0.000 A 
ATOM     18  C   UNL     1      -0.980  10.835  22.965  0.00  0.00    +0.000 A 
ATOM     19  C   UNL     1      -0.142   9.727  22.989  0.00  0.00    +0.000 A 
ATOM     20  F   UNL     1       0.189   9.177  24.164  0.00  0.00    +0.000 F 
ATOM     21  C   UNL     1       0.367   9.182  21.815  0.00  0.00    +0.000 A 
ATOM     22  C   UNL     1       0.036   9.761  20.595  0.00  0.00    +0.000 A 
ENDBRANCH   3  16
BRANCH   3  23
ATOM     23  C   UNL     1      -1.986  10.882  18.431  0.00  0.00    +0.000 C 
BRANCH  23  24
ATOM     24  C   UNL     1      -3.393  11.442  18.444  0.00  0.00    +0.000 A 
ATOM     25  C   UNL     1      -3.953  12.085  19.561  0.00  0.00    +0.000 A 
ATOM     26  C   UNL     1      -5.171  12.759  19.435  0.00  0.00    +0.000 A 
ATOM     27  C   UNL     1      -5.801  12.759  18.201  0.00  0.00    +0.000 A 
ATOM     28  N   UNL     1      -5.327  12.098  17.125  0.00  0.00    +0.000 NA
ATOM     29  C   UNL     1      -4.144  11.452  17.273  0.00  0.00    +0.000 A 
ENDBRANCH  23  24
ENDBRANCH   3  23
TORSDOF 4
ENDMDL
MODEL 8
REMARK VINA RESULT:      -6.8      8.611     12.319
REMARK  Name = 
REMARK  5 active torsions:
REMARK  status: ('A' for Active; 'I' for Inactive)
REMARK    1  A    between atoms: C_1  and  N_2
REMARK    2  A    between atoms: C_4  and  C_5
REMARK    3  A    between atoms: N_7  and  C_8
REMARK    4  A    between atoms: N_7  and  C_15
REMARK    5  A    between atoms: C_8  and  C_9
REMARK                            x       y       z     vdW  Elec       q    Type
REMARK                         _______ _______ _______ _____ _____    ______ ____
ROOT
ATOM      1  C   UNL     1      -2.879  12.207  19.340  0.00  0.00    +0.000 C 
ATOM      2  O   UNL     1      -3.014  11.684  18.230  0.00  0.00    +0.000 OA
ATOM      3  N   UNL     1      -3.995  12.733  20.031  0.00  0.00    +0.000 N 
ENDROOT
BRANCH   1   7
ATOM      4  C   UNL     1       1.105  15.022  19.589  0.00  0.00    +0.000 C 
ATOM      5  N   UNL     1       0.592  13.685  19.805  0.00  0.00    +0.000 N 
ATOM      6  C   UNL     1      -0.543  13.190  19.017  0.00  0.00    +0.000 C 
ATOM      7  C   UNL     1      -1.471  12.416  19.961  0.00  0.00    +0.000 C 
ATOM      8  C   UNL     1      -0.668  11.221  20.466  0.00  0.00    +0.000 A 
ATOM      9  C   UNL     1      -1.207   9.953  20.712  0.00  0.00    +0.000 A 
ATOM     10  C   UNL     1      -0.401   8.936  21.239  0.00  0.00    +0.000 A 
ATOM     11  C   UNL     1       0.939   9.171  21.549  0.00  0.00    +0.000 A 
ATOM     12  C   UNL     1       1.488  10.432  21.338  0.00  0.00    +0.000 A 
ATOM     13  C   UNL     1       0.696  11.450  20.800  0.00  0.00    +0.000 A 
ATOM     14  C   UNL     1       1.314  12.805  20.616  0.00  0.00    +0.000 C 
ATOM     15  O   UNL     1       2.367  13.096  21.167  0.00  0.00    +0.000 OA
ENDBRANCH   1   7
BRANCH   3  16
ATOM     16  C   UNL     1      -3.904  13.312  21.320  0.00  0.00    +0.000 A 
ATOM     17  C   UNL     1      -3.943  14.703  21.476  0.00  0.00    +0.000 A 
ATOM     18  C   UNL     1      -3.768  15.262  22.741  0.00  0.00    +0.000 A 
ATOM     19  C   UNL     1      -3.566  14.429  23.836  0.00  0.00    +0.000 A 
ATOM     20  F   UNL     1      -3.370  14.968  25.045  0.00  0.00    +0.000 F 
ATOM     21  C   UNL     1      -3.558  13.046  23.697  0.00  0.00    +0.000 A 
ATOM     22  C   UNL     1      -3.749  12.485  22.439  0.00  0.00    +0.000 A 
ENDBRANCH   3  16
BRANCH   3  23
ATOM     23  C   UNL     1      -5.328  12.764  19.401  0.00  0.00    +0.000 C 
BRANCH  23  24
ATOM     24  C   UNL     1      -6.244  11.603  19.723  0.00  0.00    +0.000 A 
ATOM     25  C   UNL     1      -6.303  10.433  18.946  0.00  0.00    +0.000 A 
ATOM     26  C   UNL     1      -7.011   9.324  19.417  0.00  0.00    +0.000 A 
ATOM     27  C   UNL     1      -7.651   9.420  20.642  0.00  0.00    +0.000 A 
ATOM     28  N   UNL     1      -7.672  10.547  21.383  0.00  0.00    +0.000 NA
ATOM     29  C   UNL     1      -6.978  11.608  20.906  0.00  0.00    +0.000 A 
ENDBRANCH  23  24
ENDBRANCH   3  23
TORSDOF 4
ENDMDL
MODEL 9
REMARK VINA RESULT:      -6.7      8.253     10.492
REMARK  Name = 
REMARK  5 active torsions:
REMARK  status: ('A' for Active; 'I' for Inactive)
REMARK    1  A    between atoms: C_1  and  N_2
REMARK    2  A    between atoms: C_4  and  C_5
REMARK    3  A    between atoms: N_7  and  C_8
REMARK    4  A    between atoms: N_7  and  C_15
REMARK    5  A    between atoms: C_8  and  C_9
REMARK                            x       y       z     vdW  Elec       q    Type
REMARK                         _______ _______ _______ _____ _____    ______ ____
ROOT
ATOM      1  C   UNL     1      -0.091  12.932  19.279  0.00  0.00    +0.000 C 
ATOM      2  O   UNL     1      -0.151  13.468  18.168  0.00  0.00    +0.000 OA
ATOM      3  N   UNL     1      -0.354  11.551  19.430  0.00  0.00    +0.000 N 
ENDROOT
BRANCH   1   7
ATOM      4  C   UNL     1      -2.015  15.881  22.665  0.00  0.00    +0.000 C 
ATOM      5  N   UNL     1      -0.783  15.469  22.024  0.00  0.00    +0.000 N 
ATOM      6  C   UNL     1      -0.795  14.975  20.642  0.00  0.00    +0.000 C 
ATOM      7  C   UNL     1       0.153  13.773  20.561  0.00  0.00    +0.000 C 
ATOM      8  C   UNL     1       1.548  14.305  20.879  0.00  0.00    +0.000 A 
ATOM      9  C   UNL     1       2.724  13.848  20.275  0.00  0.00    +0.000 A 
ATOM     10  C   UNL     1       3.966  14.353  20.682  0.00  0.00    +0.000 A 
ATOM     11  C   UNL     1       4.055  15.298  21.706  0.00  0.00    +0.000 A 
ATOM     12  C   UNL     1       2.900  15.745  22.338  0.00  0.00    +0.000 A 
ATOM     13  C   UNL     1       1.654  15.258  21.930  0.00  0.00    +0.000 A 
ATOM     14  C   UNL     1       0.433  15.740  22.658  0.00  0.00    +0.000 C 
ATOM     15  O   UNL     1       0.527  16.309  23.736  0.00  0.00    +0.000 OA
ENDBRANCH   1   7
BRANCH   3  16
ATOM     16  C   UNL     1      -0.266  10.878  20.672  0.00  0.00    +0.000 A 
ATOM     17  C   UNL     1      -1.116  11.227  21.729  0.00  0.00    +0.000 A 
ATOM     18  C   UNL     1      -0.962  10.616  22.972  0.00  0.00    +0.000 A 
ATOM     19  C   UNL     1       0.029   9.656  23.144  0.00  0.00    +0.000 A 
ATOM     20  F   UNL     1       0.195   9.089  24.345  0.00  0.00    +0.000 F 
ATOM     21  C   UNL     1       0.857   9.277  22.093  0.00  0.00    +0.000 A 
ATOM     22  C   UNL     1       0.695   9.875  20.847  0.00  0.00    +0.000 A 
ENDBRANCH   3  16
BRANCH   3  23
ATOM     23  C   UNL     1      -0.807  10.739  18.285  0.00  0.00    +0.000 C 
BRANCH  23  24
ATOM     24  C   UNL     1      -2.167  11.087  17.718  0.00  0.00    +0.000 A 
ATOM     25  C   UNL     1      -2.518  10.869  16.374  0.00  0.00    +0.000 A 
ATOM     26  C   UNL     1      -3.848  11.018  15.972  0.00  0.00    +0.000 A 
ATOM     27  C   UNL     1      -4.786  11.394  16.920  0.00  0.00    +0.000 A 
ATOM     28  N   UNL     1      -4.475  11.676  18.202  0.00  0.00    +0.000 NA
ATOM     29  C   UNL     1      -3.179  11.524  18.567  0.00  0.00    +0.000 A 
ENDBRANCH  23  24
ENDBRANCH   3  23
TORSDOF 4
ENDMDL
