MODEL 1
REMARK VINA RESULT:      -8.7      0.000      0.000
REMARK  Name = 
REMARK  5 active torsions:
REMARK  status: ('A' for Active; 'I' for Inactive)
REMARK    1  A    between atoms: C_2  and  C_4
REMARK    2  A    between atoms: C_4  and  N_5
REMARK    3  A    between atoms: C_11  and  N_12
REMARK    4  A    between atoms: C_13  and  C_15
REMARK    5  A    between atoms: C_17  and  C_18
REMARK                            x       y       z     vdW  Elec       q    Type
REMARK                         _______ _______ _______ _____ _____    ______ ____
ROOT
ATOM      1  N   UNL     1       1.236   8.710  20.640  0.00  0.00    +0.000 N 
ATOM      2  C   UNL     1       0.083   8.954  21.373  0.00  0.00    +0.000 C 
ATOM      3  O   UNL     1      -0.702   8.109  21.789  0.00  0.00    +0.000 OA
ATOM      4  H   UNL     1       1.741   9.547  20.363  0.00  0.00    +0.000 HD
ENDROOT
BRANCH   1  11
ATOM      5  N   UNL     1       5.215   5.015  17.794  0.00  0.00    +0.000 NA
ATOM      6  C   UNL     1       4.974   3.955  18.802  0.00  0.00    +0.000 C 
ATOM      7  C   UNL     1       3.510   3.674  19.152  0.00  0.00    +0.000 C 
ATOM      8  C   UNL     1       2.869   4.968  19.557  0.00  0.00    +0.000 A 
ATOM      9  C   UNL     1       1.994   5.047  20.633  0.00  0.00    +0.000 A 
ATOM     10  C   UNL     1       1.451   6.278  20.992  0.00  0.00    +0.000 A 
ATOM     11  C   UNL     1       1.757   7.446  20.283  0.00  0.00    +0.000 A 
ATOM     12  C   UNL     1       2.625   7.354  19.181  0.00  0.00    +0.000 A 
ATOM     13  C   UNL     1       3.191   6.118  18.819  0.00  0.00    +0.000 A 
ATOM     14  C   UNL     1       4.064   5.928  17.593  0.00  0.00    +0.000 C 
BRANCH   5  15
ATOM     15  C   UNL     1       5.620   4.431  16.487  0.00  0.00    +0.000 C 
BRANCH  15  17
ATOM     16  N   UNL     1       7.381   5.226  14.979  0.00  0.00    +0.000 N 
ATOM     17  C   UNL     1       7.108   4.674  16.199  0.00  0.00    +0.000 C 
ATOM     18  O   UNL     1       8.006   4.365  16.975  0.00  0.00    +0.000 OA
ATOM     19  H   UNL     1       8.329   5.514  14.785  0.00  0.00    +0.000 HD
ATOM     20  H   UNL     1       6.612   5.647  14.468  0.00  0.00    +0.000 HD
ENDBRANCH  15  17
ENDBRANCH   5  15
ENDBRANCH   1  11
BRANCH   2  21
ATOM     21  C   UNL     1      -0.171  10.377  21.650  0.00  0.00    +0.000 A 
ATOM     22  C   UNL     1      -1.128  10.863  22.581  0.00  0.00    +0.000 A 
ATOM     23  C   UNL     1      -1.048  12.239  22.543  0.00  0.00    +0.000 A 
ATOM     24  N   UNL     1      -0.060  12.494  21.624  0.00  0.00    +0.000 N 
ATOM     25  N   UNL     1       0.482  11.393  21.057  0.00  0.00    +0.000 NA
ATOM     26  H   UNL     1       0.301  13.401  21.350  0.00  0.00    +0.000 HD
BRANCH  23  27
ATOM     27  C   UNL     1      -1.790  13.257  23.286  0.00  0.00    +0.000 A 
ATOM     28  C   UNL     1      -1.134  14.412  23.747  0.00  0.00    +0.000 A 
ATOM     29  C   UNL     1      -1.819  15.381  24.487  0.00  0.00    +0.000 A 
ATOM     30  C   UNL     1      -3.164  15.194  24.771  0.00  0.00    +0.000 A 
ATOM     31  F   UNL     1      -3.822  16.116  25.487  0.00  0.00    +0.000 F 
ATOM     32  C   UNL     1      -3.835  14.063  24.328  0.00  0.00    +0.000 A 
ATOM     33  C   UNL     1      -3.151  13.094  23.587  0.00  0.00    +0.000 A 
ENDBRANCH  23  27
ENDBRANCH   2  21
TORSDOF 5
ENDMDL
MODEL 2
REMARK VINA RESULT:      -8.5      7.804     11.228
REMARK  Name = 
REMARK  5 active torsions:
REMARK  status: ('A' for Active; 'I' for Inactive)
REMARK    1  A    between atoms: C_2  and  C_4
REMARK    2  A    between atoms: C_4  and  N_5
REMARK    3  A    between atoms: C_11  and  N_12
REMARK    4  A    between atoms: C_13  and  C_15
REMARK    5  A    between atoms: C_17  and  C_18
REMARK                            x       y       z     vdW  Elec       q    Type
REMARK                         _______ _______ _______ _____ _____    ______ ____
ROOT
ATOM      1  N   UNL     1       7.726   8.988  17.934  0.00  0.00    +0.000 N 
ATOM      2  C   UNL     1       7.782   7.622  18.175  0.00  0.00    +0.000 C 
ATOM      3  O   UNL     1       8.668   7.029  18.781  0.00  0.00    +0.000 OA
ATOM      4  H   UNL     1       6.923   9.284  17.387  0.00  0.00    +0.000 HD
ENDROOT
BRANCH   1  11
ATOM      5  N   UNL     1      10.431  14.487  17.762  0.00  0.00    +0.000 NA
ATOM      6  C   UNL     1      10.745  14.394  19.207  0.00  0.00    +0.000 C 
ATOM      7  C   UNL     1      11.338  13.066  19.687  0.00  0.00    +0.000 C 
ATOM      8  C   UNL     1      10.419  11.961  19.257  0.00  0.00    +0.000 A 
ATOM      9  C   UNL     1      10.113  10.896  20.093  0.00  0.00    +0.000 A 
ATOM     10  C   UNL     1       9.228   9.911  19.660  0.00  0.00    +0.000 A 
ATOM     11  C   UNL     1       8.643   9.963  18.389  0.00  0.00    +0.000 A 
ATOM     12  C   UNL     1       8.977  11.032  17.539  0.00  0.00    +0.000 A 
ATOM     13  C   UNL     1       9.858  12.039  17.972  0.00  0.00    +0.000 A 
ATOM     14  C   UNL     1      10.330  13.173  17.082  0.00  0.00    +0.000 C 
BRANCH   5  15
ATOM     15  C   UNL     1      11.422  15.340  17.051  0.00  0.00    +0.000 C 
BRANCH  15  17
ATOM     16  N   UNL     1       9.797  17.156  17.318  0.00  0.00    +0.000 N 
ATOM     17  C   UNL     1      11.123  16.833  17.247  0.00  0.00    +0.000 C 
ATOM     18  O   UNL     1      11.993  17.696  17.297  0.00  0.00    +0.000 OA
ATOM     19  H   UNL     1       9.547  18.102  17.562  0.00  0.00    +0.000 HD
ATOM     20  H   UNL     1       9.135  16.402  17.476  0.00  0.00    +0.000 HD
ENDBRANCH  15  17
ENDBRANCH   5  15
ENDBRANCH   1  11
BRANCH   2  21
ATOM     21  C   UNL     1       6.645   6.863  17.631  0.00  0.00    +0.000 A 
ATOM     22  C   UNL     1       5.804   6.007  18.391  0.00  0.00    +0.000 A 
ATOM     23  C   UNL     1       4.869   5.497  17.516  0.00  0.00    +0.000 A 
ATOM     24  N   UNL     1       5.185   6.074  16.311  0.00  0.00    +0.000 N 
ATOM     25  N   UNL     1       6.259   6.894  16.341  0.00  0.00    +0.000 NA
ATOM     26  H   UNL     1       4.695   5.959  15.430  0.00  0.00    +0.000 HD
BRANCH  23  27
ATOM     27  C   UNL     1       3.759   4.571  17.740  0.00  0.00    +0.000 A 
ATOM     28  C   UNL     1       3.977   3.183  17.685  0.00  0.00    +0.000 A 
ATOM     29  C   UNL     1       2.922   2.283  17.864  0.00  0.00    +0.000 A 
ATOM     30  C   UNL     1       1.643   2.770  18.096  0.00  0.00    +0.000 A 
ATOM     31  F   UNL     1       0.628   1.911  18.260  0.00  0.00    +0.000 F 
ATOM     32  C   UNL     1       1.402   4.136  18.155  0.00  0.00    +0.000 A 
ATOM     33  C   UNL     1       2.457   5.037  17.978  0.00  0.00    +0.000 A 
ENDBRANCH  23  27
ENDBRANCH   2  21
TORSDOF 5
ENDMDL
MODEL 3
REMARK VINA RESULT:      -8.5      1.011      1.369
REMARK  Name = 
REMARK  5 active torsions:
REMARK  status: ('A' for Active; 'I' for Inactive)
REMARK    1  A    between atoms: C_2  and  C_4
REMARK    2  A    between atoms: C_4  and  N_5
REMARK    3  A    between atoms: C_11  and  N_12
REMARK    4  A    between atoms: C_13  and  C_15
REMARK    5  A    between atoms: C_17  and  C_18
REMARK                            x       y       z     vdW  Elec       q    Type
REMARK                         _______ _______ _______ _____ _____    ______ ____
ROOT
ATOM      1  N   UNL     1       1.512   8.670  20.516  0.00  0.00    +0.000 N 
ATOM      2  C   UNL     1       0.893   9.644  19.745  0.00  0.00    +0.000 C 
ATOM      3  O   UNL     1       0.619   9.557  18.553  0.00  0.00    +0.000 OA
ATOM      4  H   UNL     1       1.679   8.942  21.481  0.00  0.00    +0.000 HD
ENDROOT
BRANCH   1  11
ATOM      5  N   UNL     1       5.207   4.674  17.692  0.00  0.00    +0.000 NA
ATOM      6  C   UNL     1       4.735   3.587  18.581  0.00  0.00    +0.000 C 
ATOM      7  C   UNL     1       3.221   3.489  18.786  0.00  0.00    +0.000 C 
ATOM      8  C   UNL     1       2.724   4.826  19.249  0.00  0.00    +0.000 A 
ATOM      9  C   UNL     1       1.772   4.947  20.253  0.00  0.00    +0.000 A 
ATOM     10  C   UNL     1       1.367   6.212  20.673  0.00  0.00    +0.000 A 
ATOM     11  C   UNL     1       1.891   7.374  20.095  0.00  0.00    +0.000 A 
ATOM     12  C   UNL     1       2.836   7.245  19.062  0.00  0.00    +0.000 A 
ATOM     13  C   UNL     1       3.262   5.971  18.642  0.00  0.00    +0.000 A 
ATOM     14  C   UNL     1       4.211   5.753  17.479  0.00  0.00    +0.000 C 
BRANCH   5  15
ATOM     15  C   UNL     1       5.650   4.139  16.376  0.00  0.00    +0.000 C 
BRANCH  15  17
ATOM     16  N   UNL     1       7.270   5.144  14.837  0.00  0.00    +0.000 N 
ATOM     17  C   UNL     1       7.092   4.553  16.056  0.00  0.00    +0.000 C 
ATOM     18  O   UNL     1       8.039   4.343  16.807  0.00  0.00    +0.000 OA
ATOM     19  H   UNL     1       8.173   5.540  14.624  0.00  0.00    +0.000 HD
ATOM     20  H   UNL     1       6.445   5.479  14.349  0.00  0.00    +0.000 HD
ENDBRANCH  15  17
ENDBRANCH   5  15
ENDBRANCH   1  11
BRANCH   2  21
ATOM     21  C   UNL     1       0.554  10.874  20.478  0.00  0.00    +0.000 A 
ATOM     22  C   UNL     1      -0.526  11.002  21.392  0.00  0.00    +0.000 A 
ATOM     23  C   UNL     1      -0.494  12.298  21.859  0.00  0.00    +0.000 A 
ATOM     24  N   UNL     1       0.588  12.858  21.226  0.00  0.00    +0.000 N 
ATOM     25  N   UNL     1       1.236  12.030  20.376  0.00  0.00    +0.000 NA
ATOM     26  H   UNL     1       0.946  13.799  21.343  0.00  0.00    +0.000 HD
BRANCH  23  27
ATOM     27  C   UNL     1      -1.358  12.987  22.817  0.00  0.00    +0.000 A 
ATOM     28  C   UNL     1      -2.606  12.438  23.164  0.00  0.00    +0.000 A 
ATOM     29  C   UNL     1      -3.460  13.099  24.052  0.00  0.00    +0.000 A 
ATOM     30  C   UNL     1      -3.069  14.316  24.593  0.00  0.00    +0.000 A 
ATOM     31  F   UNL     1      -3.887  14.956  25.439  0.00  0.00    +0.000 F 
ATOM     32  C   UNL     1      -1.842  14.879  24.267  0.00  0.00    +0.000 A 
ATOM     33  C   UNL     1      -0.987  14.218  23.380  0.00  0.00    +0.000 A 
ENDBRANCH  23  27
ENDBRANCH   2  21
TORSDOF 5
ENDMDL
MODEL 4
REMARK VINA RESULT:      -8.5      7.780     11.235
REMARK  Name = 
REMARK  5 active torsions:
REMARK  status: ('A' for Active; 'I' for Inactive)
REMARK    1  A    between atoms: C_2  and  C_4
REMARK    2  A    between atoms: C_4  and  N_5
REMARK    3  A    between atoms: C_11  and  N_12
REMARK    4  A    between atoms: C_13  and  C_15
REMARK    5  A    between atoms: C_17  and  C_18
REMARK                            x       y       z     vdW  Elec       q    Type
REMARK                         _______ _______ _______ _____ _____    ______ ____
ROOT
ATOM      1  N   UNL     1       7.498   9.028  17.695  0.00  0.00    +0.000 N 
ATOM      2  C   UNL     1       7.624   7.683  18.012  0.00  0.00    +0.000 C 
ATOM      3  O   UNL     1       8.521   7.176  18.677  0.00  0.00    +0.000 OA
ATOM      4  H   UNL     1       6.698   9.247  17.108  0.00  0.00    +0.000 HD
ENDROOT
BRANCH   1  11
ATOM      5  N   UNL     1       8.892  14.929  18.604  0.00  0.00    +0.000 NA
ATOM      6  C   UNL     1       9.803  14.558  19.714  0.00  0.00    +0.000 C 
ATOM      7  C   UNL     1      10.759  13.394  19.443  0.00  0.00    +0.000 C 
ATOM      8  C   UNL     1       9.948  12.217  18.987  0.00  0.00    +0.000 A 
ATOM      9  C   UNL     1      10.213  10.928  19.431  0.00  0.00    +0.000 A 
ATOM     10  C   UNL     1       9.410   9.873  19.006  0.00  0.00    +0.000 A 
ATOM     11  C   UNL     1       8.341  10.078  18.126  0.00  0.00    +0.000 A 
ATOM     12  C   UNL     1       8.093  11.382  17.662  0.00  0.00    +0.000 A 
ATOM     13  C   UNL     1       8.889  12.457  18.098  0.00  0.00    +0.000 A 
ATOM     14  C   UNL     1       8.736  13.873  17.575  0.00  0.00    +0.000 C 
BRANCH   5  15
ATOM     15  C   UNL     1       9.324  16.196  17.956  0.00  0.00    +0.000 C 
BRANCH  15  17
ATOM     16  N   UNL     1       7.116  16.985  18.670  0.00  0.00    +0.000 N 
ATOM     17  C   UNL     1       8.378  17.355  18.298  0.00  0.00    +0.000 C 
ATOM     18  O   UNL     1       8.696  18.536  18.212  0.00  0.00    +0.000 OA
ATOM     19  H   UNL     1       6.490  17.696  19.017  0.00  0.00    +0.000 HD
ATOM     20  H   UNL     1       6.964  16.013  18.923  0.00  0.00    +0.000 HD
ENDBRANCH  15  17
ENDBRANCH   5  15
ENDBRANCH   1  11
BRANCH   2  21
ATOM     21  C   UNL     1       6.552   6.829  17.474  0.00  0.00    +0.000 A 
ATOM     22  C   UNL     1       5.698   6.010  18.258  0.00  0.00    +0.000 A 
ATOM     23  C   UNL     1       4.839   5.384  17.380  0.00  0.00    +0.000 A 
ATOM     24  N   UNL     1       5.208   5.864  16.148  0.00  0.00    +0.000 N 
ATOM     25  N   UNL     1       6.248   6.729  16.166  0.00  0.00    +0.000 NA
ATOM     26  H   UNL     1       4.780   5.650  15.254  0.00  0.00    +0.000 HD
BRANCH  23  27
ATOM     27  C   UNL     1       3.753   4.435  17.623  0.00  0.00    +0.000 A 
ATOM     28  C   UNL     1       2.450   4.903  17.870  0.00  0.00    +0.000 A 
ATOM     29  C   UNL     1       1.405   4.012  18.136  0.00  0.00    +0.000 A 
ATOM     30  C   UNL     1       1.663   2.649  18.160  0.00  0.00    +0.000 A 
ATOM     31  F   UNL     1       0.667   1.792  18.423  0.00  0.00    +0.000 F 
ATOM     32  C   UNL     1       2.941   2.161  17.920  0.00  0.00    +0.000 A 
ATOM     33  C   UNL     1       3.985   3.052  17.652  0.00  0.00    +0.000 A 
ENDBRANCH  23  27
ENDBRANCH   2  21
TORSDOF 5
ENDMDL
MODEL 5
REMARK VINA RESULT:      -8.5      1.379      1.486
REMARK  Name = 
REMARK  5 active torsions:
REMARK  status: ('A' for Active; 'I' for Inactive)
REMARK    1  A    between atoms: C_2  and  C_4
REMARK    2  A    between atoms: C_4  and  N_5
REMARK    3  A    between atoms: C_11  and  N_12
REMARK    4  A    between atoms: C_13  and  C_15
REMARK    5  A    between atoms: C_17  and  C_18
REMARK                            x       y       z     vdW  Elec       q    Type
REMARK                         _______ _______ _______ _____ _____    ______ ____
ROOT
ATOM      1  N   UNL     1       1.242   7.471  21.102  0.00  0.00    +0.000 N 
ATOM      2  C   UNL     1       0.919   8.768  20.730  0.00  0.00    +0.000 C 
ATOM      3  O   UNL     1       1.193   9.305  19.662  0.00  0.00    +0.000 OA
ATOM      4  H   UNL     1       0.951   7.219  22.042  0.00  0.00    +0.000 HD
ENDROOT
BRANCH   1  11
ATOM      5  N   UNL     1       5.294   5.664  16.869  0.00  0.00    +0.000 NA
ATOM      6  C   UNL     1       5.361   4.318  17.487  0.00  0.00    +0.000 C 
ATOM      7  C   UNL     1       4.021   3.671  17.847  0.00  0.00    +0.000 C 
ATOM      8  C   UNL     1       3.255   4.629  18.710  0.00  0.00    +0.000 A 
ATOM      9  C   UNL     1       2.540   4.204  19.822  0.00  0.00    +0.000 A 
ATOM     10  C   UNL     1       1.872   5.136  20.612  0.00  0.00    +0.000 A 
ATOM     11  C   UNL     1       1.894   6.502  20.305  0.00  0.00    +0.000 A 
ATOM     12  C   UNL     1       2.600   6.923  19.165  0.00  0.00    +0.000 A 
ATOM     13  C   UNL     1       3.291   5.990  18.369  0.00  0.00    +0.000 A 
ATOM     14  C   UNL     1       4.000   6.359  17.080  0.00  0.00    +0.000 C 
BRANCH   5  15
ATOM     15  C   UNL     1       5.594   5.602  15.413  0.00  0.00    +0.000 C 
BRANCH  15  17
ATOM     16  N   UNL     1       6.380   3.600  14.239  0.00  0.00    +0.000 N 
ATOM     17  C   UNL     1       6.714   4.597  15.112  0.00  0.00    +0.000 C 
ATOM     18  O   UNL     1       7.822   4.642  15.636  0.00  0.00    +0.000 OA
ATOM     19  H   UNL     1       7.110   2.982  13.917  0.00  0.00    +0.000 HD
ATOM     20  H   UNL     1       5.539   3.720  13.684  0.00  0.00    +0.000 HD
ENDBRANCH  15  17
ENDBRANCH   5  15
ENDBRANCH   1  11
BRANCH   2  21
ATOM     21  C   UNL     1       0.176   9.525  21.750  0.00  0.00    +0.000 A 
ATOM     22  C   UNL     1      -0.406  10.804  21.547  0.00  0.00    +0.000 A 
ATOM     23  C   UNL     1      -1.008  11.156  22.736  0.00  0.00    +0.000 A 
ATOM     24  N   UNL     1      -0.771  10.086  23.563  0.00  0.00    +0.000 N 
ATOM     25  N   UNL     1      -0.048   9.089  23.004  0.00  0.00    +0.000 NA
ATOM     26  H   UNL     1      -1.089   9.969  24.519  0.00  0.00    +0.000 HD
BRANCH  23  27
ATOM     27  C   UNL     1      -1.756  12.356  23.107  0.00  0.00    +0.000 A 
ATOM     28  C   UNL     1      -1.121  13.611  23.109  0.00  0.00    +0.000 A 
ATOM     29  C   UNL     1      -1.811  14.765  23.492  0.00  0.00    +0.000 A 
ATOM     30  C   UNL     1      -3.140  14.666  23.879  0.00  0.00    +0.000 A 
ATOM     31  F   UNL     1      -3.803  15.768  24.254  0.00  0.00    +0.000 F 
ATOM     32  C   UNL     1      -3.791  13.439  23.886  0.00  0.00    +0.000 A 
ATOM     33  C   UNL     1      -3.101  12.285  23.501  0.00  0.00    +0.000 A 
ENDBRANCH  23  27
ENDBRANCH   2  21
TORSDOF 5
ENDMDL
MODEL 6
REMARK VINA RESULT:      -8.5      7.832     11.243
REMARK  Name = 
REMARK  5 active torsions:
REMARK  status: ('A' for Active; 'I' for Inactive)
REMARK    1  A    between atoms: C_2  and  C_4
REMARK    2  A    between atoms: C_4  and  N_5
REMARK    3  A    between atoms: C_11  and  N_12
REMARK    4  A    between atoms: C_13  and  C_15
REMARK    5  A    between atoms: C_17  and  C_18
REMARK                            x       y       z     vdW  Elec       q    Type
REMARK                         _______ _______ _______ _____ _____    ______ ____
ROOT
ATOM      1  N   UNL     1       7.668   9.013  17.902  0.00  0.00    +0.000 N 
ATOM      2  C   UNL     1       7.719   7.646  18.135  0.00  0.00    +0.000 C 
ATOM      3  O   UNL     1       8.601   7.047  18.741  0.00  0.00    +0.000 OA
ATOM      4  H   UNL     1       6.868   9.316  17.354  0.00  0.00    +0.000 HD
ENDROOT
BRANCH   1  11
ATOM      5  N   UNL     1      10.101  14.639  18.069  0.00  0.00    +0.000 NA
ATOM      6  C   UNL     1      10.571  14.410  19.456  0.00  0.00    +0.000 C 
ATOM      7  C   UNL     1      11.268  13.073  19.723  0.00  0.00    +0.000 C 
ATOM      8  C   UNL     1      10.357  11.972  19.267  0.00  0.00    +0.000 A 
ATOM      9  C   UNL     1      10.188  10.808  20.006  0.00  0.00    +0.000 A 
ATOM     10  C   UNL     1       9.304   9.829  19.559  0.00  0.00    +0.000 A 
ATOM     11  C   UNL     1       8.586   9.983  18.367  0.00  0.00    +0.000 A 
ATOM     12  C   UNL     1       8.780  11.153  17.613  0.00  0.00    +0.000 A 
ATOM     13  C   UNL     1       9.659  12.155  18.063  0.00  0.00    +0.000 A 
ATOM     14  C   UNL     1       9.983  13.401  17.261  0.00  0.00    +0.000 C 
BRANCH   5  15
ATOM     15  C   UNL     1      10.972  15.615  17.361  0.00  0.00    +0.000 C 
BRANCH  15  17
ATOM     16  N   UNL     1      10.538  17.964  16.812  0.00  0.00    +0.000 N 
ATOM     17  C   UNL     1      10.694  17.053  17.819  0.00  0.00    +0.000 C 
ATOM     18  O   UNL     1      10.653  17.392  18.997  0.00  0.00    +0.000 OA
ATOM     19  H   UNL     1      10.239  18.897  17.052  0.00  0.00    +0.000 HD
ATOM     20  H   UNL     1      10.377  17.608  15.874  0.00  0.00    +0.000 HD
ENDBRANCH  15  17
ENDBRANCH   5  15
ENDBRANCH   1  11
BRANCH   2  21
ATOM     21  C   UNL     1       6.582   6.893  17.581  0.00  0.00    +0.000 A 
ATOM     22  C   UNL     1       5.775   5.986  18.317  0.00  0.00    +0.000 A 
ATOM     23  C   UNL     1       4.827   5.502  17.441  0.00  0.00    +0.000 A 
ATOM     24  N   UNL     1       5.104   6.144  16.259  0.00  0.00    +0.000 N 
ATOM     25  N   UNL     1       6.164   6.982  16.304  0.00  0.00    +0.000 NA
ATOM     26  H   UNL     1       4.595   6.064  15.385  0.00  0.00    +0.000 HD
BRANCH  23  27
ATOM     27  C   UNL     1       3.740   4.546  17.645  0.00  0.00    +0.000 A 
ATOM     28  C   UNL     1       2.433   5.005  17.887  0.00  0.00    +0.000 A 
ATOM     29  C   UNL     1       1.387   4.106  18.117  0.00  0.00    +0.000 A 
ATOM     30  C   UNL     1       1.647   2.743  18.109  0.00  0.00    +0.000 A 
ATOM     31  F   UNL     1       0.649   1.878  18.337  0.00  0.00    +0.000 F 
ATOM     32  C   UNL     1       2.929   2.264  17.872  0.00  0.00    +0.000 A 
ATOM     33  C   UNL     1       3.975   3.162  17.641  0.00  0.00    +0.000 A 
ENDBRANCH  23  27
ENDBRANCH   2  21
TORSDOF 5
ENDMDL
MODEL 7
REMARK VINA RESULT:      -8.4      2.591      3.451
REMARK  Name = 
REMARK  5 active torsions:
REMARK  status: ('A' for Active; 'I' for Inactive)
REMARK    1  A    between atoms: C_2  and  C_4
REMARK    2  A    between atoms: C_4  and  N_5
REMARK    3  A    between atoms: C_11  and  N_12
REMARK    4  A    between atoms: C_13  and  C_15
REMARK    5  A    between atoms: C_17  and  C_18
REMARK                            x       y       z     vdW  Elec       q    Type
REMARK                         _______ _______ _______ _____ _____    ______ ____
ROOT
ATOM      1  N   UNL     1       0.314   9.589  20.612  0.00  0.00    +0.000 N 
ATOM      2  C   UNL     1       0.480  10.862  21.141  0.00  0.00    +0.000 C 
ATOM      3  O   UNL     1       1.471  11.574  21.017  0.00  0.00    +0.000 OA
ATOM      4  H   UNL     1      -0.570   9.149  20.850  0.00  0.00    +0.000 HD
ENDROOT
BRANCH   1  11
ATOM      5  N   UNL     1       3.452   4.624  18.853  0.00  0.00    +0.000 NA
ATOM      6  C   UNL     1       3.527   5.144  17.467  0.00  0.00    +0.000 C 
ATOM      7  C   UNL     1       3.926   6.615  17.317  0.00  0.00    +0.000 C 
ATOM      8  C   UNL     1       3.000   7.440  18.160  0.00  0.00    +0.000 A 
ATOM      9  C   UNL     1       2.480   8.647  17.711  0.00  0.00    +0.000 A 
ATOM     10  C   UNL     1       1.597   9.361  18.517  0.00  0.00    +0.000 A 
ATOM     11  C   UNL     1       1.225   8.894  19.784  0.00  0.00    +0.000 A 
ATOM     12  C   UNL     1       1.773   7.684  20.241  0.00  0.00    +0.000 A 
ATOM     13  C   UNL     1       2.655   6.948  19.429  0.00  0.00    +0.000 A 
ATOM     14  C   UNL     1       3.351   5.681  19.889  0.00  0.00    +0.000 C 
BRANCH   5  15
ATOM     15  C   UNL     1       4.607   3.738  19.158  0.00  0.00    +0.000 C 
BRANCH  15  17
ATOM     16  N   UNL     1       5.161   1.572  20.164  0.00  0.00    +0.000 N 
ATOM     17  C   UNL     1       4.163   2.466  19.894  0.00  0.00    +0.000 C 
ATOM     18  O   UNL     1       2.997   2.229  20.190  0.00  0.00    +0.000 OA
ATOM     19  H   UNL     1       4.946   0.776  20.746  0.00  0.00    +0.000 HD
ATOM     20  H   UNL     1       6.120   1.897  20.087  0.00  0.00    +0.000 HD
ENDBRANCH  15  17
ENDBRANCH   5  15
ENDBRANCH   1  11
BRANCH   2  21
ATOM     21  C   UNL     1      -0.673  11.354  21.911  0.00  0.00    +0.000 A 
ATOM     22  C   UNL     1      -1.779  12.052  21.358  0.00  0.00    +0.000 A 
ATOM     23  C   UNL     1      -2.633  12.328  22.405  0.00  0.00    +0.000 A 
ATOM     24  N   UNL     1      -2.012  11.779  23.500  0.00  0.00    +0.000 N 
ATOM     25  N   UNL     1      -0.820  11.195  23.240  0.00  0.00    +0.000 NA
ATOM     26  H   UNL     1      -2.357  11.759  24.453  0.00  0.00    +0.000 HD
BRANCH  23  27
ATOM     27  C   UNL     1      -3.921  13.019  22.427  0.00  0.00    +0.000 A 
ATOM     28  C   UNL     1      -4.646  13.198  21.235  0.00  0.00    +0.000 A 
ATOM     29  C   UNL     1      -5.864  13.885  21.232  0.00  0.00    +0.000 A 
ATOM     30  C   UNL     1      -6.359  14.398  22.422  0.00  0.00    +0.000 A 
ATOM     31  F   UNL     1      -7.522  15.064  22.422  0.00  0.00    +0.000 F 
ATOM     32  C   UNL     1      -5.664  14.234  23.613  0.00  0.00    +0.000 A 
ATOM     33  C   UNL     1      -4.446  13.546  23.617  0.00  0.00    +0.000 A 
ENDBRANCH  23  27
ENDBRANCH   2  21
TORSDOF 5
ENDMDL
MODEL 8
REMARK VINA RESULT:      -8.4      1.213      1.431
REMARK  Name = 
REMARK  5 active torsions:
REMARK  status: ('A' for Active; 'I' for Inactive)
REMARK    1  A    between atoms: C_2  and  C_4
REMARK    2  A    between atoms: C_4  and  N_5
REMARK    3  A    between atoms: C_11  and  N_12
REMARK    4  A    between atoms: C_13  and  C_15
REMARK    5  A    between atoms: C_17  and  C_18
REMARK                            x       y       z     vdW  Elec       q    Type
REMARK                         _______ _______ _______ _____ _____    ______ ____
ROOT
ATOM      1  N   UNL     1       0.937   8.679  20.531  0.00  0.00    +0.000 N 
ATOM      2  C   UNL     1       1.085   9.450  21.676  0.00  0.00    +0.000 C 
ATOM      3  O   UNL     1       1.795   9.185  22.640  0.00  0.00    +0.000 OA
ATOM      4  H   UNL     1       0.279   9.056  19.854  0.00  0.00    +0.000 HD
ENDROOT
BRANCH   1  11
ATOM      5  N   UNL     1       5.305   5.382  17.766  0.00  0.00    +0.000 NA
ATOM      6  C   UNL     1       5.238   4.364  18.841  0.00  0.00    +0.000 C 
ATOM      7  C   UNL     1       3.835   3.912  19.258  0.00  0.00    +0.000 C 
ATOM      8  C   UNL     1       3.035   5.131  19.610  0.00  0.00    +0.000 A 
ATOM      9  C   UNL     1       2.188   5.158  20.710  0.00  0.00    +0.000 A 
ATOM     10  C   UNL     1       1.491   6.325  21.016  0.00  0.00    +0.000 A 
ATOM     11  C   UNL     1       1.617   7.477  20.230  0.00  0.00    +0.000 A 
ATOM     12  C   UNL     1       2.458   7.434  19.105  0.00  0.00    +0.000 A 
ATOM     13  C   UNL     1       3.177   6.265  18.796  0.00  0.00    +0.000 A 
ATOM     14  C   UNL     1       4.035   6.119  17.553  0.00  0.00    +0.000 C 
BRANCH   5  15
ATOM     15  C   UNL     1       5.750   4.778  16.481  0.00  0.00    +0.000 C 
BRANCH  15  17
ATOM     16  N   UNL     1       7.496   6.482  16.717  0.00  0.00    +0.000 N 
ATOM     17  C   UNL     1       6.986   5.495  15.921  0.00  0.00    +0.000 C 
ATOM     18  O   UNL     1       7.473   5.246  14.823  0.00  0.00    +0.000 OA
ATOM     19  H   UNL     1       8.373   6.906  16.453  0.00  0.00    +0.000 HD
ATOM     20  H   UNL     1       7.194   6.511  17.686  0.00  0.00    +0.000 HD
ENDBRANCH  15  17
ENDBRANCH   5  15
ENDBRANCH   1  11
BRANCH   2  21
ATOM     21  C   UNL     1       0.295  10.691  21.678  0.00  0.00    +0.000 A 
ATOM     22  C   UNL     1      -0.814  10.945  22.529  0.00  0.00    +0.000 A 
ATOM     23  C   UNL     1      -1.265  12.211  22.221  0.00  0.00    +0.000 A 
ATOM     24  N   UNL     1      -0.412  12.641  21.234  0.00  0.00    +0.000 N 
ATOM     25  N   UNL     1       0.534  11.744  20.874  0.00  0.00    +0.000 NA
ATOM     26  H   UNL     1      -0.414  13.545  20.775  0.00  0.00    +0.000 HD
BRANCH  23  27
ATOM     27  C   UNL     1      -2.370  12.990  22.776  0.00  0.00    +0.000 A 
ATOM     28  C   UNL     1      -3.328  12.369  23.597  0.00  0.00    +0.000 A 
ATOM     29  C   UNL     1      -4.411  13.091  24.111  0.00  0.00    +0.000 A 
ATOM     30  C   UNL     1      -4.539  14.438  23.800  0.00  0.00    +0.000 A 
ATOM     31  F   UNL     1      -5.578  15.131  24.284  0.00  0.00    +0.000 F 
ATOM     32  C   UNL     1      -3.606  15.074  22.992  0.00  0.00    +0.000 A 
ATOM     33  C   UNL     1      -2.523  14.353  22.480  0.00  0.00    +0.000 A 
ENDBRANCH  23  27
ENDBRANCH   2  21
TORSDOF 5
ENDMDL
MODEL 9
REMARK VINA RESULT:      -8.3      1.385      1.744
REMARK  Name = 
REMARK  5 active torsions:
REMARK  status: ('A' for Active; 'I' for Inactive)
REMARK    1  A    between atoms: C_2  and  C_4
REMARK    2  A    between atoms: C_4  and  N_5
REMARK    3  A    between atoms: C_11  and  N_12
REMARK    4  A    between atoms: C_13  and  C_15
REMARK    5  A    between atoms: C_17  and  C_18
REMARK                            x       y       z     vdW  Elec       q    Type
REMARK                         _______ _______ _______ _____ _____    ______ ____
ROOT
ATOM      1  N   UNL     1       1.168   7.272  21.158  0.00  0.00    +0.000 N 
ATOM      2  C   UNL     1       0.966   8.588  20.766  0.00  0.00    +0.000 C 
ATOM      3  O   UNL     1       1.317   9.088  19.703  0.00  0.00    +0.000 OA
ATOM      4  H   UNL     1       0.828   7.055  22.091  0.00  0.00    +0.000 HD
ENDROOT
BRANCH   1  11
ATOM      5  N   UNL     1       5.279   5.056  17.185  0.00  0.00    +0.000 NA
ATOM      6  C   UNL     1       5.146   3.704  17.779  0.00  0.00    +0.000 C 
ATOM      7  C   UNL     1       3.717   3.214  18.030  0.00  0.00    +0.000 C 
ATOM      8  C   UNL     1       3.007   4.244  18.856  0.00  0.00    +0.000 A 
ATOM      9  C   UNL     1       2.168   3.891  19.905  0.00  0.00    +0.000 A 
ATOM     10  C   UNL     1       1.557   4.886  20.665  0.00  0.00    +0.000 A 
ATOM     11  C   UNL     1       1.759   6.243  20.389  0.00  0.00    +0.000 A 
ATOM     12  C   UNL     1       2.590   6.593  19.311  0.00  0.00    +0.000 A 
ATOM     13  C   UNL     1       3.224   5.596  18.546  0.00  0.00    +0.000 A 
ATOM     14  C   UNL     1       4.063   5.895  17.318  0.00  0.00    +0.000 C 
BRANCH   5  15
ATOM     15  C   UNL     1       5.675   4.977  15.753  0.00  0.00    +0.000 C 
BRANCH  15  17
ATOM     16  N   UNL     1       7.602   5.372  14.291  0.00  0.00    +0.000 N 
ATOM     17  C   UNL     1       7.043   5.630  15.511  0.00  0.00    +0.000 C 
ATOM     18  O   UNL     1       7.629   6.304  16.351  0.00  0.00    +0.000 OA
ATOM     19  H   UNL     1       8.443   5.868  14.035  0.00  0.00    +0.000 HD
ATOM     20  H   UNL     1       7.001   4.990  13.567  0.00  0.00    +0.000 HD
ENDBRANCH  15  17
ENDBRANCH   5  15
ENDBRANCH   1  11
BRANCH   2  21
ATOM     21  C   UNL     1       0.259   9.415  21.756  0.00  0.00    +0.000 A 
ATOM     22  C   UNL     1      -0.353  10.666  21.479  0.00  0.00    +0.000 A 
ATOM     23  C   UNL     1      -0.904  11.105  22.664  0.00  0.00    +0.000 A 
ATOM     24  N   UNL     1      -0.611  10.109  23.561  0.00  0.00    +0.000 N 
ATOM     25  N   UNL     1       0.101   9.079  23.051  0.00  0.00    +0.000 NA
ATOM     26  H   UNL     1      -0.882  10.065  24.537  0.00  0.00    +0.000 HD
BRANCH  23  27
ATOM     27  C   UNL     1      -1.654  12.322  22.972  0.00  0.00    +0.000 A 
ATOM     28  C   UNL     1      -3.014  12.243  23.323  0.00  0.00    +0.000 A 
ATOM     29  C   UNL     1      -3.755  13.398  23.589  0.00  0.00    +0.000 A 
ATOM     30  C   UNL     1      -3.138  14.638  23.503  0.00  0.00    +0.000 A 
ATOM     31  F   UNL     1      -3.847  15.748  23.749  0.00  0.00    +0.000 F 
ATOM     32  C   UNL     1      -1.797  14.743  23.159  0.00  0.00    +0.000 A 
ATOM     33  C   UNL     1      -1.055  13.589  22.894  0.00  0.00    +0.000 A 
ENDBRANCH  23  27
ENDBRANCH   2  21
TORSDOF 5
ENDMDL
