MODEL 1
REMARK VINA RESULT:      -7.3      0.000      0.000
REMARK  Name = 
REMARK  4 active torsions:
REMARK  status: ('A' for Active; 'I' for Inactive)
REMARK    1  A    between atoms: C_2  and  C_3
REMARK    2  A    between atoms: C_7  and  C_8
REMARK    3  A    between atoms: N_18  and  S_19
REMARK    4  A    between atoms: S_19  and  C_22
REMARK                            x       y       z     vdW  Elec       q    Type
REMARK                         _______ _______ _______ _____ _____    ______ ____
ROOT
ATOM      1  O   UNL     1       9.049  16.798  20.296  0.00  0.00    +0.000 OA
ATOM      2  C   UNL     1       8.664  16.267  19.261  0.00  0.00    +0.000 C 
ATOM      3  N   UNL     1       7.340  15.825  19.127  0.00  0.00    +0.000 N 
ATOM      4  C   UNL     1       6.390  16.172  20.201  0.00  0.00    +0.000 C 
ATOM      5  C   UNL     1       5.246  15.145  20.344  0.00  0.00    +0.000 C 
ATOM      6  N   UNL     1       4.608  14.821  19.024  0.00  0.00    +0.000 NA
ATOM      7  C   UNL     1       5.649  14.296  18.103  0.00  0.00    +0.000 C 
ATOM      8  C   UNL     1       6.742  15.339  17.877  0.00  0.00    +0.000 C 
ENDROOT
BRANCH   2   9
ATOM      9  C   UNL     1       9.605  16.007  18.169  0.00  0.00    +0.000 A 
ATOM     10  C   UNL     1      10.211  16.922  17.324  0.00  0.00    +0.000 A 
ATOM     11  N   UNL     1      10.940  16.206  16.430  0.00  0.00    +0.000 N 
ATOM     12  N   UNL     1      10.963  14.900  16.692  0.00  0.00    +0.000 NA
ATOM     13  C   UNL     1      10.156  14.746  17.757  0.00  0.00    +0.000 A 
ATOM     14  H   UNL     1      11.447  16.545  15.618  0.00  0.00    +0.000 HD
BRANCH  13  15
ATOM     15  C   UNL     1       9.914  13.396  18.278  0.00  0.00    +0.000 A 
ATOM     16  C   UNL     1      10.508  13.001  19.490  0.00  0.00    +0.000 A 
ATOM     17  C   UNL     1      10.352  11.700  19.970  0.00  0.00    +0.000 A 
ATOM     18  C   UNL     1       9.601  10.790  19.239  0.00  0.00    +0.000 A 
ATOM     19  F   UNL     1       9.467   9.534  19.684  0.00  0.00    +0.000 F 
ATOM     20  C   UNL     1       8.992  11.160  18.044  0.00  0.00    +0.000 A 
ATOM     21  C   UNL     1       9.153  12.460  17.562  0.00  0.00    +0.000 A 
ENDBRANCH  13  15
ENDBRANCH   2   9
BRANCH   6  22
ATOM     22  S   UNL     1       3.586  16.001  18.321  0.00  0.00    +0.000 S 
ATOM     23  O   UNL     1       3.800  17.270  18.988  0.00  0.00    +0.000 OA
ATOM     24  O   UNL     1       3.706  15.898  16.886  0.00  0.00    +0.000 OA
BRANCH  22  25
ATOM     25  C   UNL     1       1.962  15.442  18.752  0.00  0.00    +0.000 A 
ATOM     26  C   UNL     1       0.942  16.365  18.994  0.00  0.00    +0.000 A 
ATOM     27  C   UNL     1      -0.361  15.913  19.221  0.00  0.00    +0.000 A 
ATOM     28  C   UNL     1      -0.637  14.541  19.181  0.00  0.00    +0.000 A 
ATOM     29  C   UNL     1       0.384  13.640  18.911  0.00  0.00    +0.000 A 
ATOM     30  F   UNL     1       0.105  12.332  18.830  0.00  0.00    +0.000 F 
ATOM     31  C   UNL     1       1.686  14.070  18.698  0.00  0.00    +0.000 A 
ENDBRANCH  22  25
ENDBRANCH   6  22
TORSDOF 4
ENDMDL
MODEL 2
REMARK VINA RESULT:      -7.0      8.173     11.758
REMARK  Name = 
REMARK  4 active torsions:
REMARK  status: ('A' for Active; 'I' for Inactive)
REMARK    1  A    between atoms: C_2  and  C_3
REMARK    2  A    between atoms: C_7  and  C_8
REMARK    3  A    between atoms: N_18  and  S_19
REMARK    4  A    between atoms: S_19  and  C_22
REMARK                            x       y       z     vdW  Elec       q    Type
REMARK                         _______ _______ _______ _____ _____    ______ ____
ROOT
ATOM      1  O   UNL     1       1.968   9.437  18.433  0.00  0.00    +0.000 OA
ATOM      2  C   UNL     1       1.778   8.614  19.320  0.00  0.00    +0.000 C 
ATOM      3  N   UNL     1       2.141   7.271  19.148  0.00  0.00    +0.000 N 
ATOM      4  C   UNL     1       2.910   6.919  17.939  0.00  0.00    +0.000 C 
ATOM      5  C   UNL     1       2.675   5.462  17.482  0.00  0.00    +0.000 C 
ATOM      6  N   UNL     1       2.808   4.487  18.615  0.00  0.00    +0.000 NA
ATOM      7  C   UNL     1       1.834   4.847  19.677  0.00  0.00    +0.000 C 
ATOM      8  C   UNL     1       2.114   6.253  20.206  0.00  0.00    +0.000 C 
ENDROOT
BRANCH   2   9
ATOM      9  C   UNL     1       1.087   9.002  20.553  0.00  0.00    +0.000 A 
ATOM     10  C   UNL     1       1.471   8.761  21.862  0.00  0.00    +0.000 A 
ATOM     11  N   UNL     1       0.480   9.244  22.655  0.00  0.00    +0.000 N 
ATOM     12  N   UNL     1      -0.468   9.893  21.981  0.00  0.00    +0.000 NA
ATOM     13  C   UNL     1      -0.122   9.765  20.686  0.00  0.00    +0.000 A 
ATOM     14  H   UNL     1       0.389   9.166  23.663  0.00  0.00    +0.000 HD
BRANCH  13  15
ATOM     15  C   UNL     1      -0.999  10.331  19.656  0.00  0.00    +0.000 A 
ATOM     16  C   UNL     1      -1.546  11.614  19.836  0.00  0.00    +0.000 A 
ATOM     17  C   UNL     1      -2.439  12.145  18.905  0.00  0.00    +0.000 A 
ATOM     18  C   UNL     1      -2.790  11.394  17.791  0.00  0.00    +0.000 A 
ATOM     19  F   UNL     1      -3.665  11.889  16.907  0.00  0.00    +0.000 F 
ATOM     20  C   UNL     1      -2.253  10.128  17.585  0.00  0.00    +0.000 A 
ATOM     21  C   UNL     1      -1.363   9.595  18.519  0.00  0.00    +0.000 A 
ENDBRANCH  13  15
ENDBRANCH   2   9
BRANCH   6  22
ATOM     22  S   UNL     1       4.382   4.148  19.196  0.00  0.00    +0.000 S 
ATOM     23  O   UNL     1       4.749   5.148  20.179  0.00  0.00    +0.000 OA
ATOM     24  O   UNL     1       4.446   2.743  19.521  0.00  0.00    +0.000 OA
BRANCH  22  25
ATOM     25  C   UNL     1       5.405   4.403  17.773  0.00  0.00    +0.000 A 
ATOM     26  C   UNL     1       5.212   3.636  16.621  0.00  0.00    +0.000 A 
ATOM     27  C   UNL     1       5.948   3.923  15.468  0.00  0.00    +0.000 A 
ATOM     28  C   UNL     1       6.853   4.989  15.469  0.00  0.00    +0.000 A 
ATOM     29  C   UNL     1       7.012   5.759  16.614  0.00  0.00    +0.000 A 
ATOM     30  F   UNL     1       7.848   6.806  16.594  0.00  0.00    +0.000 F 
ATOM     31  C   UNL     1       6.301   5.480  17.773  0.00  0.00    +0.000 A 
ENDBRANCH  22  25
ENDBRANCH   6  22
TORSDOF 4
ENDMDL
MODEL 3
REMARK VINA RESULT:      -6.9      6.162      9.590
REMARK  Name = 
REMARK  4 active torsions:
REMARK  status: ('A' for Active; 'I' for Inactive)
REMARK    1  A    between atoms: C_2  and  C_3
REMARK    2  A    between atoms: C_7  and  C_8
REMARK    3  A    between atoms: N_18  and  S_19
REMARK    4  A    between atoms: S_19  and  C_22
REMARK                            x       y       z     vdW  Elec       q    Type
REMARK                         _______ _______ _______ _____ _____    ______ ____
ROOT
ATOM      1  O   UNL     1      -1.357  11.587  19.390  0.00  0.00    +0.000 OA
ATOM      2  C   UNL     1      -0.437  11.817  20.166  0.00  0.00    +0.000 C 
ATOM      3  N   UNL     1       0.486  12.840  19.908  0.00  0.00    +0.000 N 
ATOM      4  C   UNL     1       0.215  13.736  18.768  0.00  0.00    +0.000 C 
ATOM      5  C   UNL     1       1.501  14.325  18.149  0.00  0.00    +0.000 C 
ATOM      6  N   UNL     1       2.419  14.897  19.191  0.00  0.00    +0.000 NA
ATOM      7  C   UNL     1       2.767  13.829  20.163  0.00  0.00    +0.000 C 
ATOM      8  C   UNL     1       1.511  13.302  20.853  0.00  0.00    +0.000 C 
ENDROOT
BRANCH   2   9
ATOM      9  C   UNL     1      -0.233  10.967  21.342  0.00  0.00    +0.000 A 
ATOM     10  C   UNL     1       0.533   9.817  21.446  0.00  0.00    +0.000 A 
ATOM     11  N   UNL     1       0.356   9.341  22.705  0.00  0.00    +0.000 N 
ATOM     12  N   UNL     1      -0.368  10.149  23.479  0.00  0.00    +0.000 NA
ATOM     13  C   UNL     1      -0.741  11.160  22.671  0.00  0.00    +0.000 A 
ATOM     14  H   UNL     1       0.700   8.473  23.102  0.00  0.00    +0.000 HD
BRANCH  13  15
ATOM     15  C   UNL     1      -1.609  12.214  23.206  0.00  0.00    +0.000 A 
ATOM     16  C   UNL     1      -2.946  11.919  23.526  0.00  0.00    +0.000 A 
ATOM     17  C   UNL     1      -3.811  12.920  23.969  0.00  0.00    +0.000 A 
ATOM     18  C   UNL     1      -3.342  14.220  24.094  0.00  0.00    +0.000 A 
ATOM     19  F   UNL     1      -4.174  15.189  24.496  0.00  0.00    +0.000 F 
ATOM     20  C   UNL     1      -2.020  14.535  23.796  0.00  0.00    +0.000 A 
ATOM     21  C   UNL     1      -1.156  13.534  23.348  0.00  0.00    +0.000 A 
ENDBRANCH  13  15
ENDBRANCH   2   9
BRANCH   6  22
ATOM     22  S   UNL     1       1.976  16.383  19.915  0.00  0.00    +0.000 S 
ATOM     23  O   UNL     1       0.901  16.149  20.857  0.00  0.00    +0.000 OA
ATOM     24  O   UNL     1       3.184  17.054  20.333  0.00  0.00    +0.000 OA
BRANCH  22  25
ATOM     25  C   UNL     1       1.304  17.310  18.563  0.00  0.00    +0.000 A 
ATOM     26  C   UNL     1       2.070  17.537  17.417  0.00  0.00    +0.000 A 
ATOM     27  C   UNL     1       1.491  18.170  16.313  0.00  0.00    +0.000 A 
ATOM     28  C   UNL     1       0.145  18.550  16.357  0.00  0.00    +0.000 A 
ATOM     29  C   UNL     1      -0.608  18.292  17.494  0.00  0.00    +0.000 A 
ATOM     30  F   UNL     1      -1.908  18.618  17.513  0.00  0.00    +0.000 F 
ATOM     31  C   UNL     1      -0.047  17.677  18.605  0.00  0.00    +0.000 A 
ENDBRANCH  22  25
ENDBRANCH   6  22
TORSDOF 4
ENDMDL
MODEL 4
REMARK VINA RESULT:      -6.8      7.279      8.636
REMARK  Name = 
REMARK  4 active torsions:
REMARK  status: ('A' for Active; 'I' for Inactive)
REMARK    1  A    between atoms: C_2  and  C_3
REMARK    2  A    between atoms: C_7  and  C_8
REMARK    3  A    between atoms: N_18  and  S_19
REMARK    4  A    between atoms: S_19  and  C_22
REMARK                            x       y       z     vdW  Elec       q    Type
REMARK                         _______ _______ _______ _____ _____    ______ ____
ROOT
ATOM      1  O   UNL     1       3.204   7.785  17.449  0.00  0.00    +0.000 OA
ATOM      2  C   UNL     1       2.565   7.798  18.494  0.00  0.00    +0.000 C 
ATOM      3  N   UNL     1       1.884   8.952  18.909  0.00  0.00    +0.000 N 
ATOM      4  C   UNL     1       1.823  10.087  17.968  0.00  0.00    +0.000 C 
ATOM      5  C   UNL     1       1.706  11.451  18.682  0.00  0.00    +0.000 C 
ATOM      6  N   UNL     1       0.634  11.450  19.732  0.00  0.00    +0.000 NA
ATOM      7  C   UNL     1       0.933  10.384  20.723  0.00  0.00    +0.000 C 
ATOM      8  C   UNL     1       0.958   9.015  20.046  0.00  0.00    +0.000 C 
ENDROOT
BRANCH   2   9
ATOM      9  C   UNL     1       2.568   6.629  19.377  0.00  0.00    +0.000 A 
ATOM     10  C   UNL     1       1.746   6.373  20.462  0.00  0.00    +0.000 A 
ATOM     11  N   UNL     1       2.172   5.205  21.008  0.00  0.00    +0.000 N 
ATOM     12  N   UNL     1       3.128   4.608  20.299  0.00  0.00    +0.000 NA
ATOM     13  C   UNL     1       3.391   5.456  19.288  0.00  0.00    +0.000 A 
ATOM     14  H   UNL     1       1.853   4.759  21.862  0.00  0.00    +0.000 HD
BRANCH  13  15
ATOM     15  C   UNL     1       4.453   5.119  18.335  0.00  0.00    +0.000 A 
ATOM     16  C   UNL     1       5.780   5.500  18.607  0.00  0.00    +0.000 A 
ATOM     17  C   UNL     1       6.796   5.254  17.684  0.00  0.00    +0.000 A 
ATOM     18  C   UNL     1       6.490   4.626  16.485  0.00  0.00    +0.000 A 
ATOM     19  F   UNL     1       7.459   4.408  15.585  0.00  0.00    +0.000 F 
ATOM     20  C   UNL     1       5.189   4.227  16.197  0.00  0.00    +0.000 A 
ATOM     21  C   UNL     1       4.171   4.478  17.119  0.00  0.00    +0.000 A 
ENDBRANCH  13  15
ENDBRANCH   2   9
BRANCH   6  22
ATOM     22  S   UNL     1      -0.995  11.480  19.209  0.00  0.00    +0.000 S 
ATOM     23  O   UNL     1      -1.087  12.256  17.989  0.00  0.00    +0.000 OA
ATOM     24  O   UNL     1      -1.505  10.130  19.258  0.00  0.00    +0.000 OA
BRANCH  22  25
ATOM     25  C   UNL     1      -1.816  12.396  20.484  0.00  0.00    +0.000 A 
ATOM     26  C   UNL     1      -3.190  12.640  20.401  0.00  0.00    +0.000 A 
ATOM     27  C   UNL     1      -3.847  13.263  21.465  0.00  0.00    +0.000 A 
ATOM     28  C   UNL     1      -3.129  13.616  22.614  0.00  0.00    +0.000 A 
ATOM     29  C   UNL     1      -1.771  13.340  22.690  0.00  0.00    +0.000 A 
ATOM     30  F   UNL     1      -1.098  13.639  23.810  0.00  0.00    +0.000 F 
ATOM     31  C   UNL     1      -1.099  12.735  21.637  0.00  0.00    +0.000 A 
ENDBRANCH  22  25
ENDBRANCH   6  22
TORSDOF 4
ENDMDL
MODEL 5
REMARK VINA RESULT:      -6.8      1.135      1.684
REMARK  Name = 
REMARK  4 active torsions:
REMARK  status: ('A' for Active; 'I' for Inactive)
REMARK    1  A    between atoms: C_2  and  C_3
REMARK    2  A    between atoms: C_7  and  C_8
REMARK    3  A    between atoms: N_18  and  S_19
REMARK    4  A    between atoms: S_19  and  C_22
REMARK                            x       y       z     vdW  Elec       q    Type
REMARK                         _______ _______ _______ _____ _____    ______ ____
ROOT
ATOM      1  O   UNL     1       8.615  16.311  21.022  0.00  0.00    +0.000 OA
ATOM      2  C   UNL     1       8.337  16.075  19.853  0.00  0.00    +0.000 C 
ATOM      3  N   UNL     1       7.030  15.732  19.477  0.00  0.00    +0.000 N 
ATOM      4  C   UNL     1       5.974  15.830  20.503  0.00  0.00    +0.000 C 
ATOM      5  C   UNL     1       4.810  14.844  20.261  0.00  0.00    +0.000 C 
ATOM      6  N   UNL     1       4.315  14.891  18.845  0.00  0.00    +0.000 NA
ATOM      7  C   UNL     1       5.442  14.578  17.930  0.00  0.00    +0.000 C 
ATOM      8  C   UNL     1       6.563  15.602  18.091  0.00  0.00    +0.000 C 
ENDROOT
BRANCH   2   9
ATOM      9  C   UNL     1       9.386  16.066  18.831  0.00  0.00    +0.000 A 
ATOM     10  C   UNL     1       9.952  17.147  18.174  0.00  0.00    +0.000 A 
ATOM     11  N   UNL     1      10.827  16.640  17.268  0.00  0.00    +0.000 N 
ATOM     12  N   UNL     1      10.975  15.319  17.358  0.00  0.00    +0.000 NA
ATOM     13  C   UNL     1      10.106  14.937  18.313  0.00  0.00    +0.000 A 
ATOM     14  H   UNL     1      11.356  17.138  16.559  0.00  0.00    +0.000 HD
BRANCH  13  15
ATOM     15  C   UNL     1       9.977  13.510  18.627  0.00  0.00    +0.000 A 
ATOM     16  C   UNL     1       9.245  12.672  17.767  0.00  0.00    +0.000 A 
ATOM     17  C   UNL     1       9.047  11.327  18.080  0.00  0.00    +0.000 A 
ATOM     18  C   UNL     1       9.581  10.815  19.255  0.00  0.00    +0.000 A 
ATOM     19  F   UNL     1       9.374   9.531  19.571  0.00  0.00    +0.000 F 
ATOM     20  C   UNL     1      10.320  11.620  20.115  0.00  0.00    +0.000 A 
ATOM     21  C   UNL     1      10.513  12.968  19.804  0.00  0.00    +0.000 A 
ENDBRANCH  13  15
ENDBRANCH   2   9
BRANCH   6  22
ATOM     22  S   UNL     1       3.386  16.247  18.370  0.00  0.00    +0.000 S 
ATOM     23  O   UNL     1       3.771  17.390  19.174  0.00  0.00    +0.000 OA
ATOM     24  O   UNL     1       3.411  16.323  16.928  0.00  0.00    +0.000 OA
BRANCH  22  25
ATOM     25  C   UNL     1       1.738  15.799  18.841  0.00  0.00    +0.000 A 
ATOM     26  C   UNL     1       1.348  14.457  18.841  0.00  0.00    +0.000 A 
ATOM     27  C   UNL     1       0.084  14.105  19.323  0.00  0.00    +0.000 A 
ATOM     28  C   UNL     1      -0.770  15.095  19.823  0.00  0.00    +0.000 A 
ATOM     29  C   UNL     1      -0.354  16.419  19.842  0.00  0.00    +0.000 A 
ATOM     30  F   UNL     1      -1.157  17.356  20.363  0.00  0.00    +0.000 F 
ATOM     31  C   UNL     1       0.892  16.790  19.354  0.00  0.00    +0.000 A 
ENDBRANCH  22  25
ENDBRANCH   6  22
TORSDOF 4
ENDMDL
MODEL 6
REMARK VINA RESULT:      -6.8      7.197      8.616
REMARK  Name = 
REMARK  4 active torsions:
REMARK  status: ('A' for Active; 'I' for Inactive)
REMARK    1  A    between atoms: C_2  and  C_3
REMARK    2  A    between atoms: C_7  and  C_8
REMARK    3  A    between atoms: N_18  and  S_19
REMARK    4  A    between atoms: S_19  and  C_22
REMARK                            x       y       z     vdW  Elec       q    Type
REMARK                         _______ _______ _______ _____ _____    ______ ____
ROOT
ATOM      1  O   UNL     1       3.093   7.849  17.401  0.00  0.00    +0.000 OA
ATOM      2  C   UNL     1       2.512   7.885  18.479  0.00  0.00    +0.000 C 
ATOM      3  N   UNL     1       1.880   9.056  18.919  0.00  0.00    +0.000 N 
ATOM      4  C   UNL     1       1.792  10.185  17.973  0.00  0.00    +0.000 C 
ATOM      5  C   UNL     1       1.744  11.557  18.679  0.00  0.00    +0.000 C 
ATOM      6  N   UNL     1       0.731  11.588  19.786  0.00  0.00    +0.000 NA
ATOM      7  C   UNL     1       1.060  10.524  20.769  0.00  0.00    +0.000 C 
ATOM      8  C   UNL     1       1.019   9.149  20.105  0.00  0.00    +0.000 C 
ENDROOT
BRANCH   2   9
ATOM      9  C   UNL     1       2.538   6.723  19.371  0.00  0.00    +0.000 A 
ATOM     10  C   UNL     1       1.706   6.448  20.444  0.00  0.00    +0.000 A 
ATOM     11  N   UNL     1       2.160   5.299  21.007  0.00  0.00    +0.000 N 
ATOM     12  N   UNL     1       3.149   4.728  20.320  0.00  0.00    +0.000 NA
ATOM     13  C   UNL     1       3.401   5.577  19.306  0.00  0.00    +0.000 A 
ATOM     14  H   UNL     1       1.841   4.849  21.859  0.00  0.00    +0.000 HD
BRANCH  13  15
ATOM     15  C   UNL     1       4.491   5.268  18.375  0.00  0.00    +0.000 A 
ATOM     16  C   UNL     1       4.206   4.616  17.162  0.00  0.00    +0.000 A 
ATOM     17  C   UNL     1       5.232   4.248  16.291  0.00  0.00    +0.000 A 
ATOM     18  C   UNL     1       6.548   4.531  16.631  0.00  0.00    +0.000 A 
ATOM     19  F   UNL     1       7.539   4.158  15.810  0.00  0.00    +0.000 F 
ATOM     20  C   UNL     1       6.855   5.186  17.819  0.00  0.00    +0.000 A 
ATOM     21  C   UNL     1       5.828   5.550  18.692  0.00  0.00    +0.000 A 
ENDBRANCH  13  15
ENDBRANCH   2   9
BRANCH   6  22
ATOM     22  S   UNL     1      -0.924  11.649  19.352  0.00  0.00    +0.000 S 
ATOM     23  O   UNL     1      -1.071  12.466  18.164  0.00  0.00    +0.000 OA
ATOM     24  O   UNL     1      -1.444  10.303  19.385  0.00  0.00    +0.000 OA
BRANCH  22  25
ATOM     25  C   UNL     1      -1.666  12.530  20.698  0.00  0.00    +0.000 A 
ATOM     26  C   UNL     1      -1.966  13.888  20.568  0.00  0.00    +0.000 A 
ATOM     27  C   UNL     1      -2.655  14.545  21.592  0.00  0.00    +0.000 A 
ATOM     28  C   UNL     1      -3.058  13.832  22.727  0.00  0.00    +0.000 A 
ATOM     29  C   UNL     1      -2.775  12.476  22.826  0.00  0.00    +0.000 A 
ATOM     30  F   UNL     1      -3.202  11.789  23.894  0.00  0.00    +0.000 F 
ATOM     31  C   UNL     1      -2.080  11.811  21.825  0.00  0.00    +0.000 A 
ENDBRANCH  22  25
ENDBRANCH   6  22
TORSDOF 4
ENDMDL
MODEL 7
REMARK VINA RESULT:      -6.7      7.344      8.731
REMARK  Name = 
REMARK  4 active torsions:
REMARK  status: ('A' for Active; 'I' for Inactive)
REMARK    1  A    between atoms: C_2  and  C_3
REMARK    2  A    between atoms: C_7  and  C_8
REMARK    3  A    between atoms: N_18  and  S_19
REMARK    4  A    between atoms: S_19  and  C_22
REMARK                            x       y       z     vdW  Elec       q    Type
REMARK                         _______ _______ _______ _____ _____    ______ ____
ROOT
ATOM      1  O   UNL     1       3.208   7.720  17.414  0.00  0.00    +0.000 OA
ATOM      2  C   UNL     1       2.584   7.725  18.468  0.00  0.00    +0.000 C 
ATOM      3  N   UNL     1       1.898   8.872  18.894  0.00  0.00    +0.000 N 
ATOM      4  C   UNL     1       1.812  10.007  17.955  0.00  0.00    +0.000 C 
ATOM      5  C   UNL     1       1.692  11.370  18.672  0.00  0.00    +0.000 C 
ATOM      6  N   UNL     1       0.635  11.356  19.738  0.00  0.00    +0.000 NA
ATOM      7  C   UNL     1       0.958  10.293  20.723  0.00  0.00    +0.000 C 
ATOM      8  C   UNL     1       0.987   8.925  20.045  0.00  0.00    +0.000 C 
ENDROOT
BRANCH   2   9
ATOM      9  C   UNL     1       2.611   6.556  19.350  0.00  0.00    +0.000 A 
ATOM     10  C   UNL     1       1.809   6.291  20.448  0.00  0.00    +0.000 A 
ATOM     11  N   UNL     1       2.254   5.127  20.986  0.00  0.00    +0.000 N 
ATOM     12  N   UNL     1       3.205   4.539  20.262  0.00  0.00    +0.000 NA
ATOM     13  C   UNL     1       3.444   5.390  19.247  0.00  0.00    +0.000 A 
ATOM     14  H   UNL     1       1.952   4.677  21.845  0.00  0.00    +0.000 HD
BRANCH  13  15
ATOM     15  C   UNL     1       4.494   5.063  18.277  0.00  0.00    +0.000 A 
ATOM     16  C   UNL     1       5.815   5.483  18.515  0.00  0.00    +0.000 A 
ATOM     17  C   UNL     1       6.819   5.247  17.574  0.00  0.00    +0.000 A 
ATOM     18  C   UNL     1       6.504   4.589  16.393  0.00  0.00    +0.000 A 
ATOM     19  F   UNL     1       7.458   4.381  15.477  0.00  0.00    +0.000 F 
ATOM     20  C   UNL     1       5.208   4.153  16.140  0.00  0.00    +0.000 A 
ATOM     21  C   UNL     1       4.203   4.394  17.080  0.00  0.00    +0.000 A 
ENDBRANCH  13  15
ENDBRANCH   2   9
BRANCH   6  22
ATOM     22  S   UNL     1      -1.002  11.370  19.237  0.00  0.00    +0.000 S 
ATOM     23  O   UNL     1      -1.175  12.380  18.212  0.00  0.00    +0.000 OA
ATOM     24  O   UNL     1      -1.408  10.006  18.998  0.00  0.00    +0.000 OA
BRANCH  22  25
ATOM     25  C   UNL     1      -1.865  11.927  20.681  0.00  0.00    +0.000 A 
ATOM     26  C   UNL     1      -1.327  11.702  21.951  0.00  0.00    +0.000 A 
ATOM     27  C   UNL     1      -1.958  12.244  23.074  0.00  0.00    +0.000 A 
ATOM     28  C   UNL     1      -3.108  13.027  22.916  0.00  0.00    +0.000 A 
ATOM     29  C   UNL     1      -3.612  13.263  21.644  0.00  0.00    +0.000 A 
ATOM     30  F   UNL     1      -4.686  14.049  21.495  0.00  0.00    +0.000 F 
ATOM     31  C   UNL     1      -3.007  12.720  20.518  0.00  0.00    +0.000 A 
ENDBRANCH  22  25
ENDBRANCH   6  22
TORSDOF 4
ENDMDL
MODEL 8
REMARK VINA RESULT:      -6.7      8.309     11.836
REMARK  Name = 
REMARK  4 active torsions:
REMARK  status: ('A' for Active; 'I' for Inactive)
REMARK    1  A    between atoms: C_2  and  C_3
REMARK    2  A    between atoms: C_7  and  C_8
REMARK    3  A    between atoms: N_18  and  S_19
REMARK    4  A    between atoms: S_19  and  C_22
REMARK                            x       y       z     vdW  Elec       q    Type
REMARK                         _______ _______ _______ _____ _____    ______ ____
ROOT
ATOM      1  O   UNL     1       2.155   9.233  18.345  0.00  0.00    +0.000 OA
ATOM      2  C   UNL     1       1.859   8.447  19.237  0.00  0.00    +0.000 C 
ATOM      3  N   UNL     1       2.124   7.076  19.108  0.00  0.00    +0.000 N 
ATOM      4  C   UNL     1       2.918   6.638  17.944  0.00  0.00    +0.000 C 
ATOM      5  C   UNL     1       2.592   5.195  17.504  0.00  0.00    +0.000 C 
ATOM      6  N   UNL     1       2.594   4.237  18.660  0.00  0.00    +0.000 NA
ATOM      7  C   UNL     1       1.602   4.696  19.667  0.00  0.00    +0.000 C 
ATOM      8  C   UNL     1       1.967   6.087  20.182  0.00  0.00    +0.000 C 
ENDROOT
BRANCH   2   9
ATOM      9  C   UNL     1       1.144   8.915  20.427  0.00  0.00    +0.000 A 
ATOM     10  C   UNL     1       1.467   8.706  21.758  0.00  0.00    +0.000 A 
ATOM     11  N   UNL     1       0.473   9.266  22.494  0.00  0.00    +0.000 N 
ATOM     12  N   UNL     1      -0.416   9.935  21.760  0.00  0.00    +0.000 NA
ATOM     13  C   UNL     1      -0.029   9.741  20.485  0.00  0.00    +0.000 A 
ATOM     14  H   UNL     1       0.341   9.231  23.499  0.00  0.00    +0.000 HD
BRANCH  13  15
ATOM     15  C   UNL     1      -0.839  10.309  19.402  0.00  0.00    +0.000 A 
ATOM     16  C   UNL     1      -1.627   9.460  18.605  0.00  0.00    +0.000 A 
ATOM     17  C   UNL     1      -2.351   9.965  17.525  0.00  0.00    +0.000 A 
ATOM     18  C   UNL     1      -2.288  11.322  17.238  0.00  0.00    +0.000 A 
ATOM     19  F   UNL     1      -2.962  11.808  16.187  0.00  0.00    +0.000 F 
ATOM     20  C   UNL     1      -1.526  12.184  18.019  0.00  0.00    +0.000 A 
ATOM     21  C   UNL     1      -0.798  11.677  19.097  0.00  0.00    +0.000 A 
ENDBRANCH  13  15
ENDBRANCH   2   9
BRANCH   6  22
ATOM     22  S   UNL     1       4.107   3.791  19.323  0.00  0.00    +0.000 S 
ATOM     23  O   UNL     1       4.379   4.618  20.482  0.00  0.00    +0.000 OA
ATOM     24  O   UNL     1       4.143   2.351  19.426  0.00  0.00    +0.000 OA
BRANCH  22  25
ATOM     25  C   UNL     1       5.259   4.254  18.059  0.00  0.00    +0.000 A 
ATOM     26  C   UNL     1       6.361   5.053  18.371  0.00  0.00    +0.000 A 
ATOM     27  C   UNL     1       7.323   5.317  17.392  0.00  0.00    +0.000 A 
ATOM     28  C   UNL     1       7.187   4.760  16.116  0.00  0.00    +0.000 A 
ATOM     29  C   UNL     1       6.099   3.944  15.832  0.00  0.00    +0.000 A 
ATOM     30  F   UNL     1       5.997   3.378  14.622  0.00  0.00    +0.000 F 
ATOM     31  C   UNL     1       5.127   3.683  16.787  0.00  0.00    +0.000 A 
ENDBRANCH  22  25
ENDBRANCH   6  22
TORSDOF 4
ENDMDL
MODEL 9
REMARK VINA RESULT:      -6.6      8.271     11.831
REMARK  Name = 
REMARK  4 active torsions:
REMARK  status: ('A' for Active; 'I' for Inactive)
REMARK    1  A    between atoms: C_2  and  C_3
REMARK    2  A    between atoms: C_7  and  C_8
REMARK    3  A    between atoms: N_18  and  S_19
REMARK    4  A    between atoms: S_19  and  C_22
REMARK                            x       y       z     vdW  Elec       q    Type
REMARK                         _______ _______ _______ _____ _____    ______ ____
ROOT
ATOM      1  O   UNL     1       2.188   9.166  18.470  0.00  0.00    +0.000 OA
ATOM      2  C   UNL     1       1.837   8.400  19.359  0.00  0.00    +0.000 C 
ATOM      3  N   UNL     1       2.036   7.017  19.239  0.00  0.00    +0.000 N 
ATOM      4  C   UNL     1       2.830   6.536  18.092  0.00  0.00    +0.000 C 
ATOM      5  C   UNL     1       2.441   5.108  17.651  0.00  0.00    +0.000 C 
ATOM      6  N   UNL     1       2.374   4.156  18.809  0.00  0.00    +0.000 NA
ATOM      7  C   UNL     1       1.388   4.668  19.796  0.00  0.00    +0.000 C 
ATOM      8  C   UNL     1       1.811   6.041  20.313  0.00  0.00    +0.000 C 
ENDROOT
BRANCH   2   9
ATOM      9  C   UNL     1       1.124   8.907  20.534  0.00  0.00    +0.000 A 
ATOM     10  C   UNL     1       1.434   8.721  21.871  0.00  0.00    +0.000 A 
ATOM     11  N   UNL     1       0.447   9.316  22.588  0.00  0.00    +0.000 N 
ATOM     12  N   UNL     1      -0.424   9.986  21.835  0.00  0.00    +0.000 NA
ATOM     13  C   UNL     1      -0.033   9.757  20.567  0.00  0.00    +0.000 A 
ATOM     14  H   UNL     1       0.308   9.305  23.594  0.00  0.00    +0.000 HD
BRANCH  13  15
ATOM     15  C   UNL     1      -0.824  10.317  19.467  0.00  0.00    +0.000 A 
ATOM     16  C   UNL     1      -1.540   9.456  18.616  0.00  0.00    +0.000 A 
ATOM     17  C   UNL     1      -2.243   9.958  17.520  0.00  0.00    +0.000 A 
ATOM     18  C   UNL     1      -2.232  11.323  17.272  0.00  0.00    +0.000 A 
ATOM     19  F   UNL     1      -2.886  11.807  16.207  0.00  0.00    +0.000 F 
ATOM     20  C   UNL     1      -1.543  12.197  18.106  0.00  0.00    +0.000 A 
ATOM     21  C   UNL     1      -0.836  11.694  19.199  0.00  0.00    +0.000 A 
ENDBRANCH  13  15
ENDBRANCH   2   9
BRANCH   6  22
ATOM     22  S   UNL     1       3.851   3.639  19.502  0.00  0.00    +0.000 S 
ATOM     23  O   UNL     1       4.165   4.486  20.636  0.00  0.00    +0.000 OA
ATOM     24  O   UNL     1       3.796   2.204  19.653  0.00  0.00    +0.000 OA
BRANCH  22  25
ATOM     25  C   UNL     1       5.040   3.987  18.235  0.00  0.00    +0.000 A 
ATOM     26  C   UNL     1       4.853   3.492  16.942  0.00  0.00    +0.000 A 
ATOM     27  C   UNL     1       5.736   3.866  15.925  0.00  0.00    +0.000 A 
ATOM     28  C   UNL     1       6.783   4.751  16.204  0.00  0.00    +0.000 A 
ATOM     29  C   UNL     1       6.936   5.255  17.489  0.00  0.00    +0.000 A 
ATOM     30  F   UNL     1       7.914   6.136  17.740  0.00  0.00    +0.000 F 
ATOM     31  C   UNL     1       6.078   4.883  18.515  0.00  0.00    +0.000 A 
ENDBRANCH  22  25
ENDBRANCH   6  22
TORSDOF 4
ENDMDL
