MODEL 1
REMARK VINA RESULT:      -8.8      0.000      0.000
REMARK  Name = 
REMARK  2 active torsions:
REMARK  status: ('A' for Active; 'I' for Inactive)
REMARK    1  A    between atoms: C_4  and  C_5
REMARK    2  A    between atoms: C_10  and  C_11
REMARK                            x       y       z     vdW  Elec       q    Type
REMARK                         _______ _______ _______ _____ _____    ______ ____
ROOT
ATOM      1  C   UNL     1       2.518   5.169  18.463  0.00  0.00    +0.000 C 
ATOM      2  O   UNL     1       1.732   5.009  19.398  0.00  0.00    +0.000 OA
ATOM      3  N   UNL     1       2.882   6.379  17.909  0.00  0.00    +0.000 N 
ATOM      4  C   UNL     1       2.403   7.567  18.376  0.00  0.00    +0.000 A 
ATOM      5  N   UNL     1       1.712   7.805  19.455  0.00  0.00    +0.000 NA
ATOM      6  C   UNL     1       1.396   9.149  19.525  0.00  0.00    +0.000 A 
ATOM      7  C   UNL     1       1.847   9.904  18.458  0.00  0.00    +0.000 A 
ATOM      8  S   UNL     1       2.756   8.910  17.386  0.00  0.00    +0.000 S 
ATOM      9  H   UNL     1       3.423   6.427  17.059  0.00  0.00    +0.000 HD
ENDROOT
BRANCH   1  13
ATOM     10  O   UNL     1       4.232   2.473  20.962  0.00  0.00    +0.000 OA
ATOM     11  C   UNL     1       4.330   2.909  19.819  0.00  0.00    +0.000 C 
ATOM     12  C   UNL     1       3.224   2.769  18.799  0.00  0.00    +0.000 C 
ATOM     13  C   UNL     1       3.188   3.945  17.830  0.00  0.00    +0.000 C 
ATOM     14  C   UNL     1       4.567   4.247  17.293  0.00  0.00    +0.000 A 
ATOM     15  C   UNL     1       4.748   4.794  16.018  0.00  0.00    +0.000 A 
ATOM     16  C   UNL     1       6.027   5.142  15.585  0.00  0.00    +0.000 A 
ATOM     17  C   UNL     1       7.124   4.968  16.431  0.00  0.00    +0.000 A 
ATOM     18  C   UNL     1       6.950   4.427  17.705  0.00  0.00    +0.000 A 
ATOM     19  C   UNL     1       5.677   4.047  18.120  0.00  0.00    +0.000 A 
ATOM     20  N   UNL     1       5.492   3.498  19.393  0.00  0.00    +0.000 N 
ATOM     21  H   UNL     1       6.267   3.450  20.044  0.00  0.00    +0.000 HD
ENDBRANCH   1  13
BRANCH   6  22
ATOM     22  C   UNL     1       0.618   9.657  20.647  0.00  0.00    +0.000 A 
ATOM     23  C   UNL     1      -0.335  10.665  20.413  0.00  0.00    +0.000 A 
ATOM     24  C   UNL     1      -1.114  11.174  21.451  0.00  0.00    +0.000 A 
ATOM     25  C   UNL     1      -0.953  10.664  22.733  0.00  0.00    +0.000 A 
ATOM     26  F   UNL     1      -1.705  11.144  23.733  0.00  0.00    +0.000 F 
ATOM     27  C   UNL     1      -0.024   9.661  22.976  0.00  0.00    +0.000 A 
ATOM     28  F   UNL     1       0.121   9.165  24.212  0.00  0.00    +0.000 F 
ATOM     29  C   UNL     1       0.762   9.152  21.945  0.00  0.00    +0.000 A 
ENDBRANCH   6  22
TORSDOF 2
ENDMDL
MODEL 2
REMARK VINA RESULT:      -8.8      3.288      4.642
REMARK  Name = 
REMARK  2 active torsions:
REMARK  status: ('A' for Active; 'I' for Inactive)
REMARK    1  A    between atoms: C_4  and  C_5
REMARK    2  A    between atoms: C_10  and  C_11
REMARK                            x       y       z     vdW  Elec       q    Type
REMARK                         _______ _______ _______ _____ _____    ______ ____
ROOT
ATOM      1  C   UNL     1       2.547   6.812  19.292  0.00  0.00    +0.000 C 
ATOM      2  O   UNL     1       2.068   6.929  18.164  0.00  0.00    +0.000 OA
ATOM      3  N   UNL     1       2.212   7.565  20.398  0.00  0.00    +0.000 N 
ATOM      4  C   UNL     1       1.261   8.541  20.352  0.00  0.00    +0.000 A 
ATOM      5  N   UNL     1       0.418   8.820  19.398  0.00  0.00    +0.000 NA
ATOM      6  C   UNL     1      -0.344   9.919  19.750  0.00  0.00    +0.000 A 
ATOM      7  C   UNL     1      -0.031  10.468  20.980  0.00  0.00    +0.000 A 
ATOM      8  S   UNL     1       1.195   9.530  21.740  0.00  0.00    +0.000 S 
ATOM      9  H   UNL     1       2.741   7.506  21.255  0.00  0.00    +0.000 HD
ENDROOT
BRANCH   1  13
ATOM     10  O   UNL     1       4.935   5.773  16.182  0.00  0.00    +0.000 OA
ATOM     11  C   UNL     1       4.462   5.310  17.216  0.00  0.00    +0.000 C 
ATOM     12  C   UNL     1       4.781   5.876  18.579  0.00  0.00    +0.000 C 
ATOM     13  C   UNL     1       3.610   5.737  19.545  0.00  0.00    +0.000 C 
ATOM     14  C   UNL     1       3.044   4.337  19.512  0.00  0.00    +0.000 A 
ATOM     15  C   UNL     1       2.442   3.767  20.639  0.00  0.00    +0.000 A 
ATOM     16  C   UNL     1       1.852   2.507  20.552  0.00  0.00    +0.000 A 
ATOM     17  C   UNL     1       1.839   1.823  19.335  0.00  0.00    +0.000 A 
ATOM     18  C   UNL     1       2.433   2.388  18.205  0.00  0.00    +0.000 A 
ATOM     19  C   UNL     1       3.053   3.629  18.305  0.00  0.00    +0.000 A 
ATOM     20  N   UNL     1       3.657   4.201  17.181  0.00  0.00    +0.000 N 
ATOM     21  H   UNL     1       3.575   3.753  16.276  0.00  0.00    +0.000 HD
ENDBRANCH   1  13
BRANCH   6  22
ATOM     22  C   UNL     1      -1.358  10.425  18.834  0.00  0.00    +0.000 A 
ATOM     23  C   UNL     1      -2.270  11.392  19.297  0.00  0.00    +0.000 A 
ATOM     24  C   UNL     1      -3.250  11.917  18.455  0.00  0.00    +0.000 A 
ATOM     25  C   UNL     1      -3.313  11.487  17.136  0.00  0.00    +0.000 A 
ATOM     26  F   UNL     1      -4.247  11.995  16.321  0.00  0.00    +0.000 F 
ATOM     27  C   UNL     1      -2.411  10.543  16.664  0.00  0.00    +0.000 A 
ATOM     28  F   UNL     1      -2.470  10.137  15.388  0.00  0.00    +0.000 F 
ATOM     29  C   UNL     1      -1.434  10.008  17.501  0.00  0.00    +0.000 A 
ENDBRANCH   6  22
TORSDOF 2
ENDMDL
MODEL 3
REMARK VINA RESULT:      -8.7      2.975      4.472
REMARK  Name = 
REMARK  2 active torsions:
REMARK  status: ('A' for Active; 'I' for Inactive)
REMARK    1  A    between atoms: C_4  and  C_5
REMARK    2  A    between atoms: C_10  and  C_11
REMARK                            x       y       z     vdW  Elec       q    Type
REMARK                         _______ _______ _______ _____ _____    ______ ____
ROOT
ATOM      1  C   UNL     1       2.588   6.801  19.359  0.00  0.00    +0.000 C 
ATOM      2  O   UNL     1       2.112   6.995  18.240  0.00  0.00    +0.000 OA
ATOM      3  N   UNL     1       2.256   7.484  20.510  0.00  0.00    +0.000 N 
ATOM      4  C   UNL     1       1.313   8.468  20.527  0.00  0.00    +0.000 A 
ATOM      5  N   UNL     1       0.474   8.815  19.592  0.00  0.00    +0.000 NA
ATOM      6  C   UNL     1      -0.280   9.894  20.013  0.00  0.00    +0.000 A 
ATOM      7  C   UNL     1       0.035  10.360  21.277  0.00  0.00    +0.000 A 
ATOM      8  S   UNL     1       1.252   9.365  21.976  0.00  0.00    +0.000 S 
ATOM      9  H   UNL     1       2.784   7.366  21.363  0.00  0.00    +0.000 HD
ENDROOT
BRANCH   1  13
ATOM     10  O   UNL     1       4.907   5.878  16.161  0.00  0.00    +0.000 OA
ATOM     11  C   UNL     1       4.447   5.374  17.182  0.00  0.00    +0.000 C 
ATOM     12  C   UNL     1       4.797   5.874  18.563  0.00  0.00    +0.000 C 
ATOM     13  C   UNL     1       3.643   5.704  19.544  0.00  0.00    +0.000 C 
ATOM     14  C   UNL     1       3.059   4.313  19.457  0.00  0.00    +0.000 A 
ATOM     15  C   UNL     1       2.471   3.700  20.569  0.00  0.00    +0.000 A 
ATOM     16  C   UNL     1       1.864   2.452  20.436  0.00  0.00    +0.000 A 
ATOM     17  C   UNL     1       1.821   1.824  19.189  0.00  0.00    +0.000 A 
ATOM     18  C   UNL     1       2.400   2.433  18.076  0.00  0.00    +0.000 A 
ATOM     19  C   UNL     1       3.038   3.661  18.220  0.00  0.00    +0.000 A 
ATOM     20  N   UNL     1       3.628   4.277  17.111  0.00  0.00    +0.000 N 
ATOM     21  H   UNL     1       3.524   3.871  16.189  0.00  0.00    +0.000 HD
ENDBRANCH   1  13
BRANCH   6  22
ATOM     22  C   UNL     1      -1.288  10.466  19.131  0.00  0.00    +0.000 A 
ATOM     23  C   UNL     1      -1.302  10.084  17.776  0.00  0.00    +0.000 A 
ATOM     24  C   UNL     1      -2.256  10.593  16.895  0.00  0.00    +0.000 A 
ATOM     25  C   UNL     1      -3.213  11.480  17.370  0.00  0.00    +0.000 A 
ATOM     26  F   UNL     1      -4.136  11.965  16.529  0.00  0.00    +0.000 F 
ATOM     27  C   UNL     1      -3.218  11.856  18.706  0.00  0.00    +0.000 A 
ATOM     28  F   UNL     1      -4.149  12.704  19.162  0.00  0.00    +0.000 F 
ATOM     29  C   UNL     1      -2.265  11.357  19.591  0.00  0.00    +0.000 A 
ENDBRANCH   6  22
TORSDOF 2
ENDMDL
MODEL 4
REMARK VINA RESULT:      -8.6      0.526      1.278
REMARK  Name = 
REMARK  2 active torsions:
REMARK  status: ('A' for Active; 'I' for Inactive)
REMARK    1  A    between atoms: C_4  and  C_5
REMARK    2  A    between atoms: C_10  and  C_11
REMARK                            x       y       z     vdW  Elec       q    Type
REMARK                         _______ _______ _______ _____ _____    ______ ____
ROOT
ATOM      1  C   UNL     1       2.541   5.134  18.317  0.00  0.00    +0.000 C 
ATOM      2  O   UNL     1       1.715   4.953  19.213  0.00  0.00    +0.000 OA
ATOM      3  N   UNL     1       2.933   6.356  17.812  0.00  0.00    +0.000 N 
ATOM      4  C   UNL     1       2.441   7.534  18.291  0.00  0.00    +0.000 A 
ATOM      5  N   UNL     1       1.706   7.746  19.347  0.00  0.00    +0.000 NA
ATOM      6  C   UNL     1       1.395   9.090  19.441  0.00  0.00    +0.000 A 
ATOM      7  C   UNL     1       1.894   9.871  18.415  0.00  0.00    +0.000 A 
ATOM      8  S   UNL     1       2.841   8.901  17.355  0.00  0.00    +0.000 S 
ATOM      9  H   UNL     1       3.510   6.424  16.987  0.00  0.00    +0.000 HD
ENDROOT
BRANCH   1  13
ATOM     10  O   UNL     1       4.221   2.410  20.808  0.00  0.00    +0.000 OA
ATOM     11  C   UNL     1       4.340   2.864  19.674  0.00  0.00    +0.000 C 
ATOM     12  C   UNL     1       3.255   2.733  18.630  0.00  0.00    +0.000 C 
ATOM     13  C   UNL     1       3.231   3.923  17.678  0.00  0.00    +0.000 C 
ATOM     14  C   UNL     1       4.618   4.242  17.173  0.00  0.00    +0.000 A 
ATOM     15  C   UNL     1       4.821   4.810  15.911  0.00  0.00    +0.000 A 
ATOM     16  C   UNL     1       6.106   5.172  15.509  0.00  0.00    +0.000 A 
ATOM     17  C   UNL     1       7.187   4.991  16.374  0.00  0.00    +0.000 A 
ATOM     18  C   UNL     1       6.991   4.430  17.636  0.00  0.00    +0.000 A 
ATOM     19  C   UNL     1       5.713   4.036  18.019  0.00  0.00    +0.000 A 
ATOM     20  N   UNL     1       5.506   3.466  19.280  0.00  0.00    +0.000 N 
ATOM     21  H   UNL     1       6.268   3.413  19.945  0.00  0.00    +0.000 HD
ENDBRANCH   1  13
BRANCH   6  22
ATOM     22  C   UNL     1       0.573   9.571  20.543  0.00  0.00    +0.000 A 
ATOM     23  C   UNL     1       0.562   8.847  21.750  0.00  0.00    +0.000 A 
ATOM     24  C   UNL     1      -0.197   9.274  22.839  0.00  0.00    +0.000 A 
ATOM     25  C   UNL     1      -0.942  10.441  22.730  0.00  0.00    +0.000 A 
ATOM     26  F   UNL     1      -1.667  10.860  23.776  0.00  0.00    +0.000 F 
ATOM     27  C   UNL     1      -0.932  11.171  21.549  0.00  0.00    +0.000 A 
ATOM     28  F   UNL     1      -1.645  12.301  21.451  0.00  0.00    +0.000 F 
ATOM     29  C   UNL     1      -0.181  10.747  20.455  0.00  0.00    +0.000 A 
ENDBRANCH   6  22
TORSDOF 2
ENDMDL
MODEL 5
REMARK VINA RESULT:      -8.5      4.290      8.666
REMARK  Name = 
REMARK  2 active torsions:
REMARK  status: ('A' for Active; 'I' for Inactive)
REMARK    1  A    between atoms: C_4  and  C_5
REMARK    2  A    between atoms: C_10  and  C_11
REMARK                            x       y       z     vdW  Elec       q    Type
REMARK                         _______ _______ _______ _____ _____    ______ ____
ROOT
ATOM      1  C   UNL     1       1.307   9.185  19.450  0.00  0.00    +0.000 C 
ATOM      2  O   UNL     1       1.905   9.447  18.405  0.00  0.00    +0.000 OA
ATOM      3  N   UNL     1       1.417   8.018  20.176  0.00  0.00    +0.000 N 
ATOM      4  C   UNL     1       2.248   7.004  19.802  0.00  0.00    +0.000 A 
ATOM      5  N   UNL     1       3.165   6.995  18.875  0.00  0.00    +0.000 NA
ATOM      6  C   UNL     1       3.747   5.743  18.801  0.00  0.00    +0.000 A 
ATOM      7  C   UNL     1       3.225   4.811  19.680  0.00  0.00    +0.000 A 
ATOM      8  S   UNL     1       2.031   5.553  20.671  0.00  0.00    +0.000 S 
ATOM      9  H   UNL     1       0.797   7.816  20.946  0.00  0.00    +0.000 HD
ENDROOT
BRANCH   1  13
ATOM     10  O   UNL     1      -2.018  10.106  17.318  0.00  0.00    +0.000 OA
ATOM     11  C   UNL     1      -1.245  10.596  18.135  0.00  0.00    +0.000 C 
ATOM     12  C   UNL     1      -1.069  10.033  19.526  0.00  0.00    +0.000 C 
ATOM     13  C   UNL     1       0.351  10.225  20.046  0.00  0.00    +0.000 C 
ATOM     14  C   UNL     1       0.821  11.643  19.828  0.00  0.00    +0.000 A 
ATOM     15  C   UNL     1       1.743  12.246  20.690  0.00  0.00    +0.000 A 
ATOM     16  C   UNL     1       2.224  13.525  20.413  0.00  0.00    +0.000 A 
ATOM     17  C   UNL     1       1.804  14.196  19.262  0.00  0.00    +0.000 A 
ATOM     18  C   UNL     1       0.889  13.599  18.395  0.00  0.00    +0.000 A 
ATOM     19  C   UNL     1       0.384  12.337  18.694  0.00  0.00    +0.000 A 
ATOM     20  N   UNL     1      -0.539  11.732  17.835  0.00  0.00    +0.000 N 
ATOM     21  H   UNL     1      -0.780  12.174  16.955  0.00  0.00    +0.000 HD
ENDBRANCH   1  13
BRANCH   6  22
ATOM     22  C   UNL     1       4.801   5.487  17.828  0.00  0.00    +0.000 A 
ATOM     23  C   UNL     1       4.592   5.857  16.486  0.00  0.00    +0.000 A 
ATOM     24  C   UNL     1       5.575   5.646  15.521  0.00  0.00    +0.000 A 
ATOM     25  C   UNL     1       6.783   5.073  15.897  0.00  0.00    +0.000 A 
ATOM     26  F   UNL     1       7.734   4.875  14.974  0.00  0.00    +0.000 F 
ATOM     27  C   UNL     1       7.007   4.714  17.219  0.00  0.00    +0.000 A 
ATOM     28  F   UNL     1       8.177   4.170  17.579  0.00  0.00    +0.000 F 
ATOM     29  C   UNL     1       6.027   4.916  18.188  0.00  0.00    +0.000 A 
ENDBRANCH   6  22
TORSDOF 2
ENDMDL
MODEL 6
REMARK VINA RESULT:      -8.3      3.062      3.718
REMARK  Name = 
REMARK  2 active torsions:
REMARK  status: ('A' for Active; 'I' for Inactive)
REMARK    1  A    between atoms: C_4  and  C_5
REMARK    2  A    between atoms: C_10  and  C_11
REMARK                            x       y       z     vdW  Elec       q    Type
REMARK                         _______ _______ _______ _____ _____    ______ ____
ROOT
ATOM      1  C   UNL     1       2.518   7.627  18.123  0.00  0.00    +0.000 C 
ATOM      2  O   UNL     1       2.653   8.584  17.360  0.00  0.00    +0.000 OA
ATOM      3  N   UNL     1       1.948   7.667  19.378  0.00  0.00    +0.000 N 
ATOM      4  C   UNL     1       1.438   8.814  19.911  0.00  0.00    +0.000 A 
ATOM      5  N   UNL     1       1.233   9.964  19.334  0.00  0.00    +0.000 NA
ATOM      6  C   UNL     1       0.739  10.870  20.254  0.00  0.00    +0.000 A 
ATOM      7  C   UNL     1       0.604  10.374  21.538  0.00  0.00    +0.000 A 
ATOM      8  S   UNL     1       1.036   8.709  21.564  0.00  0.00    +0.000 S 
ATOM      9  H   UNL     1       1.994   6.875  20.002  0.00  0.00    +0.000 HD
ENDROOT
BRANCH   1  13
ATOM     10  O   UNL     1       2.037   4.557  20.729  0.00  0.00    +0.000 OA
ATOM     11  C   UNL     1       2.762   4.919  19.808  0.00  0.00    +0.000 C 
ATOM     12  C   UNL     1       2.246   5.133  18.405  0.00  0.00    +0.000 C 
ATOM     13  C   UNL     1       3.001   6.242  17.680  0.00  0.00    +0.000 C 
ATOM     14  C   UNL     1       4.494   6.069  17.831  0.00  0.00    +0.000 A 
ATOM     15  C   UNL     1       5.382   6.508  16.843  0.00  0.00    +0.000 A 
ATOM     16  C   UNL     1       6.757   6.412  17.050  0.00  0.00    +0.000 A 
ATOM     17  C   UNL     1       7.250   5.902  18.253  0.00  0.00    +0.000 A 
ATOM     18  C   UNL     1       6.370   5.467  19.244  0.00  0.00    +0.000 A 
ATOM     19  C   UNL     1       4.998   5.529  19.019  0.00  0.00    +0.000 A 
ATOM     20  N   UNL     1       4.108   5.090  20.004  0.00  0.00    +0.000 N 
ATOM     21  H   UNL     1       4.455   4.802  20.912  0.00  0.00    +0.000 HD
ENDBRANCH   1  13
BRANCH   6  22
ATOM     22  C   UNL     1       0.436  12.234  19.841  0.00  0.00    +0.000 A 
ATOM     23  C   UNL     1      -0.826  12.775  20.153  0.00  0.00    +0.000 A 
ATOM     24  C   UNL     1      -1.159  14.080  19.793  0.00  0.00    +0.000 A 
ATOM     25  C   UNL     1      -0.222  14.860  19.128  0.00  0.00    +0.000 A 
ATOM     26  F   UNL     1      -0.534  16.117  18.786  0.00  0.00    +0.000 F 
ATOM     27  C   UNL     1       1.030  14.343  18.824  0.00  0.00    +0.000 A 
ATOM     28  F   UNL     1       1.935  15.102  18.191  0.00  0.00    +0.000 F 
ATOM     29  C   UNL     1       1.368  13.038  19.176  0.00  0.00    +0.000 A 
ENDBRANCH   6  22
TORSDOF 2
ENDMDL
MODEL 7
REMARK VINA RESULT:      -8.2      2.820      3.592
REMARK  Name = 
REMARK  2 active torsions:
REMARK  status: ('A' for Active; 'I' for Inactive)
REMARK    1  A    between atoms: C_4  and  C_5
REMARK    2  A    between atoms: C_10  and  C_11
REMARK                            x       y       z     vdW  Elec       q    Type
REMARK                         _______ _______ _______ _____ _____    ______ ____
ROOT
ATOM      1  C   UNL     1       2.503   7.620  18.139  0.00  0.00    +0.000 C 
ATOM      2  O   UNL     1       2.600   8.583  17.378  0.00  0.00    +0.000 OA
ATOM      3  N   UNL     1       1.959   7.640  19.406  0.00  0.00    +0.000 N 
ATOM      4  C   UNL     1       1.435   8.772  19.955  0.00  0.00    +0.000 A 
ATOM      5  N   UNL     1       1.191   9.921  19.389  0.00  0.00    +0.000 NA
ATOM      6  C   UNL     1       0.697  10.811  20.324  0.00  0.00    +0.000 A 
ATOM      7  C   UNL     1       0.601  10.305  21.608  0.00  0.00    +0.000 A 
ATOM      8  S   UNL     1       1.071   8.650  21.616  0.00  0.00    +0.000 S 
ATOM      9  H   UNL     1       2.037   6.847  20.025  0.00  0.00    +0.000 HD
ENDROOT
BRANCH   1  13
ATOM     10  O   UNL     1       2.027   4.499  20.685  0.00  0.00    +0.000 OA
ATOM     11  C   UNL     1       2.759   4.886  19.780  0.00  0.00    +0.000 C 
ATOM     12  C   UNL     1       2.258   5.118  18.374  0.00  0.00    +0.000 C 
ATOM     13  C   UNL     1       3.008   6.248  17.678  0.00  0.00    +0.000 C 
ATOM     14  C   UNL     1       4.501   6.090  17.845  0.00  0.00    +0.000 A 
ATOM     15  C   UNL     1       5.396   6.557  16.875  0.00  0.00    +0.000 A 
ATOM     16  C   UNL     1       6.770   6.474  17.098  0.00  0.00    +0.000 A 
ATOM     17  C   UNL     1       7.254   5.948  18.298  0.00  0.00    +0.000 A 
ATOM     18  C   UNL     1       6.367   5.486  19.271  0.00  0.00    +0.000 A 
ATOM     19  C   UNL     1       4.997   5.536  19.029  0.00  0.00    +0.000 A 
ATOM     20  N   UNL     1       4.100   5.069  19.995  0.00  0.00    +0.000 N 
ATOM     21  H   UNL     1       4.439   4.769  20.902  0.00  0.00    +0.000 HD
ENDBRANCH   1  13
BRANCH   6  22
ATOM     22  C   UNL     1       0.353  12.170  19.926  0.00  0.00    +0.000 A 
ATOM     23  C   UNL     1       1.192  12.845  19.019  0.00  0.00    +0.000 A 
ATOM     24  C   UNL     1       0.899  14.141  18.596  0.00  0.00    +0.000 A 
ATOM     25  C   UNL     1      -0.247  14.766  19.070  0.00  0.00    +0.000 A 
ATOM     26  F   UNL     1      -0.537  16.008  18.660  0.00  0.00    +0.000 F 
ATOM     27  C   UNL     1      -1.089  14.107  19.955  0.00  0.00    +0.000 A 
ATOM     28  F   UNL     1      -2.199  14.710  20.402  0.00  0.00    +0.000 F 
ATOM     29  C   UNL     1      -0.799  12.814  20.387  0.00  0.00    +0.000 A 
ENDBRANCH   6  22
TORSDOF 2
ENDMDL
MODEL 8
REMARK VINA RESULT:      -8.2      4.403      8.789
REMARK  Name = 
REMARK  2 active torsions:
REMARK  status: ('A' for Active; 'I' for Inactive)
REMARK    1  A    between atoms: C_4  and  C_5
REMARK    2  A    between atoms: C_10  and  C_11
REMARK                            x       y       z     vdW  Elec       q    Type
REMARK                         _______ _______ _______ _____ _____    ______ ____
ROOT
ATOM      1  C   UNL     1       1.299   9.287  19.368  0.00  0.00    +0.000 C 
ATOM      2  O   UNL     1       1.843   9.568  18.300  0.00  0.00    +0.000 OA
ATOM      3  N   UNL     1       1.455   8.112  20.073  0.00  0.00    +0.000 N 
ATOM      4  C   UNL     1       2.279   7.112  19.648  0.00  0.00    +0.000 A 
ATOM      5  N   UNL     1       3.150   7.124  18.679  0.00  0.00    +0.000 NA
ATOM      6  C   UNL     1       3.742   5.881  18.562  0.00  0.00    +0.000 A 
ATOM      7  C   UNL     1       3.273   4.932  19.453  0.00  0.00    +0.000 A 
ATOM      8  S   UNL     1       2.118   5.649  20.508  0.00  0.00    +0.000 S 
ATOM      9  H   UNL     1       0.874   7.894  20.869  0.00  0.00    +0.000 HD
ENDROOT
BRANCH   1  13
ATOM     10  O   UNL     1      -2.110  10.232  17.383  0.00  0.00    +0.000 OA
ATOM     11  C   UNL     1      -1.308  10.710  18.180  0.00  0.00    +0.000 C 
ATOM     12  C   UNL     1      -1.078  10.119  19.551  0.00  0.00    +0.000 C 
ATOM     13  C   UNL     1       0.360  10.308  20.021  0.00  0.00    +0.000 C 
ATOM     14  C   UNL     1       0.815  11.733  19.815  0.00  0.00    +0.000 A 
ATOM     15  C   UNL     1       1.766  12.323  20.655  0.00  0.00    +0.000 A 
ATOM     16  C   UNL     1       2.229  13.611  20.387  0.00  0.00    +0.000 A 
ATOM     17  C   UNL     1       1.763  14.303  19.267  0.00  0.00    +0.000 A 
ATOM     18  C   UNL     1       0.819  13.719  18.423  0.00  0.00    +0.000 A 
ATOM     19  C   UNL     1       0.331  12.448  18.714  0.00  0.00    +0.000 A 
ATOM     20  N   UNL     1      -0.620  11.856  17.878  0.00  0.00    +0.000 N 
ATOM     21  H   UNL     1      -0.897  12.314  17.017  0.00  0.00    +0.000 HD
ENDBRANCH   1  13
BRANCH   6  22
ATOM     22  C   UNL     1       4.752   5.648  17.538  0.00  0.00    +0.000 A 
ATOM     23  C   UNL     1       6.049   6.158  17.733  0.00  0.00    +0.000 A 
ATOM     24  C   UNL     1       7.054   5.950  16.789  0.00  0.00    +0.000 A 
ATOM     25  C   UNL     1       6.768   5.216  15.645  0.00  0.00    +0.000 A 
ATOM     26  F   UNL     1       7.732   5.006  14.739  0.00  0.00    +0.000 F 
ATOM     27  C   UNL     1       5.496   4.697  15.446  0.00  0.00    +0.000 A 
ATOM     28  F   UNL     1       5.227   3.980  14.346  0.00  0.00    +0.000 F 
ATOM     29  C   UNL     1       4.486   4.906  16.382  0.00  0.00    +0.000 A 
ENDBRANCH   6  22
TORSDOF 2
ENDMDL
MODEL 9
REMARK VINA RESULT:      -8.2      4.504      8.859
REMARK  Name = 
REMARK  2 active torsions:
REMARK  status: ('A' for Active; 'I' for Inactive)
REMARK    1  A    between atoms: C_4  and  C_5
REMARK    2  A    between atoms: C_10  and  C_11
REMARK                            x       y       z     vdW  Elec       q    Type
REMARK                         _______ _______ _______ _____ _____    ______ ____
ROOT
ATOM      1  C   UNL     1       0.976   9.849  19.296  0.00  0.00    +0.000 C 
ATOM      2  O   UNL     1       1.361   9.989  18.135  0.00  0.00    +0.000 OA
ATOM      3  N   UNL     1       1.213   8.755  20.101  0.00  0.00    +0.000 N 
ATOM      4  C   UNL     1       1.946   7.685  19.679  0.00  0.00    +0.000 A 
ATOM      5  N   UNL     1       2.665   7.559  18.599  0.00  0.00    +0.000 NA
ATOM      6  C   UNL     1       3.210   6.290  18.542  0.00  0.00    +0.000 A 
ATOM      7  C   UNL     1       2.860   5.464  19.594  0.00  0.00    +0.000 A 
ATOM      8  S   UNL     1       1.888   6.334  20.717  0.00  0.00    +0.000 S 
ATOM      9  H   UNL     1       0.753   8.647  20.993  0.00  0.00    +0.000 HD
ENDROOT
BRANCH   1  13
ATOM     10  O   UNL     1      -2.176  11.343  17.226  0.00  0.00    +0.000 OA
ATOM     11  C   UNL     1      -1.350  11.672  18.072  0.00  0.00    +0.000 C 
ATOM     12  C   UNL     1      -1.265  11.004  19.425  0.00  0.00    +0.000 C 
ATOM     13  C   UNL     1       0.163  10.968  19.956  0.00  0.00    +0.000 C 
ATOM     14  C   UNL     1       0.823  12.321  19.828  0.00  0.00    +0.000 A 
ATOM     15  C   UNL     1       1.810  12.738  20.728  0.00  0.00    +0.000 A 
ATOM     16  C   UNL     1       2.461  13.955  20.532  0.00  0.00    +0.000 A 
ATOM     17  C   UNL     1       2.147  14.747  19.427  0.00  0.00    +0.000 A 
ATOM     18  C   UNL     1       1.167  14.335  18.523  0.00  0.00    +0.000 A 
ATOM     19  C   UNL     1       0.493  13.138  18.741  0.00  0.00    +0.000 A 
ATOM     20  N   UNL     1      -0.495  12.719  17.845  0.00  0.00    +0.000 N 
ATOM     21  H   UNL     1      -0.667  13.243  16.995  0.00  0.00    +0.000 HD
ENDBRANCH   1  13
BRANCH   6  22
ATOM     22  C   UNL     1       4.052   5.910  17.415  0.00  0.00    +0.000 A 
ATOM     23  C   UNL     1       4.534   6.915  16.556  0.00  0.00    +0.000 A 
ATOM     24  C   UNL     1       5.355   6.604  15.473  0.00  0.00    +0.000 A 
ATOM     25  C   UNL     1       5.710   5.280  15.250  0.00  0.00    +0.000 A 
ATOM     26  F   UNL     1       6.505   4.976  14.216  0.00  0.00    +0.000 F 
ATOM     27  C   UNL     1       5.251   4.280  16.097  0.00  0.00    +0.000 A 
ATOM     28  F   UNL     1       5.604   3.005  15.884  0.00  0.00    +0.000 F 
ATOM     29  C   UNL     1       4.426   4.583  17.177  0.00  0.00    +0.000 A 
ENDBRANCH   6  22
TORSDOF 2
ENDMDL
