MODEL 1
REMARK VINA RESULT:      -8.7      0.000      0.000
REMARK  Name = 
REMARK  3 active torsions:
REMARK  status: ('A' for Active; 'I' for Inactive)
REMARK    1  A    between atoms: C_1  and  C_2
REMARK    2  A    between atoms: C_5  and  C_6
REMARK    3  A    between atoms: C_9  and  C_10
REMARK                            x       y       z     vdW  Elec       q    Type
REMARK                         _______ _______ _______ _____ _____    ______ ____
ROOT
ATOM      1  C   UNL     1       1.830   5.109  20.284  0.00  0.00    +0.000 C 
ATOM      2  O   UNL     1       0.786   4.479  20.243  0.00  0.00    +0.000 OA
ATOM      3  N   UNL     1       3.112   4.563  20.489  0.00  0.00    +0.000 N 
ATOM      4  C   UNL     1       3.285   3.102  20.597  0.00  0.00    +0.000 C 
ATOM      5  C   UNL     1       4.498   2.772  19.679  0.00  0.00    +0.000 C 
ATOM      6  C   UNL     1       4.466   3.944  18.703  0.00  0.00    +0.000 C 
ATOM      7  C   UNL     1       4.219   5.083  19.697  0.00  0.00    +0.000 C 
ATOM      8  C   UNL     1       3.238   3.789  17.752  0.00  0.00    +0.000 C 
ATOM      9  O   UNL     1       2.270   3.067  17.878  0.00  0.00    +0.000 OA
ATOM     10  N   UNL     1       3.483   4.552  16.625  0.00  0.00    +0.000 N 
ATOM     11  C   UNL     1       4.862   4.698  16.519  0.00  0.00    +0.000 A 
ATOM     12  C   UNL     1       5.498   5.037  15.345  0.00  0.00    +0.000 A 
ATOM     13  C   UNL     1       6.887   4.982  15.361  0.00  0.00    +0.000 A 
ATOM     14  C   UNL     1       7.574   4.684  16.552  0.00  0.00    +0.000 A 
ATOM     15  C   UNL     1       6.894   4.355  17.738  0.00  0.00    +0.000 A 
ATOM     16  C   UNL     1       5.516   4.306  17.698  0.00  0.00    +0.000 A 
ATOM     17  H   UNL     1       2.955   5.418  16.584  0.00  0.00    +0.000 HD
ENDROOT
BRANCH   1  21
ATOM     18  C   UNL     1       1.407   9.300  19.469  0.00  0.00    +0.000 A 
ATOM     19  C   UNL     1       1.951   8.421  18.519  0.00  0.00    +0.000 A 
ATOM     20  C   UNL     1       2.145   7.076  18.816  0.00  0.00    +0.000 A 
ATOM     21  C   UNL     1       1.782   6.584  20.069  0.00  0.00    +0.000 A 
ATOM     22  C   UNL     1       1.275   7.450  21.049  0.00  0.00    +0.000 A 
ATOM     23  C   UNL     1       1.086   8.808  20.744  0.00  0.00    +0.000 A 
BRANCH  18  28
ATOM     24  C   UNL     1      -0.640  13.824  19.049  0.00  0.00    +0.000 C 
ATOM     25  C   UNL     1       0.289  12.684  18.872  0.00  0.00    +0.000 A 
ATOM     26  N   UNL     1       1.458  12.701  18.272  0.00  0.00    +0.000 NA
ATOM     27  N   UNL     1       2.008  11.457  18.396  0.00  0.00    +0.000 NA
ATOM     28  C   UNL     1       1.163  10.683  19.059  0.00  0.00    +0.000 A 
ATOM     29  N   UNL     1       0.049  11.427  19.351  0.00  0.00    +0.000 N 
ATOM     30  H   UNL     1      -0.749  11.126  19.884  0.00  0.00    +0.000 HD
ENDBRANCH  18  28
ENDBRANCH   1  21
TORSDOF 2
ENDMDL
MODEL 2
REMARK VINA RESULT:      -8.5      3.451      8.975
REMARK  Name = 
REMARK  3 active torsions:
REMARK  status: ('A' for Active; 'I' for Inactive)
REMARK    1  A    between atoms: C_1  and  C_2
REMARK    2  A    between atoms: C_5  and  C_6
REMARK    3  A    between atoms: C_9  and  C_10
REMARK                            x       y       z     vdW  Elec       q    Type
REMARK                         _______ _______ _______ _____ _____    ______ ____
ROOT
ATOM      1  C   UNL     1       1.099  11.439  20.127  0.00  0.00    +0.000 C 
ATOM      2  O   UNL     1       1.973  12.273  19.957  0.00  0.00    +0.000 OA
ATOM      3  N   UNL     1      -0.168  11.679  20.695  0.00  0.00    +0.000 N 
ATOM      4  C   UNL     1      -0.562  13.050  21.069  0.00  0.00    +0.000 C 
ATOM      5  C   UNL     1      -2.003  13.221  20.506  0.00  0.00    +0.000 C 
ATOM      6  C   UNL     1      -2.009  12.199  19.374  0.00  0.00    +0.000 C 
ATOM      7  C   UNL     1      -1.328  11.032  20.094  0.00  0.00    +0.000 C 
ATOM      8  C   UNL     1      -1.102  12.712  18.211  0.00  0.00    +0.000 C 
ATOM      9  O   UNL     1      -0.275  13.601  18.234  0.00  0.00    +0.000 OA
ATOM     10  N   UNL     1      -1.480  12.046  17.060  0.00  0.00    +0.000 N 
ATOM     11  C   UNL     1      -2.795  11.629  17.240  0.00  0.00    +0.000 A 
ATOM     12  C   UNL     1      -3.632  11.300  16.197  0.00  0.00    +0.000 A 
ATOM     13  C   UNL     1      -4.961  11.061  16.528  0.00  0.00    +0.000 A 
ATOM     14  C   UNL     1      -5.373  11.074  17.874  0.00  0.00    +0.000 A 
ATOM     15  C   UNL     1      -4.489  11.402  18.917  0.00  0.00    +0.000 A 
ATOM     16  C   UNL     1      -3.194  11.741  18.581  0.00  0.00    +0.000 A 
ATOM     17  H   UNL     1      -0.836  11.319  16.766  0.00  0.00    +0.000 HD
ENDROOT
BRANCH   1  21
ATOM     18  C   UNL     1       2.162   7.498  18.806  0.00  0.00    +0.000 A 
ATOM     19  C   UNL     1       2.064   8.570  17.905  0.00  0.00    +0.000 A 
ATOM     20  C   UNL     1       1.655   9.829  18.332  0.00  0.00    +0.000 A 
ATOM     21  C   UNL     1       1.350  10.040  19.676  0.00  0.00    +0.000 A 
ATOM     22  C   UNL     1       1.401   8.975  20.587  0.00  0.00    +0.000 A 
ATOM     23  C   UNL     1       1.811   7.705  20.150  0.00  0.00    +0.000 A 
BRANCH  18  28
ATOM     24  C   UNL     1       2.470   2.687  17.542  0.00  0.00    +0.000 C 
ATOM     25  C   UNL     1       2.821   4.115  17.719  0.00  0.00    +0.000 A 
ATOM     26  N   UNL     1       3.862   4.741  17.219  0.00  0.00    +0.000 NA
ATOM     27  N   UNL     1       3.764   6.058  17.571  0.00  0.00    +0.000 NA
ATOM     28  C   UNL     1       2.671   6.223  18.298  0.00  0.00    +0.000 A 
ATOM     29  N   UNL     1       2.065   5.001  18.433  0.00  0.00    +0.000 N 
ATOM     30  H   UNL     1       1.192   4.814  18.898  0.00  0.00    +0.000 HD
ENDBRANCH  18  28
ENDBRANCH   1  21
TORSDOF 2
ENDMDL
MODEL 3
REMARK VINA RESULT:      -8.4      3.407      8.943
REMARK  Name = 
REMARK  3 active torsions:
REMARK  status: ('A' for Active; 'I' for Inactive)
REMARK    1  A    between atoms: C_1  and  C_2
REMARK    2  A    between atoms: C_5  and  C_6
REMARK    3  A    between atoms: C_9  and  C_10
REMARK                            x       y       z     vdW  Elec       q    Type
REMARK                         _______ _______ _______ _____ _____    ______ ____
ROOT
ATOM      1  C   UNL     1       0.814  11.437  20.844  0.00  0.00    +0.000 C 
ATOM      2  O   UNL     1       1.721  12.252  20.818  0.00  0.00    +0.000 OA
ATOM      3  N   UNL     1      -0.527  11.709  21.179  0.00  0.00    +0.000 N 
ATOM      4  C   UNL     1      -0.952  13.093  21.463  0.00  0.00    +0.000 C 
ATOM      5  C   UNL     1      -2.269  13.283  20.655  0.00  0.00    +0.000 C 
ATOM      6  C   UNL     1      -2.099  12.243  19.552  0.00  0.00    +0.000 C 
ATOM      7  C   UNL     1      -1.579  11.075  20.394  0.00  0.00    +0.000 C 
ATOM      8  C   UNL     1      -0.994  12.721  18.559  0.00  0.00    +0.000 C 
ATOM      9  O   UNL     1      -0.165  13.595  18.714  0.00  0.00    +0.000 OA
ATOM     10  N   UNL     1      -1.180  12.045  17.368  0.00  0.00    +0.000 N 
ATOM     11  C   UNL     1      -2.515  11.655  17.321  0.00  0.00    +0.000 A 
ATOM     12  C   UNL     1      -3.165  11.325  16.153  0.00  0.00    +0.000 A 
ATOM     13  C   UNL     1      -4.536  11.117  16.250  0.00  0.00    +0.000 A 
ATOM     14  C   UNL     1      -5.175  11.159  17.503  0.00  0.00    +0.000 A 
ATOM     15  C   UNL     1      -4.479  11.486  18.680  0.00  0.00    +0.000 A 
ATOM     16  C   UNL     1      -3.139  11.795  18.571  0.00  0.00    +0.000 A 
ATOM     17  H   UNL     1      -0.510  11.301  17.199  0.00  0.00    +0.000 HD
ENDROOT
BRANCH   1  21
ATOM     18  C   UNL     1       2.004   7.470  19.726  0.00  0.00    +0.000 A 
ATOM     19  C   UNL     1       1.916   8.501  18.778  0.00  0.00    +0.000 A 
ATOM     20  C   UNL     1       1.466   9.768  19.138  0.00  0.00    +0.000 A 
ATOM     21  C   UNL     1       1.110  10.027  20.460  0.00  0.00    +0.000 A 
ATOM     22  C   UNL     1       1.150   9.002  21.416  0.00  0.00    +0.000 A 
ATOM     23  C   UNL     1       1.601   7.724  21.046  0.00  0.00    +0.000 A 
BRANCH  18  28
ATOM     24  C   UNL     1       4.097   3.926  16.916  0.00  0.00    +0.000 C 
ATOM     25  C   UNL     1       3.491   4.619  18.076  0.00  0.00    +0.000 A 
ATOM     26  N   UNL     1       3.420   4.179  19.312  0.00  0.00    +0.000 NA
ATOM     27  N   UNL     1       2.847   5.160  20.070  0.00  0.00    +0.000 NA
ATOM     28  C   UNL     1       2.557   6.187  19.289  0.00  0.00    +0.000 A 
ATOM     29  N   UNL     1       2.930   5.863  18.010  0.00  0.00    +0.000 N 
ATOM     30  H   UNL     1       2.874   6.458  17.201  0.00  0.00    +0.000 HD
ENDBRANCH  18  28
ENDBRANCH   1  21
TORSDOF 2
ENDMDL
MODEL 4
REMARK VINA RESULT:      -8.3      0.566      1.074
REMARK  Name = 
REMARK  3 active torsions:
REMARK  status: ('A' for Active; 'I' for Inactive)
REMARK    1  A    between atoms: C_1  and  C_2
REMARK    2  A    between atoms: C_5  and  C_6
REMARK    3  A    between atoms: C_9  and  C_10
REMARK                            x       y       z     vdW  Elec       q    Type
REMARK                         _______ _______ _______ _____ _____    ______ ____
ROOT
ATOM      1  C   UNL     1       1.830   5.015  20.112  0.00  0.00    +0.000 C 
ATOM      2  O   UNL     1       0.848   4.294  20.172  0.00  0.00    +0.000 OA
ATOM      3  N   UNL     1       3.159   4.618  20.360  0.00  0.00    +0.000 N 
ATOM      4  C   UNL     1       3.465   3.205  20.651  0.00  0.00    +0.000 C 
ATOM      5  C   UNL     1       4.696   2.869  19.759  0.00  0.00    +0.000 C 
ATOM      6  C   UNL     1       4.549   3.898  18.642  0.00  0.00    +0.000 C 
ATOM      7  C   UNL     1       4.207   5.128  19.486  0.00  0.00    +0.000 C 
ATOM      8  C   UNL     1       3.333   3.512  17.742  0.00  0.00    +0.000 C 
ATOM      9  O   UNL     1       2.436   2.728  17.979  0.00  0.00    +0.000 OA
ATOM     10  N   UNL     1       3.498   4.141  16.523  0.00  0.00    +0.000 N 
ATOM     11  C   UNL     1       4.857   4.396  16.372  0.00  0.00    +0.000 A 
ATOM     12  C   UNL     1       5.450   4.635  15.152  0.00  0.00    +0.000 A 
ATOM     13  C   UNL     1       6.838   4.708  15.147  0.00  0.00    +0.000 A 
ATOM     14  C   UNL     1       7.559   4.629  16.353  0.00  0.00    +0.000 A 
ATOM     15  C   UNL     1       6.922   4.396  17.585  0.00  0.00    +0.000 A 
ATOM     16  C   UNL     1       5.553   4.220  17.578  0.00  0.00    +0.000 A 
ATOM     17  H   UNL     1       2.893   4.944  16.381  0.00  0.00    +0.000 HD
ENDROOT
BRANCH   1  21
ATOM     18  C   UNL     1       1.603   9.184  19.125  0.00  0.00    +0.000 A 
ATOM     19  C   UNL     1       1.270   8.716  20.406  0.00  0.00    +0.000 A 
ATOM     20  C   UNL     1       1.283   7.356  20.697  0.00  0.00    +0.000 A 
ATOM     21  C   UNL     1       1.646   6.440  19.712  0.00  0.00    +0.000 A 
ATOM     22  C   UNL     1       1.944   6.879  18.414  0.00  0.00    +0.000 A 
ATOM     23  C   UNL     1       1.925   8.254  18.124  0.00  0.00    +0.000 A 
BRANCH  18  28
ATOM     24  C   UNL     1       0.979  14.083  19.794  0.00  0.00    +0.000 C 
ATOM     25  C   UNL     1       1.391  12.791  19.198  0.00  0.00    +0.000 A 
ATOM     26  N   UNL     1       2.191  12.612  18.171  0.00  0.00    +0.000 NA
ATOM     27  N   UNL     1       2.355  11.267  18.001  0.00  0.00    +0.000 NA
ATOM     28  C   UNL     1       1.640  10.632  18.916  0.00  0.00    +0.000 A 
ATOM     29  N   UNL     1       0.993  11.574  19.675  0.00  0.00    +0.000 N 
ATOM     30  H   UNL     1       0.409  11.399  20.474  0.00  0.00    +0.000 HD
ENDBRANCH  18  28
ENDBRANCH   1  21
TORSDOF 2
ENDMDL
MODEL 5
REMARK VINA RESULT:      -8.1      8.459     11.716
REMARK  Name = 
REMARK  3 active torsions:
REMARK  status: ('A' for Active; 'I' for Inactive)
REMARK    1  A    between atoms: C_1  and  C_2
REMARK    2  A    between atoms: C_5  and  C_6
REMARK    3  A    between atoms: C_9  and  C_10
REMARK                            x       y       z     vdW  Elec       q    Type
REMARK                         _______ _______ _______ _____ _____    ______ ____
ROOT
ATOM      1  C   UNL     1      10.913  13.987  19.475  0.00  0.00    +0.000 C 
ATOM      2  O   UNL     1      11.803  14.261  18.688  0.00  0.00    +0.000 OA
ATOM      3  N   UNL     1      10.495  14.789  20.556  0.00  0.00    +0.000 N 
ATOM      4  C   UNL     1      11.095  16.120  20.764  0.00  0.00    +0.000 C 
ATOM      5  C   UNL     1       9.888  17.068  21.025  0.00  0.00    +0.000 C 
ATOM      6  C   UNL     1       8.758  16.317  20.330  0.00  0.00    +0.000 C 
ATOM      7  C   UNL     1       9.066  14.900  20.822  0.00  0.00    +0.000 C 
ATOM      8  C   UNL     1       8.956  16.402  18.784  0.00  0.00    +0.000 C 
ATOM      9  O   UNL     1       9.950  16.727  18.166  0.00  0.00    +0.000 OA
ATOM     10  N   UNL     1       7.734  16.148  18.190  0.00  0.00    +0.000 N 
ATOM     11  C   UNL     1       6.751  16.455  19.125  0.00  0.00    +0.000 A 
ATOM     12  C   UNL     1       5.441  16.715  18.787  0.00  0.00    +0.000 A 
ATOM     13  C   UNL     1       4.620  17.166  19.814  0.00  0.00    +0.000 A 
ATOM     14  C   UNL     1       5.109  17.254  21.130  0.00  0.00    +0.000 A 
ATOM     15  C   UNL     1       6.449  16.970  21.444  0.00  0.00    +0.000 A 
ATOM     16  C   UNL     1       7.293  16.622  20.410  0.00  0.00    +0.000 A 
ATOM     17  H   UNL     1       7.655  15.227  17.772  0.00  0.00    +0.000 HD
ENDROOT
BRANCH   1  21
ATOM     18  C   UNL     1       8.983  10.237  18.689  0.00  0.00    +0.000 A 
ATOM     19  C   UNL     1       8.830  11.333  17.826  0.00  0.00    +0.000 A 
ATOM     20  C   UNL     1       9.406  12.564  18.123  0.00  0.00    +0.000 A 
ATOM     21  C   UNL     1      10.159  12.714  19.287  0.00  0.00    +0.000 A 
ATOM     22  C   UNL     1      10.293  11.645  20.185  0.00  0.00    +0.000 A 
ATOM     23  C   UNL     1       9.705  10.406  19.881  0.00  0.00    +0.000 A 
BRANCH  18  28
ATOM     24  C   UNL     1       7.630   5.440  18.660  0.00  0.00    +0.000 C 
ATOM     25  C   UNL     1       7.793   6.853  18.247  0.00  0.00    +0.000 A 
ATOM     26  N   UNL     1       7.206   7.455  17.237  0.00  0.00    +0.000 NA
ATOM     27  N   UNL     1       7.583   8.767  17.258  0.00  0.00    +0.000 NA
ATOM     28  C   UNL     1       8.412   8.955  18.272  0.00  0.00    +0.000 A 
ATOM     29  N   UNL     1       8.587   7.751  18.904  0.00  0.00    +0.000 N 
ATOM     30  H   UNL     1       9.129   7.583  19.734  0.00  0.00    +0.000 HD
ENDBRANCH  18  28
ENDBRANCH   1  21
TORSDOF 2
ENDMDL
MODEL 6
REMARK VINA RESULT:      -8.1      4.054      8.983
REMARK  Name = 
REMARK  3 active torsions:
REMARK  status: ('A' for Active; 'I' for Inactive)
REMARK    1  A    between atoms: C_1  and  C_2
REMARK    2  A    between atoms: C_5  and  C_6
REMARK    3  A    between atoms: C_9  and  C_10
REMARK                            x       y       z     vdW  Elec       q    Type
REMARK                         _______ _______ _______ _____ _____    ______ ____
ROOT
ATOM      1  C   UNL     1       0.579  11.833  21.145  0.00  0.00    +0.000 C 
ATOM      2  O   UNL     1       1.383  12.747  21.213  0.00  0.00    +0.000 OA
ATOM      3  N   UNL     1      -0.815  11.949  21.316  0.00  0.00    +0.000 N 
ATOM      4  C   UNL     1      -1.426  13.276  21.525  0.00  0.00    +0.000 C 
ATOM      5  C   UNL     1      -2.651  13.309  20.566  0.00  0.00    +0.000 C 
ATOM      6  C   UNL     1      -2.233  12.293  19.507  0.00  0.00    +0.000 C 
ATOM      7  C   UNL     1      -1.686  11.196  20.423  0.00  0.00    +0.000 C 
ATOM      8  C   UNL     1      -1.081  12.894  18.643  0.00  0.00    +0.000 C 
ATOM      9  O   UNL     1      -0.381  13.858  18.880  0.00  0.00    +0.000 OA
ATOM     10  N   UNL     1      -1.046  12.197  17.449  0.00  0.00    +0.000 N 
ATOM     11  C   UNL     1      -2.312  11.656  17.252  0.00  0.00    +0.000 A 
ATOM     12  C   UNL     1      -2.777  11.250  16.021  0.00  0.00    +0.000 A 
ATOM     13  C   UNL     1      -4.116  10.885  15.960  0.00  0.00    +0.000 A 
ATOM     14  C   UNL     1      -4.900  10.856  17.129  0.00  0.00    +0.000 A 
ATOM     15  C   UNL     1      -4.391  11.264  18.374  0.00  0.00    +0.000 A 
ATOM     16  C   UNL     1      -3.091  11.726  18.418  0.00  0.00    +0.000 A 
ATOM     17  H   UNL     1      -0.280  11.536  17.372  0.00  0.00    +0.000 HD
ENDROOT
BRANCH   1  21
ATOM     18  C   UNL     1       1.683   7.786  20.249  0.00  0.00    +0.000 A 
ATOM     19  C   UNL     1       1.441   8.203  21.567  0.00  0.00    +0.000 A 
ATOM     20  C   UNL     1       1.148   9.532  21.855  0.00  0.00    +0.000 A 
ATOM     21  C   UNL     1       1.078  10.466  20.821  0.00  0.00    +0.000 A 
ATOM     22  C   UNL     1       1.356  10.081  19.502  0.00  0.00    +0.000 A 
ATOM     23  C   UNL     1       1.655   8.738  19.218  0.00  0.00    +0.000 A 
BRANCH  18  28
ATOM     24  C   UNL     1       1.466   2.824  20.671  0.00  0.00    +0.000 C 
ATOM     25  C   UNL     1       1.816   4.175  20.173  0.00  0.00    +0.000 A 
ATOM     26  N   UNL     1       2.452   4.468  19.062  0.00  0.00    +0.000 NA
ATOM     27  N   UNL     1       2.502   5.829  18.958  0.00  0.00    +0.000 NA
ATOM     28  C   UNL     1       1.910   6.359  20.016  0.00  0.00    +0.000 A 
ATOM     29  N   UNL     1       1.487   5.332  20.821  0.00  0.00    +0.000 N 
ATOM     30  H   UNL     1       0.967   5.419  21.677  0.00  0.00    +0.000 HD
ENDBRANCH  18  28
ENDBRANCH   1  21
TORSDOF 2
ENDMDL
MODEL 7
REMARK VINA RESULT:      -8.0      7.676     11.131
REMARK  Name = 
REMARK  3 active torsions:
REMARK  status: ('A' for Active; 'I' for Inactive)
REMARK    1  A    between atoms: C_1  and  C_2
REMARK    2  A    between atoms: C_5  and  C_6
REMARK    3  A    between atoms: C_9  and  C_10
REMARK                            x       y       z     vdW  Elec       q    Type
REMARK                         _______ _______ _______ _____ _____    ______ ____
ROOT
ATOM      1  C   UNL     1      10.137  14.069  20.004  0.00  0.00    +0.000 C 
ATOM      2  O   UNL     1      11.089  14.683  19.551  0.00  0.00    +0.000 OA
ATOM      3  N   UNL     1       9.268  14.527  21.013  0.00  0.00    +0.000 N 
ATOM      4  C   UNL     1       9.422  15.889  21.560  0.00  0.00    +0.000 C 
ATOM      5  C   UNL     1       7.981  16.477  21.584  0.00  0.00    +0.000 C 
ATOM      6  C   UNL     1       7.299  15.651  20.498  0.00  0.00    +0.000 C 
ATOM      7  C   UNL     1       7.841  14.267  20.867  0.00  0.00    +0.000 C 
ATOM      8  C   UNL     1       7.844  16.084  19.102  0.00  0.00    +0.000 C 
ATOM      9  O   UNL     1       8.836  16.736  18.846  0.00  0.00    +0.000 OA
ATOM     10  N   UNL     1       6.919  15.693  18.151  0.00  0.00    +0.000 N 
ATOM     11  C   UNL     1       5.690  15.584  18.794  0.00  0.00    +0.000 A 
ATOM     12  C   UNL     1       4.484  15.612  18.129  0.00  0.00    +0.000 A 
ATOM     13  C   UNL     1       3.345  15.658  18.924  0.00  0.00    +0.000 A 
ATOM     14  C   UNL     1       3.452  15.586  20.326  0.00  0.00    +0.000 A 
ATOM     15  C   UNL     1       4.699  15.546  20.974  0.00  0.00    +0.000 A 
ATOM     16  C   UNL     1       5.833  15.605  20.191  0.00  0.00    +0.000 A 
ATOM     17  H   UNL     1       7.193  14.879  17.610  0.00  0.00    +0.000 HD
ENDROOT
BRANCH   1  21
ATOM     18  C   UNL     1       8.940  10.200  18.587  0.00  0.00    +0.000 A 
ATOM     19  C   UNL     1       9.573  10.361  19.830  0.00  0.00    +0.000 A 
ATOM     20  C   UNL     1      10.016  11.610  20.252  0.00  0.00    +0.000 A 
ATOM     21  C   UNL     1       9.820  12.726  19.440  0.00  0.00    +0.000 A 
ATOM     22  C   UNL     1       9.228  12.584  18.176  0.00  0.00    +0.000 A 
ATOM     23  C   UNL     1       8.786  11.320  17.754  0.00  0.00    +0.000 A 
BRANCH  18  28
ATOM     24  C   UNL     1       7.712   5.380  18.888  0.00  0.00    +0.000 C 
ATOM     25  C   UNL     1       7.871   6.756  18.362  0.00  0.00    +0.000 A 
ATOM     26  N   UNL     1       7.348   7.248  17.262  0.00  0.00    +0.000 NA
ATOM     27  N   UNL     1       7.691   8.569  17.194  0.00  0.00    +0.000 NA
ATOM     28  C   UNL     1       8.434   8.870  18.246  0.00  0.00    +0.000 A 
ATOM     29  N   UNL     1       8.590   7.731  18.994  0.00  0.00    +0.000 N 
ATOM     30  H   UNL     1       9.070   7.654  19.874  0.00  0.00    +0.000 HD
ENDBRANCH  18  28
ENDBRANCH   1  21
TORSDOF 2
ENDMDL
MODEL 8
REMARK VINA RESULT:      -8.0      5.112     10.787
REMARK  Name = 
REMARK  3 active torsions:
REMARK  status: ('A' for Active; 'I' for Inactive)
REMARK    1  A    between atoms: C_1  and  C_2
REMARK    2  A    between atoms: C_5  and  C_6
REMARK    3  A    between atoms: C_9  and  C_10
REMARK                            x       y       z     vdW  Elec       q    Type
REMARK                         _______ _______ _______ _____ _____    ______ ____
ROOT
ATOM      1  C   UNL     1      -1.241  13.092  23.106  0.00  0.00    +0.000 C 
ATOM      2  O   UNL     1      -0.505  14.064  23.117  0.00  0.00    +0.000 OA
ATOM      3  N   UNL     1      -2.534  13.031  23.664  0.00  0.00    +0.000 N 
ATOM      4  C   UNL     1      -3.137  14.236  24.264  0.00  0.00    +0.000 C 
ATOM      5  C   UNL     1      -4.584  14.288  23.691  0.00  0.00    +0.000 C 
ATOM      6  C   UNL     1      -4.424  13.500  22.395  0.00  0.00    +0.000 C 
ATOM      7  C   UNL     1      -3.576  12.337  22.919  0.00  0.00    +0.000 C 
ATOM      8  C   UNL     1      -3.601  14.346  21.375  0.00  0.00    +0.000 C 
ATOM      9  O   UNL     1      -2.920  15.330  21.584  0.00  0.00    +0.000 OA
ATOM     10  N   UNL     1      -3.864  13.851  20.111  0.00  0.00    +0.000 N 
ATOM     11  C   UNL     1      -5.100  13.215  20.169  0.00  0.00    +0.000 A 
ATOM     12  C   UNL     1      -5.870  12.959  19.056  0.00  0.00    +0.000 A 
ATOM     13  C   UNL     1      -7.149  12.468  19.293  0.00  0.00    +0.000 A 
ATOM     14  C   UNL     1      -7.566  12.174  20.605  0.00  0.00    +0.000 A 
ATOM     15  C   UNL     1      -6.750  12.436  21.719  0.00  0.00    +0.000 A 
ATOM     16  C   UNL     1      -5.521  13.021  21.494  0.00  0.00    +0.000 A 
ATOM     17  H   UNL     1      -3.114  13.295  19.714  0.00  0.00    +0.000 HD
ENDROOT
BRANCH   1  21
ATOM     18  C   UNL     1       0.428   9.645  21.173  0.00  0.00    +0.000 A 
ATOM     19  C   UNL     1       0.294  10.868  20.499  0.00  0.00    +0.000 A 
ATOM     20  C   UNL     1      -0.309  11.962  21.112  0.00  0.00    +0.000 A 
ATOM     21  C   UNL     1      -0.775  11.852  22.421  0.00  0.00    +0.000 A 
ATOM     22  C   UNL     1      -0.689  10.628  23.102  0.00  0.00    +0.000 A 
ATOM     23  C   UNL     1      -0.083   9.527  22.475  0.00  0.00    +0.000 A 
BRANCH  18  28
ATOM     24  C   UNL     1       3.214   7.148  17.880  0.00  0.00    +0.000 C 
ATOM     25  C   UNL     1       2.376   7.450  19.064  0.00  0.00    +0.000 A 
ATOM     26  N   UNL     1       2.134   6.659  20.084  0.00  0.00    +0.000 NA
ATOM     27  N   UNL     1       1.372   7.356  20.979  0.00  0.00    +0.000 NA
ATOM     28  C   UNL     1       1.140   8.563  20.490  0.00  0.00    +0.000 A 
ATOM     29  N   UNL     1       1.742   8.644  19.261  0.00  0.00    +0.000 N 
ATOM     30  H   UNL     1       1.776   9.452  18.663  0.00  0.00    +0.000 HD
ENDBRANCH  18  28
ENDBRANCH   1  21
TORSDOF 2
ENDMDL
MODEL 9
REMARK VINA RESULT:      -8.0      4.928     10.578
REMARK  Name = 
REMARK  3 active torsions:
REMARK  status: ('A' for Active; 'I' for Inactive)
REMARK    1  A    between atoms: C_1  and  C_2
REMARK    2  A    between atoms: C_5  and  C_6
REMARK    3  A    between atoms: C_9  and  C_10
REMARK                            x       y       z     vdW  Elec       q    Type
REMARK                         _______ _______ _______ _____ _____    ______ ____
ROOT
ATOM      1  C   UNL     1      -1.017  12.999  22.721  0.00  0.00    +0.000 C 
ATOM      2  O   UNL     1      -0.306  13.985  22.618  0.00  0.00    +0.000 OA
ATOM      3  N   UNL     1      -2.286  12.961  23.331  0.00  0.00    +0.000 N 
ATOM      4  C   UNL     1      -2.898  14.201  23.844  0.00  0.00    +0.000 C 
ATOM      5  C   UNL     1      -4.365  14.170  23.325  0.00  0.00    +0.000 C 
ATOM      6  C   UNL     1      -4.233  13.272  22.098  0.00  0.00    +0.000 C 
ATOM      7  C   UNL     1      -3.338  12.180  22.690  0.00  0.00    +0.000 C 
ATOM      8  C   UNL     1      -3.468  14.041  20.976  0.00  0.00    +0.000 C 
ATOM      9  O   UNL     1      -2.805  15.055  21.071  0.00  0.00    +0.000 OA
ATOM     10  N   UNL     1      -3.765  13.430  19.772  0.00  0.00    +0.000 N 
ATOM     11  C   UNL     1      -4.981  12.775  19.933  0.00  0.00    +0.000 A 
ATOM     12  C   UNL     1      -5.785  12.403  18.878  0.00  0.00    +0.000 A 
ATOM     13  C   UNL     1      -7.041  11.907  19.207  0.00  0.00    +0.000 A 
ATOM     14  C   UNL     1      -7.403  11.724  20.554  0.00  0.00    +0.000 A 
ATOM     15  C   UNL     1      -6.554  12.102  21.609  0.00  0.00    +0.000 A 
ATOM     16  C   UNL     1      -5.349  12.691  21.286  0.00  0.00    +0.000 A 
ATOM     17  H   UNL     1      -3.016  12.857  19.398  0.00  0.00    +0.000 HD
ENDROOT
BRANCH   1  21
ATOM     18  C   UNL     1       0.670   9.419  21.066  0.00  0.00    +0.000 A 
ATOM     19  C   UNL     1       0.571  10.598  20.310  0.00  0.00    +0.000 A 
ATOM     20  C   UNL     1      -0.036  11.734  20.833  0.00  0.00    +0.000 A 
ATOM     21  C   UNL     1      -0.545  11.713  22.131  0.00  0.00    +0.000 A 
ATOM     22  C   UNL     1      -0.495  10.535  22.891  0.00  0.00    +0.000 A 
ATOM     23  C   UNL     1       0.116   9.389  22.355  0.00  0.00    +0.000 A 
BRANCH  18  28
ATOM     24  C   UNL     1       2.481   4.840  20.295  0.00  0.00    +0.000 C 
ATOM     25  C   UNL     1       2.182   6.279  20.109  0.00  0.00    +0.000 A 
ATOM     26  N   UNL     1       2.445   7.011  19.050  0.00  0.00    +0.000 NA
ATOM     27  N   UNL     1       1.941   8.261  19.274  0.00  0.00    +0.000 NA
ATOM     28  C   UNL     1       1.389   8.289  20.476  0.00  0.00    +0.000 A 
ATOM     29  N   UNL     1       1.551   7.050  21.043  0.00  0.00    +0.000 N 
ATOM     30  H   UNL     1       1.200   6.751  21.937  0.00  0.00    +0.000 HD
ENDBRANCH  18  28
ENDBRANCH   1  21
TORSDOF 2
ENDMDL
