MODEL 1
REMARK VINA RESULT:      -8.9      0.000      0.000
REMARK  Name = 
REMARK  7 active torsions:
REMARK  status: ('A' for Active; 'I' for Inactive)
REMARK    1  A    between atoms: C_1  and  N_2
REMARK    2  A    between atoms: C_6  and  C_7
REMARK    3  A    between atoms: C_7  and  C_8
REMARK    4  A    between atoms: C_8  and  C_9
REMARK    5  A    between atoms: C_13  and  N_14
REMARK    6  A    between atoms: C_22  and  C_23
REMARK    7  A    between atoms: C_23  and  O_24
REMARK                            x       y       z     vdW  Elec       q    Type
REMARK                         _______ _______ _______ _____ _____    ______ ____
ROOT
ATOM      1  N   UNL     1       3.980   4.374  19.087  0.00  0.00    +0.000 N 
ATOM      2  C   UNL     1       5.328   4.954  19.335  0.00  0.00    +0.000 C 
ATOM      3  C   UNL     1       5.927   4.940  17.962  0.00  0.00    +0.000 A 
ATOM      4  C   UNL     1       5.319   3.906  17.246  0.00  0.00    +0.000 A 
ATOM      5  C   UNL     1       5.521   3.716  15.893  0.00  0.00    +0.000 A 
ATOM      6  C   UNL     1       6.352   4.628  15.257  0.00  0.00    +0.000 A 
ATOM      7  F   UNL     1       6.512   4.550  13.929  0.00  0.00    +0.000 F 
ATOM      8  C   UNL     1       6.958   5.688  15.951  0.00  0.00    +0.000 A 
ATOM      9  C   UNL     1       6.761   5.860  17.331  0.00  0.00    +0.000 A 
ATOM     10  C   UNL     1       4.163   3.431  18.038  0.00  0.00    +0.000 C 
ATOM     11  O   UNL     1       3.418   2.533  17.686  0.00  0.00    +0.000 OA
ENDROOT
BRANCH   1  16
ATOM     12  C   UNL     1       1.858   7.195  20.006  0.00  0.00    +0.000 A 
ATOM     13  C   UNL     1       2.343   8.114  19.064  0.00  0.00    +0.000 A 
ATOM     14  C   UNL     1       2.986   7.675  17.913  0.00  0.00    +0.000 A 
ATOM     15  C   UNL     1       3.265   6.324  17.751  0.00  0.00    +0.000 A 
ATOM     16  C   UNL     1       3.026   5.440  18.816  0.00  0.00    +0.000 A 
ATOM     17  C   UNL     1       2.187   5.842  19.861  0.00  0.00    +0.000 A 
BRANCH  12  18
ATOM     18  C   UNL     1       1.099   7.667  21.220  0.00  0.00    +0.000 C 
BRANCH  18  19
ATOM     19  C   UNL     1       1.589   9.035  21.699  0.00  0.00    +0.000 C 
BRANCH  19  25
ATOM     20  C   UNL     1      -0.007  11.008  19.929  0.00  0.00    +0.000 C 
ATOM     21  N   UNL     1      -0.209  10.775  21.330  0.00  0.00    +0.000 N 
ATOM     22  C   UNL     1      -1.122  11.394  22.126  0.00  0.00    +0.000 A 
ATOM     23  N   UNL     1      -1.023  10.939  23.351  0.00  0.00    +0.000 NA
ATOM     24  N   UNL     1      -0.021   9.997  23.362  0.00  0.00    +0.000 NA
ATOM     25  C   UNL     1       0.465   9.898  22.146  0.00  0.00    +0.000 A 
ENDBRANCH  19  25
ENDBRANCH  18  19
ENDBRANCH  12  18
ENDBRANCH   1  16
BRANCH   9  26
ATOM     26  C   UNL     1       7.304   7.075  18.027  0.00  0.00    +0.000 C 
ATOM     27  F   UNL     1       7.968   7.920  17.195  0.00  0.00    +0.000 F 
BRANCH  26  28
ATOM     28  O   UNL     1       8.271   6.689  18.981  0.00  0.00    +0.000 OA
ATOM     29  H   UNL     1       8.868   7.457  19.000  0.00  0.00    +0.000 HD
ENDBRANCH  26  28
ENDBRANCH   9  26
TORSDOF 6
ENDMDL
MODEL 2
REMARK VINA RESULT:      -8.8      4.754      6.862
REMARK  Name = 
REMARK  7 active torsions:
REMARK  status: ('A' for Active; 'I' for Inactive)
REMARK    1  A    between atoms: C_1  and  N_2
REMARK    2  A    between atoms: C_6  and  C_7
REMARK    3  A    between atoms: C_7  and  C_8
REMARK    4  A    between atoms: C_8  and  C_9
REMARK    5  A    between atoms: C_13  and  N_14
REMARK    6  A    between atoms: C_22  and  C_23
REMARK    7  A    between atoms: C_23  and  O_24
REMARK                            x       y       z     vdW  Elec       q    Type
REMARK                         _______ _______ _______ _____ _____    ______ ____
ROOT
ATOM      1  N   UNL     1       5.899   5.496  15.745  0.00  0.00    +0.000 N 
ATOM      2  C   UNL     1       4.714   6.308  16.134  0.00  0.00    +0.000 C 
ATOM      3  C   UNL     1       4.055   5.426  17.151  0.00  0.00    +0.000 A 
ATOM      4  C   UNL     1       4.401   4.105  16.851  0.00  0.00    +0.000 A 
ATOM      5  C   UNL     1       4.096   3.047  17.685  0.00  0.00    +0.000 A 
ATOM      6  C   UNL     1       3.439   3.360  18.867  0.00  0.00    +0.000 A 
ATOM      7  F   UNL     1       3.199   2.388  19.757  0.00  0.00    +0.000 F 
ATOM      8  C   UNL     1       3.100   4.681  19.200  0.00  0.00    +0.000 A 
ATOM      9  C   UNL     1       3.398   5.748  18.335  0.00  0.00    +0.000 A 
ATOM     10  C   UNL     1       5.474   4.142  15.833  0.00  0.00    +0.000 C 
ATOM     11  O   UNL     1       5.998   3.149  15.359  0.00  0.00    +0.000 OA
ENDROOT
BRANCH   1  16
ATOM     12  C   UNL     1       7.865   7.757  17.825  0.00  0.00    +0.000 A 
ATOM     13  C   UNL     1       7.974   6.932  18.955  0.00  0.00    +0.000 A 
ATOM     14  C   UNL     1       7.810   5.556  18.845  0.00  0.00    +0.000 A 
ATOM     15  C   UNL     1       7.410   5.003  17.635  0.00  0.00    +0.000 A 
ATOM     16  C   UNL     1       7.037   5.853  16.581  0.00  0.00    +0.000 A 
ATOM     17  C   UNL     1       7.415   7.199  16.623  0.00  0.00    +0.000 A 
BRANCH  12  18
ATOM     18  C   UNL     1       8.113   9.240  17.930  0.00  0.00    +0.000 C 
BRANCH  18  19
ATOM     19  C   UNL     1       9.058   9.578  19.084  0.00  0.00    +0.000 C 
BRANCH  19  25
ATOM     20  C   UNL     1       9.339  11.830  21.188  0.00  0.00    +0.000 C 
ATOM     21  N   UNL     1       9.822  11.868  19.837  0.00  0.00    +0.000 N 
ATOM     22  C   UNL     1      10.468  12.908  19.243  0.00  0.00    +0.000 A 
ATOM     23  N   UNL     1      10.758  12.597  18.003  0.00  0.00    +0.000 NA
ATOM     24  N   UNL     1      10.292  11.323  17.775  0.00  0.00    +0.000 NA
ATOM     25  C   UNL     1       9.732  10.885  18.881  0.00  0.00    +0.000 A 
ENDBRANCH  19  25
ENDBRANCH  18  19
ENDBRANCH  12  18
ENDBRANCH   1  16
BRANCH   9  26
ATOM     26  C   UNL     1       3.152   7.164  18.769  0.00  0.00    +0.000 C 
ATOM     27  F   UNL     1       2.561   7.259  19.989  0.00  0.00    +0.000 F 
BRANCH  26  28
ATOM     28  O   UNL     1       2.240   7.785  17.887  0.00  0.00    +0.000 OA
ATOM     29  H   UNL     1       1.628   7.059  17.672  0.00  0.00    +0.000 HD
ENDBRANCH  26  28
ENDBRANCH   9  26
TORSDOF 6
ENDMDL
MODEL 3
REMARK VINA RESULT:      -8.3      4.799      6.668
REMARK  Name = 
REMARK  7 active torsions:
REMARK  status: ('A' for Active; 'I' for Inactive)
REMARK    1  A    between atoms: C_1  and  N_2
REMARK    2  A    between atoms: C_6  and  C_7
REMARK    3  A    between atoms: C_7  and  C_8
REMARK    4  A    between atoms: C_8  and  C_9
REMARK    5  A    between atoms: C_13  and  N_14
REMARK    6  A    between atoms: C_22  and  C_23
REMARK    7  A    between atoms: C_23  and  O_24
REMARK                            x       y       z     vdW  Elec       q    Type
REMARK                         _______ _______ _______ _____ _____    ______ ____
ROOT
ATOM      1  N   UNL     1       5.916   5.876  15.804  0.00  0.00    +0.000 N 
ATOM      2  C   UNL     1       4.757   6.511  16.488  0.00  0.00    +0.000 C 
ATOM      3  C   UNL     1       4.110   5.336  17.156  0.00  0.00    +0.000 A 
ATOM      4  C   UNL     1       4.423   4.199  16.406  0.00  0.00    +0.000 A 
ATOM      5  C   UNL     1       4.122   2.920  16.830  0.00  0.00    +0.000 A 
ATOM      6  C   UNL     1       3.503   2.808  18.068  0.00  0.00    +0.000 A 
ATOM      7  F   UNL     1       3.270   1.589  18.573  0.00  0.00    +0.000 F 
ATOM      8  C   UNL     1       3.197   3.934  18.849  0.00  0.00    +0.000 A 
ATOM      9  C   UNL     1       3.491   5.232  18.398  0.00  0.00    +0.000 A 
ATOM     10  C   UNL     1       5.468   4.579  15.430  0.00  0.00    +0.000 C 
ATOM     11  O   UNL     1       5.962   3.808  14.625  0.00  0.00    +0.000 OA
ENDROOT
BRANCH   1  16
ATOM     12  C   UNL     1       8.044   7.329  18.385  0.00  0.00    +0.000 A 
ATOM     13  C   UNL     1       8.110   6.212  19.231  0.00  0.00    +0.000 A 
ATOM     14  C   UNL     1       7.856   4.936  18.739  0.00  0.00    +0.000 A 
ATOM     15  C   UNL     1       7.411   4.776  17.433  0.00  0.00    +0.000 A 
ATOM     16  C   UNL     1       7.083   5.912  16.675  0.00  0.00    +0.000 A 
ATOM     17  C   UNL     1       7.547   7.165  17.087  0.00  0.00    +0.000 A 
BRANCH  12  18
ATOM     18  C   UNL     1       8.387   8.703  18.901  0.00  0.00    +0.000 C 
BRANCH  18  19
ATOM     19  C   UNL     1       8.488   9.726  17.768  0.00  0.00    +0.000 C 
BRANCH  19  25
ATOM     20  C   UNL     1       7.622  12.634  17.158  0.00  0.00    +0.000 C 
ATOM     21  N   UNL     1       8.789  12.234  17.892  0.00  0.00    +0.000 N 
ATOM     22  C   UNL     1       9.724  13.063  18.429  0.00  0.00    +0.000 A 
ATOM     23  N   UNL     1      10.653  12.355  19.025  0.00  0.00    +0.000 NA
ATOM     24  N   UNL     1      10.320  11.028  18.877  0.00  0.00    +0.000 NA
ATOM     25  C   UNL     1       9.197  10.958  18.198  0.00  0.00    +0.000 A 
ENDBRANCH  19  25
ENDBRANCH  18  19
ENDBRANCH  12  18
ENDBRANCH   1  16
BRANCH   9  26
ATOM     26  C   UNL     1       3.283   6.412  19.304  0.00  0.00    +0.000 C 
ATOM     27  F   UNL     1       2.651   6.095  20.464  0.00  0.00    +0.000 F 
BRANCH  26  28
ATOM     28  O   UNL     1       2.429   7.349  18.682  0.00  0.00    +0.000 OA
ATOM     29  H   UNL     1       2.699   8.188  19.095  0.00  0.00    +0.000 HD
ENDBRANCH  26  28
ENDBRANCH   9  26
TORSDOF 6
ENDMDL
MODEL 4
REMARK VINA RESULT:      -8.3      1.153      1.618
REMARK  Name = 
REMARK  7 active torsions:
REMARK  status: ('A' for Active; 'I' for Inactive)
REMARK    1  A    between atoms: C_1  and  N_2
REMARK    2  A    between atoms: C_6  and  C_7
REMARK    3  A    between atoms: C_7  and  C_8
REMARK    4  A    between atoms: C_8  and  C_9
REMARK    5  A    between atoms: C_13  and  N_14
REMARK    6  A    between atoms: C_22  and  C_23
REMARK    7  A    between atoms: C_23  and  O_24
REMARK                            x       y       z     vdW  Elec       q    Type
REMARK                         _______ _______ _______ _____ _____    ______ ____
ROOT
ATOM      1  N   UNL     1       2.922   3.966  19.223  0.00  0.00    +0.000 N 
ATOM      2  C   UNL     1       4.292   4.177  19.766  0.00  0.00    +0.000 C 
ATOM      3  C   UNL     1       5.123   4.168  18.520  0.00  0.00    +0.000 A 
ATOM      4  C   UNL     1       4.452   3.391  17.571  0.00  0.00    +0.000 A 
ATOM      5  C   UNL     1       4.860   3.304  16.255  0.00  0.00    +0.000 A 
ATOM      6  C   UNL     1       5.974   4.054  15.901  0.00  0.00    +0.000 A 
ATOM      7  F   UNL     1       6.362   4.083  14.619  0.00  0.00    +0.000 F 
ATOM      8  C   UNL     1       6.652   4.858  16.831  0.00  0.00    +0.000 A 
ATOM      9  C   UNL     1       6.239   4.924  18.173  0.00  0.00    +0.000 A 
ATOM     10  C   UNL     1       3.092   3.124  18.089  0.00  0.00    +0.000 C 
ATOM     11  O   UNL     1       2.252   2.472  17.495  0.00  0.00    +0.000 OA
ENDROOT
BRANCH   1  16
ATOM     12  C   UNL     1       1.877   7.348  20.101  0.00  0.00    +0.000 A 
ATOM     13  C   UNL     1       2.460   8.016  19.013  0.00  0.00    +0.000 A 
ATOM     14  C   UNL     1       2.765   7.332  17.843  0.00  0.00    +0.000 A 
ATOM     15  C   UNL     1       2.612   5.952  17.790  0.00  0.00    +0.000 A 
ATOM     16  C   UNL     1       2.289   5.251  18.964  0.00  0.00    +0.000 A 
ATOM     17  C   UNL     1       1.773   5.953  20.058  0.00  0.00    +0.000 A 
BRANCH  12  18
ATOM     18  C   UNL     1       1.481   8.103  21.344  0.00  0.00    +0.000 C 
BRANCH  18  19
ATOM     19  C   UNL     1      -0.017   8.408  21.369  0.00  0.00    +0.000 C 
BRANCH  19  25
ATOM     20  C   UNL     1      -1.009  10.763  23.116  0.00  0.00    +0.000 C 
ATOM     21  N   UNL     1      -0.763  10.802  21.702  0.00  0.00    +0.000 N 
ATOM     22  C   UNL     1      -0.942  11.874  20.884  0.00  0.00    +0.000 A 
ATOM     23  N   UNL     1      -0.624  11.550  19.654  0.00  0.00    +0.000 NA
ATOM     24  N   UNL     1      -0.226  10.233  19.663  0.00  0.00    +0.000 NA
ATOM     25  C   UNL     1      -0.308   9.786  20.896  0.00  0.00    +0.000 A 
ENDBRANCH  19  25
ENDBRANCH  18  19
ENDBRANCH  12  18
ENDBRANCH   1  16
BRANCH   9  26
ATOM     26  C   UNL     1       6.890   5.892  19.118  0.00  0.00    +0.000 C 
ATOM     27  F   UNL     1       7.867   6.637  18.537  0.00  0.00    +0.000 F 
BRANCH  26  28
ATOM     28  O   UNL     1       7.550   5.187  20.148  0.00  0.00    +0.000 OA
ATOM     29  H   UNL     1       7.351   5.725  20.934  0.00  0.00    +0.000 HD
ENDBRANCH  26  28
ENDBRANCH   9  26
TORSDOF 6
ENDMDL
MODEL 5
REMARK VINA RESULT:      -8.3      1.081      1.482
REMARK  Name = 
REMARK  7 active torsions:
REMARK  status: ('A' for Active; 'I' for Inactive)
REMARK    1  A    between atoms: C_1  and  N_2
REMARK    2  A    between atoms: C_6  and  C_7
REMARK    3  A    between atoms: C_7  and  C_8
REMARK    4  A    between atoms: C_8  and  C_9
REMARK    5  A    between atoms: C_13  and  N_14
REMARK    6  A    between atoms: C_22  and  C_23
REMARK    7  A    between atoms: C_23  and  O_24
REMARK                            x       y       z     vdW  Elec       q    Type
REMARK                         _______ _______ _______ _____ _____    ______ ____
ROOT
ATOM      1  N   UNL     1       3.686   4.495  19.357  0.00  0.00    +0.000 N 
ATOM      2  C   UNL     1       5.065   5.056  19.355  0.00  0.00    +0.000 C 
ATOM      3  C   UNL     1       5.476   4.860  17.927  0.00  0.00    +0.000 A 
ATOM      4  C   UNL     1       4.759   3.769  17.427  0.00  0.00    +0.000 A 
ATOM      5  C   UNL     1       4.775   3.415  16.093  0.00  0.00    +0.000 A 
ATOM      6  C   UNL     1       5.530   4.218  15.248  0.00  0.00    +0.000 A 
ATOM      7  F   UNL     1       5.510   3.979  13.930  0.00  0.00    +0.000 F 
ATOM      8  C   UNL     1       6.242   5.331  15.723  0.00  0.00    +0.000 A 
ATOM      9  C   UNL     1       6.233   5.671  17.086  0.00  0.00    +0.000 A 
ATOM     10  C   UNL     1       3.711   3.430  18.415  0.00  0.00    +0.000 C 
ATOM     11  O   UNL     1       2.911   2.522  18.275  0.00  0.00    +0.000 OA
ENDROOT
BRANCH   1  16
ATOM     12  C   UNL     1       1.890   7.576  20.121  0.00  0.00    +0.000 A 
ATOM     13  C   UNL     1       2.180   8.266  18.934  0.00  0.00    +0.000 A 
ATOM     14  C   UNL     1       2.543   7.574  17.784  0.00  0.00    +0.000 A 
ATOM     15  C   UNL     1       2.746   6.201  17.840  0.00  0.00    +0.000 A 
ATOM     16  C   UNL     1       2.723   5.553  19.086  0.00  0.00    +0.000 A 
ATOM     17  C   UNL     1       2.145   6.201  20.182  0.00  0.00    +0.000 A 
BRANCH  12  18
ATOM     18  C   UNL     1       1.428   8.320  21.348  0.00  0.00    +0.000 C 
BRANCH  18  19
ATOM     19  C   UNL     1       0.090   9.023  21.115  0.00  0.00    +0.000 C 
BRANCH  19  25
ATOM     20  C   UNL     1      -1.291  10.919  23.134  0.00  0.00    +0.000 C 
ATOM     21  N   UNL     1      -0.417  11.311  22.066  0.00  0.00    +0.000 N 
ATOM     22  C   UNL     1      -0.060  12.584  21.745  0.00  0.00    +0.000 A 
ATOM     23  N   UNL     1       0.747  12.570  20.711  0.00  0.00    +0.000 NA
ATOM     24  N   UNL     1       0.926  11.256  20.344  0.00  0.00    +0.000 NA
ATOM     25  C   UNL     1       0.228  10.501  21.162  0.00  0.00    +0.000 A 
ENDBRANCH  19  25
ENDBRANCH  18  19
ENDBRANCH  12  18
ENDBRANCH   1  16
BRANCH   9  26
ATOM     26  C   UNL     1       6.885   6.941  17.553  0.00  0.00    +0.000 C 
ATOM     27  F   UNL     1       6.038   8.003  17.580  0.00  0.00    +0.000 F 
BRANCH  26  28
ATOM     28  O   UNL     1       7.898   7.322  16.646  0.00  0.00    +0.000 OA
ATOM     29  H   UNL     1       7.495   8.078  16.184  0.00  0.00    +0.000 HD
ENDBRANCH  26  28
ENDBRANCH   9  26
TORSDOF 6
ENDMDL
MODEL 6
REMARK VINA RESULT:      -8.1      1.082      1.103
REMARK  Name = 
REMARK  7 active torsions:
REMARK  status: ('A' for Active; 'I' for Inactive)
REMARK    1  A    between atoms: C_1  and  N_2
REMARK    2  A    between atoms: C_6  and  C_7
REMARK    3  A    between atoms: C_7  and  C_8
REMARK    4  A    between atoms: C_8  and  C_9
REMARK    5  A    between atoms: C_13  and  N_14
REMARK    6  A    between atoms: C_22  and  C_23
REMARK    7  A    between atoms: C_23  and  O_24
REMARK                            x       y       z     vdW  Elec       q    Type
REMARK                         _______ _______ _______ _____ _____    ______ ____
ROOT
ATOM      1  N   UNL     1       3.627   4.827  19.413  0.00  0.00    +0.000 N 
ATOM      2  C   UNL     1       5.021   5.350  19.419  0.00  0.00    +0.000 C 
ATOM      3  C   UNL     1       5.474   5.036  18.026  0.00  0.00    +0.000 A 
ATOM      4  C   UNL     1       4.745   3.929  17.583  0.00  0.00    +0.000 A 
ATOM      5  C   UNL     1       4.797   3.474  16.281  0.00  0.00    +0.000 A 
ATOM      6  C   UNL     1       5.603   4.190  15.406  0.00  0.00    +0.000 A 
ATOM      7  F   UNL     1       5.621   3.852  14.110  0.00  0.00    +0.000 F 
ATOM      8  C   UNL     1       6.329   5.318  15.822  0.00  0.00    +0.000 A 
ATOM      9  C   UNL     1       6.283   5.761  17.155  0.00  0.00    +0.000 A 
ATOM     10  C   UNL     1       3.654   3.693  18.555  0.00  0.00    +0.000 C 
ATOM     11  O   UNL     1       2.834   2.798  18.454  0.00  0.00    +0.000 OA
ENDROOT
BRANCH   1  16
ATOM     12  C   UNL     1       1.772   7.922  19.946  0.00  0.00    +0.000 A 
ATOM     13  C   UNL     1       2.193   8.599  18.793  0.00  0.00    +0.000 A 
ATOM     14  C   UNL     1       2.678   7.896  17.696  0.00  0.00    +0.000 A 
ATOM     15  C   UNL     1       2.867   6.522  17.786  0.00  0.00    +0.000 A 
ATOM     16  C   UNL     1       2.704   5.886  19.027  0.00  0.00    +0.000 A 
ATOM     17  C   UNL     1       2.012   6.546  20.047  0.00  0.00    +0.000 A 
BRANCH  12  18
ATOM     18  C   UNL     1       1.181   8.678  21.109  0.00  0.00    +0.000 C 
BRANCH  18  19
ATOM     19  C   UNL     1       0.870  10.130  20.742  0.00  0.00    +0.000 C 
BRANCH  19  25
ATOM     20  C   UNL     1       0.304  13.161  21.002  0.00  0.00    +0.000 C 
ATOM     21  N   UNL     1      -0.244  12.124  21.829  0.00  0.00    +0.000 N 
ATOM     22  C   UNL     1      -1.090  12.295  22.880  0.00  0.00    +0.000 A 
ATOM     23  N   UNL     1      -1.382  11.131  23.407  0.00  0.00    +0.000 NA
ATOM     24  N   UNL     1      -0.712  10.170  22.685  0.00  0.00    +0.000 NA
ATOM     25  C   UNL     1      -0.031  10.769  21.735  0.00  0.00    +0.000 A 
ENDBRANCH  19  25
ENDBRANCH  18  19
ENDBRANCH  12  18
ENDBRANCH   1  16
BRANCH   9  26
ATOM     26  C   UNL     1       6.955   7.045  17.549  0.00  0.00    +0.000 C 
ATOM     27  F   UNL     1       6.126   8.121  17.507  0.00  0.00    +0.000 F 
BRANCH  26  28
ATOM     28  O   UNL     1       7.978   7.354  16.625  0.00  0.00    +0.000 OA
ATOM     29  H   UNL     1       8.638   7.802  17.183  0.00  0.00    +0.000 HD
ENDBRANCH  26  28
ENDBRANCH   9  26
TORSDOF 6
ENDMDL
MODEL 7
REMARK VINA RESULT:      -8.0      1.639      2.442
REMARK  Name = 
REMARK  7 active torsions:
REMARK  status: ('A' for Active; 'I' for Inactive)
REMARK    1  A    between atoms: C_1  and  N_2
REMARK    2  A    between atoms: C_6  and  C_7
REMARK    3  A    between atoms: C_7  and  C_8
REMARK    4  A    between atoms: C_8  and  C_9
REMARK    5  A    between atoms: C_13  and  N_14
REMARK    6  A    between atoms: C_22  and  C_23
REMARK    7  A    between atoms: C_23  and  O_24
REMARK                            x       y       z     vdW  Elec       q    Type
REMARK                         _______ _______ _______ _____ _____    ______ ____
ROOT
ATOM      1  N   UNL     1       4.217   2.964  19.122  0.00  0.00    +0.000 N 
ATOM      2  C   UNL     1       5.652   3.352  19.207  0.00  0.00    +0.000 C 
ATOM      3  C   UNL     1       5.755   4.393  18.135  0.00  0.00    +0.000 A 
ATOM      4  C   UNL     1       4.773   4.114  17.179  0.00  0.00    +0.000 A 
ATOM      5  C   UNL     1       4.483   4.970  16.136  0.00  0.00    +0.000 A 
ATOM      6  C   UNL     1       5.206   6.155  16.088  0.00  0.00    +0.000 A 
ATOM      7  F   UNL     1       4.904   7.066  15.153  0.00  0.00    +0.000 F 
ATOM      8  C   UNL     1       6.182   6.467  17.047  0.00  0.00    +0.000 A 
ATOM      9  C   UNL     1       6.482   5.579  18.094  0.00  0.00    +0.000 A 
ATOM     10  C   UNL     1       3.877   3.081  17.746  0.00  0.00    +0.000 C 
ATOM     11  O   UNL     1       2.913   2.620  17.160  0.00  0.00    +0.000 OA
ENDROOT
BRANCH   1  16
ATOM     12  C   UNL     1       2.269   5.902  20.055  0.00  0.00    +0.000 A 
ATOM     13  C   UNL     1       1.120   5.235  20.506  0.00  0.00    +0.000 A 
ATOM     14  C   UNL     1       1.185   3.905  20.904  0.00  0.00    +0.000 A 
ATOM     15  C   UNL     1       2.365   3.191  20.738  0.00  0.00    +0.000 A 
ATOM     16  C   UNL     1       3.430   3.778  20.036  0.00  0.00    +0.000 A 
ATOM     17  C   UNL     1       3.439   5.164  19.844  0.00  0.00    +0.000 A 
BRANCH  12  18
ATOM     18  C   UNL     1       2.215   7.363  19.690  0.00  0.00    +0.000 C 
BRANCH  18  19
ATOM     19  C   UNL     1       1.469   8.185  20.743  0.00  0.00    +0.000 C 
BRANCH  19  25
ATOM     20  C   UNL     1      -0.270  10.248  22.257  0.00  0.00    +0.000 C 
ATOM     21  N   UNL     1       0.012  10.249  20.850  0.00  0.00    +0.000 N 
ATOM     22  C   UNL     1      -0.452  11.145  19.937  0.00  0.00    +0.000 A 
ATOM     23  N   UNL     1       0.002  10.838  18.746  0.00  0.00    +0.000 NA
ATOM     24  N   UNL     1       0.784   9.714  18.878  0.00  0.00    +0.000 NA
ATOM     25  C   UNL     1       0.791   9.363  20.145  0.00  0.00    +0.000 A 
ENDBRANCH  19  25
ENDBRANCH  18  19
ENDBRANCH  12  18
ENDBRANCH   1  16
BRANCH   9  26
ATOM     26  C   UNL     1       7.428   5.990  19.186  0.00  0.00    +0.000 C 
ATOM     27  F   UNL     1       8.191   7.066  18.861  0.00  0.00    +0.000 F 
BRANCH  26  28
ATOM     28  O   UNL     1       8.362   4.957  19.426  0.00  0.00    +0.000 OA
ATOM     29  H   UNL     1       9.182   5.450  19.600  0.00  0.00    +0.000 HD
ENDBRANCH  26  28
ENDBRANCH   9  26
TORSDOF 6
ENDMDL
MODEL 8
REMARK VINA RESULT:      -7.9      4.440      6.366
REMARK  Name = 
REMARK  7 active torsions:
REMARK  status: ('A' for Active; 'I' for Inactive)
REMARK    1  A    between atoms: C_1  and  N_2
REMARK    2  A    between atoms: C_6  and  C_7
REMARK    3  A    between atoms: C_7  and  C_8
REMARK    4  A    between atoms: C_8  and  C_9
REMARK    5  A    between atoms: C_13  and  N_14
REMARK    6  A    between atoms: C_22  and  C_23
REMARK    7  A    between atoms: C_23  and  O_24
REMARK                            x       y       z     vdW  Elec       q    Type
REMARK                         _______ _______ _______ _____ _____    ______ ____
ROOT
ATOM      1  N   UNL     1       6.037   5.485  15.657  0.00  0.00    +0.000 N 
ATOM      2  C   UNL     1       4.817   6.252  16.028  0.00  0.00    +0.000 C 
ATOM      3  C   UNL     1       4.142   5.315  16.983  0.00  0.00    +0.000 A 
ATOM      4  C   UNL     1       4.532   4.016  16.647  0.00  0.00    +0.000 A 
ATOM      5  C   UNL     1       4.222   2.919  17.426  0.00  0.00    +0.000 A 
ATOM      6  C   UNL     1       3.511   3.169  18.592  0.00  0.00    +0.000 A 
ATOM      7  F   UNL     1       3.261   2.157  19.434  0.00  0.00    +0.000 F 
ATOM      8  C   UNL     1       3.125   4.467  18.961  0.00  0.00    +0.000 A 
ATOM      9  C   UNL     1       3.430   5.574  18.151  0.00  0.00    +0.000 A 
ATOM     10  C   UNL     1       5.643   4.119  15.675  0.00  0.00    +0.000 C 
ATOM     11  O   UNL     1       6.211   3.158  15.185  0.00  0.00    +0.000 OA
ENDROOT
BRANCH   1  16
ATOM     12  C   UNL     1       7.850   7.701  17.917  0.00  0.00    +0.000 A 
ATOM     13  C   UNL     1       7.946   6.824  19.008  0.00  0.00    +0.000 A 
ATOM     14  C   UNL     1       7.832   5.451  18.825  0.00  0.00    +0.000 A 
ATOM     15  C   UNL     1       7.495   4.947  17.575  0.00  0.00    +0.000 A 
ATOM     16  C   UNL     1       7.132   5.836  16.551  0.00  0.00    +0.000 A 
ATOM     17  C   UNL     1       7.461   7.190  16.673  0.00  0.00    +0.000 A 
BRANCH  12  18
ATOM     18  C   UNL     1       8.043   9.184  18.104  0.00  0.00    +0.000 C 
BRANCH  18  19
ATOM     19  C   UNL     1       9.320   9.496  18.885  0.00  0.00    +0.000 C 
BRANCH  19  25
ATOM     20  C   UNL     1       9.577  12.323  17.651  0.00  0.00    +0.000 C 
ATOM     21  N   UNL     1       9.353  12.021  19.036  0.00  0.00    +0.000 N 
ATOM     22  C   UNL     1       9.235  12.923  20.048  0.00  0.00    +0.000 A 
ATOM     23  N   UNL     1       9.043  12.294  21.182  0.00  0.00    +0.000 NA
ATOM     24  N   UNL     1       9.033  10.945  20.910  0.00  0.00    +0.000 NA
ATOM     25  C   UNL     1       9.217  10.783  19.619  0.00  0.00    +0.000 A 
ENDBRANCH  19  25
ENDBRANCH  18  19
ENDBRANCH  12  18
ENDBRANCH   1  16
BRANCH   9  26
ATOM     26  C   UNL     1       3.131   6.966  18.629  0.00  0.00    +0.000 C 
ATOM     27  F   UNL     1       4.130   7.850  18.370  0.00  0.00    +0.000 F 
BRANCH  26  28
ATOM     28  O   UNL     1       3.010   6.974  20.035  0.00  0.00    +0.000 OA
ATOM     29  H   UNL     1       2.045   6.970  20.165  0.00  0.00    +0.000 HD
ENDBRANCH  26  28
ENDBRANCH   9  26
TORSDOF 6
ENDMDL
MODEL 9
REMARK VINA RESULT:      -7.9      3.346      4.857
REMARK  Name = 
REMARK  7 active torsions:
REMARK  status: ('A' for Active; 'I' for Inactive)
REMARK    1  A    between atoms: C_1  and  N_2
REMARK    2  A    between atoms: C_6  and  C_7
REMARK    3  A    between atoms: C_7  and  C_8
REMARK    4  A    between atoms: C_8  and  C_9
REMARK    5  A    between atoms: C_13  and  N_14
REMARK    6  A    between atoms: C_22  and  C_23
REMARK    7  A    between atoms: C_23  and  O_24
REMARK                            x       y       z     vdW  Elec       q    Type
REMARK                         _______ _______ _______ _____ _____    ______ ____
ROOT
ATOM      1  N   UNL     1       2.872   5.505  17.443  0.00  0.00    +0.000 N 
ATOM      2  C   UNL     1       1.809   4.540  17.837  0.00  0.00    +0.000 C 
ATOM      3  C   UNL     1       2.566   3.586  18.710  0.00  0.00    +0.000 A 
ATOM      4  C   UNL     1       3.901   3.603  18.296  0.00  0.00    +0.000 A 
ATOM      5  C   UNL     1       4.905   2.960  18.992  0.00  0.00    +0.000 A 
ATOM      6  C   UNL     1       4.529   2.302  20.155  0.00  0.00    +0.000 A 
ATOM      7  F   UNL     1       5.473   1.739  20.921  0.00  0.00    +0.000 F 
ATOM      8  C   UNL     1       3.198   2.288  20.602  0.00  0.00    +0.000 A 
ATOM      9  C   UNL     1       2.181   2.930  19.876  0.00  0.00    +0.000 A 
ATOM     10  C   UNL     1       4.066   4.736  17.359  0.00  0.00    +0.000 C 
ATOM     11  O   UNL     1       5.119   5.026  16.819  0.00  0.00    +0.000 OA
ENDROOT
BRANCH   1  16
ATOM     12  C   UNL     1       1.883   8.791  18.678  0.00  0.00    +0.000 A 
ATOM     13  C   UNL     1       1.502   8.402  19.971  0.00  0.00    +0.000 A 
ATOM     14  C   UNL     1       1.986   7.224  20.528  0.00  0.00    +0.000 A 
ATOM     15  C   UNL     1       2.751   6.360  19.756  0.00  0.00    +0.000 A 
ATOM     16  C   UNL     1       2.903   6.616  18.384  0.00  0.00    +0.000 A 
ATOM     17  C   UNL     1       2.612   7.892  17.891  0.00  0.00    +0.000 A 
BRANCH  12  18
ATOM     18  C   UNL     1       1.415  10.102  18.101  0.00  0.00    +0.000 C 
BRANCH  18  19
ATOM     19  C   UNL     1       0.288  10.718  18.931  0.00  0.00    +0.000 C 
BRANCH  19  25
ATOM     20  C   UNL     1      -2.262  12.332  19.614  0.00  0.00    +0.000 C 
ATOM     21  N   UNL     1      -2.142  11.334  18.590  0.00  0.00    +0.000 N 
ATOM     22  C   UNL     1      -3.131  10.911  17.758  0.00  0.00    +0.000 A 
ATOM     23  N   UNL     1      -2.666   9.986  16.953  0.00  0.00    +0.000 NA
ATOM     24  N   UNL     1      -1.340   9.796  17.263  0.00  0.00    +0.000 NA
ATOM     25  C   UNL     1      -1.025  10.609  18.246  0.00  0.00    +0.000 A 
ENDBRANCH  19  25
ENDBRANCH  18  19
ENDBRANCH  12  18
ENDBRANCH   1  16
BRANCH   9  26
ATOM     26  C   UNL     1       0.792   3.022  20.439  0.00  0.00    +0.000 C 
ATOM     27  F   UNL     1       0.310   4.292  20.479  0.00  0.00    +0.000 F 
BRANCH  26  28
ATOM     28  O   UNL     1       0.793   2.604  21.788  0.00  0.00    +0.000 OA
ATOM     29  H   UNL     1       0.259   1.791  21.758  0.00  0.00    +0.000 HD
ENDBRANCH  26  28
ENDBRANCH   9  26
TORSDOF 6
ENDMDL
