MODEL 1
REMARK VINA RESULT:      -8.8      0.000      0.000
REMARK  Name = 
REMARK  6 active torsions:
REMARK  status: ('A' for Active; 'I' for Inactive)
REMARK    1  A    between atoms: C_2  and  C_17
REMARK    2  A    between atoms: N_3  and  C_4
REMARK    3  A    between atoms: N_8  and  C_9
REMARK    4  A    between atoms: C_9  and  C_10
REMARK    5  A    between atoms: C_21  and  C_22
REMARK    6  A    between atoms: C_22  and  N_23
REMARK                            x       y       z     vdW  Elec       q    Type
REMARK                         _______ _______ _______ _____ _____    ______ ____
ROOT
ATOM      1  O   UNL     1       2.393   9.005  17.245  0.00  0.00    +0.000 OA
ATOM      2  C   UNL     1       2.011   8.590  18.329  0.00  0.00    +0.000 C 
ATOM      3  N   UNL     1       1.342   9.445  19.275  0.00  0.00    +0.000 N 
ATOM      4  H   UNL     1       1.143   9.084  20.202  0.00  0.00    +0.000 HD
ENDROOT
BRANCH   2   5
ATOM      5  C   UNL     1       2.336   7.215  18.780  0.00  0.00    +0.000 A 
ATOM      6  C   UNL     1       1.966   6.847  20.080  0.00  0.00    +0.000 A 
ATOM      7  C   UNL     1       2.211   5.553  20.533  0.00  0.00    +0.000 A 
ATOM      8  C   UNL     1       2.809   4.619  19.686  0.00  0.00    +0.000 A 
ATOM      9  C   UNL     1       3.175   4.969  18.380  0.00  0.00    +0.000 A 
ATOM     10  C   UNL     1       2.970   6.290  17.943  0.00  0.00    +0.000 A 
BRANCH   9  11
ATOM     11  C   UNL     1       3.750   3.936  17.441  0.00  0.00    +0.000 C 
BRANCH  11  12
ATOM     12  N   UNL     1       5.099   4.236  17.020  0.00  0.00    +0.000 N 
ATOM     13  C   UNL     1       5.395   4.785  15.720  0.00  0.00    +0.000 C 
ATOM     14  C   UNL     1       6.908   4.874  15.715  0.00  0.00    +0.000 C 
ATOM     15  C   UNL     1       7.258   5.126  17.177  0.00  0.00    +0.000 C 
ATOM     16  C   UNL     1       6.138   4.435  17.917  0.00  0.00    +0.000 C 
ATOM     17  O   UNL     1       6.123   4.173  19.109  0.00  0.00    +0.000 OA
ENDBRANCH  11  12
ENDBRANCH   9  11
ENDBRANCH   2   5
BRANCH   3  18
ATOM     18  C   UNL     1       1.019  10.776  19.004  0.00  0.00    +0.000 A 
ATOM     19  C   UNL     1       1.886  11.834  18.833  0.00  0.00    +0.000 A 
ATOM     20  C   UNL     1       1.073  12.954  18.587  0.00  0.00    +0.000 A 
ATOM     21  N   UNL     1      -0.224  12.649  18.600  0.00  0.00    +0.000 NA
ATOM     22  N   UNL     1      -0.244  11.317  18.845  0.00  0.00    +0.000 N 
BRANCH  22  23
ATOM     23  C   UNL     1      -1.535  10.684  19.087  0.00  0.00    +0.000 C 
BRANCH  23  24
ATOM     24  C   UNL     1      -2.420  10.728  17.868  0.00  0.00    +0.000 A 
ATOM     25  C   UNL     1      -2.013  10.048  16.705  0.00  0.00    +0.000 A 
ATOM     26  C   UNL     1      -2.825  10.014  15.569  0.00  0.00    +0.000 A 
ATOM     27  C   UNL     1      -4.064  10.646  15.580  0.00  0.00    +0.000 A 
ATOM     28  C   UNL     1      -4.478  11.339  16.716  0.00  0.00    +0.000 A 
ATOM     29  C   UNL     1      -3.656  11.391  17.845  0.00  0.00    +0.000 A 
ATOM     30 CL   UNL     1      -4.208  12.324  19.187  0.00  0.00    +0.000 Cl
ENDBRANCH  23  24
ENDBRANCH  22  23
ENDBRANCH   3  18
TORSDOF 6
ENDMDL
MODEL 2
REMARK VINA RESULT:      -8.6      3.208      8.591
REMARK  Name = 
REMARK  6 active torsions:
REMARK  status: ('A' for Active; 'I' for Inactive)
REMARK    1  A    between atoms: C_2  and  C_17
REMARK    2  A    between atoms: N_3  and  C_4
REMARK    3  A    between atoms: N_8  and  C_9
REMARK    4  A    between atoms: C_9  and  C_10
REMARK    5  A    between atoms: C_21  and  C_22
REMARK    6  A    between atoms: C_22  and  N_23
REMARK                            x       y       z     vdW  Elec       q    Type
REMARK                         _______ _______ _______ _____ _____    ______ ____
ROOT
ATOM      1  O   UNL     1       3.028   7.704  16.861  0.00  0.00    +0.000 OA
ATOM      2  C   UNL     1       2.973   7.527  18.068  0.00  0.00    +0.000 C 
ATOM      3  N   UNL     1       3.783   6.533  18.725  0.00  0.00    +0.000 N 
ATOM      4  H   UNL     1       3.623   6.348  19.709  0.00  0.00    +0.000 HD
ENDROOT
BRANCH   2   5
ATOM      5  C   UNL     1       1.972   8.234  18.902  0.00  0.00    +0.000 A 
ATOM      6  C   UNL     1       1.780   7.789  20.216  0.00  0.00    +0.000 A 
ATOM      7  C   UNL     1       0.882   8.450  21.051  0.00  0.00    +0.000 A 
ATOM      8  C   UNL     1       0.187   9.566  20.583  0.00  0.00    +0.000 A 
ATOM      9  C   UNL     1       0.375  10.029  19.274  0.00  0.00    +0.000 A 
ATOM     10  C   UNL     1       1.246   9.330  18.420  0.00  0.00    +0.000 A 
BRANCH   9  11
ATOM     11  C   UNL     1      -0.319  11.281  18.797  0.00  0.00    +0.000 C 
BRANCH  11  12
ATOM     12  N   UNL     1      -1.563  11.018  18.112  0.00  0.00    +0.000 N 
ATOM     13  C   UNL     1      -1.724   9.905  17.209  0.00  0.00    +0.000 C 
ATOM     14  C   UNL     1      -3.144  10.068  16.705  0.00  0.00    +0.000 C 
ATOM     15  C   UNL     1      -3.872  10.709  17.880  0.00  0.00    +0.000 C 
ATOM     16  C   UNL     1      -2.783  11.505  18.560  0.00  0.00    +0.000 C 
ATOM     17  O   UNL     1      -2.949  12.365  19.409  0.00  0.00    +0.000 OA
ENDBRANCH  11  12
ENDBRANCH   9  11
ENDBRANCH   2   5
BRANCH   3  18
ATOM     18  C   UNL     1       4.731   5.758  18.055  0.00  0.00    +0.000 A 
ATOM     19  C   UNL     1       6.023   6.109  17.724  0.00  0.00    +0.000 A 
ATOM     20  C   UNL     1       6.560   4.993  17.060  0.00  0.00    +0.000 A 
ATOM     21  N   UNL     1       5.685   3.993  16.963  0.00  0.00    +0.000 NA
ATOM     22  N   UNL     1       4.577   4.467  17.582  0.00  0.00    +0.000 N 
BRANCH  22  23
ATOM     23  C   UNL     1       3.358   3.671  17.510  0.00  0.00    +0.000 C 
BRANCH  23  24
ATOM     24  C   UNL     1       2.693   3.539  18.857  0.00  0.00    +0.000 A 
ATOM     25  C   UNL     1       1.463   4.186  19.077  0.00  0.00    +0.000 A 
ATOM     26  C   UNL     1       0.782   4.047  20.289  0.00  0.00    +0.000 A 
ATOM     27  C   UNL     1       1.312   3.248  21.297  0.00  0.00    +0.000 A 
ATOM     28  C   UNL     1       2.537   2.612  21.105  0.00  0.00    +0.000 A 
ATOM     29  C   UNL     1       3.228   2.768  19.900  0.00  0.00    +0.000 A 
ATOM     30 CL   UNL     1       4.769   2.004  19.764  0.00  0.00    +0.000 Cl
ENDBRANCH  23  24
ENDBRANCH  22  23
ENDBRANCH   3  18
TORSDOF 6
ENDMDL
MODEL 3
REMARK VINA RESULT:      -8.6      3.175      8.532
REMARK  Name = 
REMARK  6 active torsions:
REMARK  status: ('A' for Active; 'I' for Inactive)
REMARK    1  A    between atoms: C_2  and  C_17
REMARK    2  A    between atoms: N_3  and  C_4
REMARK    3  A    between atoms: N_8  and  C_9
REMARK    4  A    between atoms: C_9  and  C_10
REMARK    5  A    between atoms: C_21  and  C_22
REMARK    6  A    between atoms: C_22  and  N_23
REMARK                            x       y       z     vdW  Elec       q    Type
REMARK                         _______ _______ _______ _____ _____    ______ ____
ROOT
ATOM      1  O   UNL     1       4.016   5.987  19.881  0.00  0.00    +0.000 OA
ATOM      2  C   UNL     1       3.194   6.466  19.115  0.00  0.00    +0.000 C 
ATOM      3  N   UNL     1       3.218   6.182  17.703  0.00  0.00    +0.000 N 
ATOM      4  H   UNL     1       2.584   6.688  17.094  0.00  0.00    +0.000 HD
ENDROOT
BRANCH   2   5
ATOM      5  C   UNL     1       2.207   7.470  19.580  0.00  0.00    +0.000 A 
ATOM      6  C   UNL     1       1.636   7.292  20.847  0.00  0.00    +0.000 A 
ATOM      7  C   UNL     1       0.737   8.233  21.343  0.00  0.00    +0.000 A 
ATOM      8  C   UNL     1       0.418   9.361  20.586  0.00  0.00    +0.000 A 
ATOM      9  C   UNL     1       0.989   9.558  19.321  0.00  0.00    +0.000 A 
ATOM     10  C   UNL     1       1.858   8.581  18.804  0.00  0.00    +0.000 A 
BRANCH   9  11
ATOM     11  C   UNL     1       0.703  10.816  18.538  0.00  0.00    +0.000 C 
BRANCH  11  12
ATOM     12  N   UNL     1      -0.686  10.953  18.166  0.00  0.00    +0.000 N 
ATOM     13  C   UNL     1      -1.408   9.903  17.490  0.00  0.00    +0.000 C 
ATOM     14  C   UNL     1      -2.778  10.512  17.263  0.00  0.00    +0.000 C 
ATOM     15  C   UNL     1      -2.956  11.449  18.452  0.00  0.00    +0.000 C 
ATOM     16  C   UNL     1      -1.539  11.864  18.772  0.00  0.00    +0.000 C 
ATOM     17  O   UNL     1      -1.211  12.787  19.499  0.00  0.00    +0.000 OA
ENDBRANCH  11  12
ENDBRANCH   9  11
ENDBRANCH   2   5
BRANCH   3  18
ATOM     18  C   UNL     1       4.125   5.296  17.119  0.00  0.00    +0.000 A 
ATOM     19  C   UNL     1       5.350   5.592  16.560  0.00  0.00    +0.000 A 
ATOM     20  C   UNL     1       5.869   4.365  16.111  0.00  0.00    +0.000 A 
ATOM     21  N   UNL     1       5.043   3.348  16.357  0.00  0.00    +0.000 NA
ATOM     22  N   UNL     1       3.989   3.926  16.980  0.00  0.00    +0.000 N 
BRANCH  22  23
ATOM     23  C   UNL     1       2.814   3.104  17.245  0.00  0.00    +0.000 C 
BRANCH  23  24
ATOM     24  C   UNL     1       2.393   3.176  18.691  0.00  0.00    +0.000 A 
ATOM     25  C   UNL     1       1.162   3.777  19.013  0.00  0.00    +0.000 A 
ATOM     26  C   UNL     1       0.703   3.818  20.332  0.00  0.00    +0.000 A 
ATOM     27  C   UNL     1       1.460   3.245  21.350  0.00  0.00    +0.000 A 
ATOM     28  C   UNL     1       2.689   2.659  21.053  0.00  0.00    +0.000 A 
ATOM     29  C   UNL     1       3.158   2.638  19.737  0.00  0.00    +0.000 A 
ATOM     30 CL   UNL     1       4.718   1.955  19.460  0.00  0.00    +0.000 Cl
ENDBRANCH  23  24
ENDBRANCH  22  23
ENDBRANCH   3  18
TORSDOF 6
ENDMDL
MODEL 4
REMARK VINA RESULT:      -8.6      1.647      2.973
REMARK  Name = 
REMARK  6 active torsions:
REMARK  status: ('A' for Active; 'I' for Inactive)
REMARK    1  A    between atoms: C_2  and  C_17
REMARK    2  A    between atoms: N_3  and  C_4
REMARK    3  A    between atoms: N_8  and  C_9
REMARK    4  A    between atoms: C_9  and  C_10
REMARK    5  A    between atoms: C_21  and  C_22
REMARK    6  A    between atoms: C_22  and  N_23
REMARK                            x       y       z     vdW  Elec       q    Type
REMARK                         _______ _______ _______ _____ _____    ______ ____
ROOT
ATOM      1  O   UNL     1       1.799   8.524  19.956  0.00  0.00    +0.000 OA
ATOM      2  C   UNL     1       2.189   8.546  18.799  0.00  0.00    +0.000 C 
ATOM      3  N   UNL     1       1.989   9.695  17.954  0.00  0.00    +0.000 N 
ATOM      4  H   UNL     1       2.231   9.625  16.971  0.00  0.00    +0.000 HD
ENDROOT
BRANCH   2   5
ATOM      5  C   UNL     1       2.769   7.339  18.162  0.00  0.00    +0.000 A 
ATOM      6  C   UNL     1       3.915   7.500  17.373  0.00  0.00    +0.000 A 
ATOM      7  C   UNL     1       4.521   6.389  16.791  0.00  0.00    +0.000 A 
ATOM      8  C   UNL     1       3.995   5.115  17.008  0.00  0.00    +0.000 A 
ATOM      9  C   UNL     1       2.855   4.937  17.802  0.00  0.00    +0.000 A 
ATOM     10  C   UNL     1       2.219   6.066  18.348  0.00  0.00    +0.000 A 
BRANCH   9  11
ATOM     11  C   UNL     1       2.336   3.551  18.099  0.00  0.00    +0.000 C 
BRANCH  11  12
ATOM     12  N   UNL     1       2.225   3.274  19.512  0.00  0.00    +0.000 N 
ATOM     13  C   UNL     1       0.957   3.018  20.149  0.00  0.00    +0.000 C 
ATOM     14  C   UNL     1       1.329   2.841  21.608  0.00  0.00    +0.000 C 
ATOM     15  C   UNL     1       2.729   2.242  21.553  0.00  0.00    +0.000 C 
ATOM     16  C   UNL     1       3.291   2.813  20.272  0.00  0.00    +0.000 C 
ATOM     17  O   UNL     1       4.464   2.796  19.936  0.00  0.00    +0.000 OA
ENDBRANCH  11  12
ENDBRANCH   9  11
ENDBRANCH   2   5
BRANCH   3  18
ATOM     18  C   UNL     1       1.410  10.882  18.406  0.00  0.00    +0.000 A 
ATOM     19  C   UNL     1       2.040  12.080  18.667  0.00  0.00    +0.000 A 
ATOM     20  C   UNL     1       1.028  12.955  19.098  0.00  0.00    +0.000 A 
ATOM     21  N   UNL     1      -0.169  12.371  19.120  0.00  0.00    +0.000 NA
ATOM     22  N   UNL     1       0.075  11.111  18.686  0.00  0.00    +0.000 N 
BRANCH  22  23
ATOM     23  C   UNL     1      -1.014  10.143  18.746  0.00  0.00    +0.000 C 
BRANCH  23  24
ATOM     24  C   UNL     1      -2.062  10.411  17.696  0.00  0.00    +0.000 A 
ATOM     25  C   UNL     1      -1.933   9.802  16.433  0.00  0.00    +0.000 A 
ATOM     26  C   UNL     1      -2.907   9.976  15.447  0.00  0.00    +0.000 A 
ATOM     27  C   UNL     1      -4.033  10.748  15.710  0.00  0.00    +0.000 A 
ATOM     28  C   UNL     1      -4.171  11.372  16.948  0.00  0.00    +0.000 A 
ATOM     29  C   UNL     1      -3.187  11.216  17.927  0.00  0.00    +0.000 A 
ATOM     30 CL   UNL     1      -3.397  12.074  19.409  0.00  0.00    +0.000 Cl
ENDBRANCH  23  24
ENDBRANCH  22  23
ENDBRANCH   3  18
TORSDOF 6
ENDMDL
MODEL 5
REMARK VINA RESULT:      -8.5      2.582      3.755
REMARK  Name = 
REMARK  6 active torsions:
REMARK  status: ('A' for Active; 'I' for Inactive)
REMARK    1  A    between atoms: C_2  and  C_17
REMARK    2  A    between atoms: N_3  and  C_4
REMARK    3  A    between atoms: N_8  and  C_9
REMARK    4  A    between atoms: C_9  and  C_10
REMARK    5  A    between atoms: C_21  and  C_22
REMARK    6  A    between atoms: C_22  and  N_23
REMARK                            x       y       z     vdW  Elec       q    Type
REMARK                         _______ _______ _______ _____ _____    ______ ____
ROOT
ATOM      1  O   UNL     1      -0.377   8.535  21.460  0.00  0.00    +0.000 OA
ATOM      2  C   UNL     1       0.392   9.159  20.746  0.00  0.00    +0.000 C 
ATOM      3  N   UNL     1       0.345  10.596  20.657  0.00  0.00    +0.000 N 
ATOM      4  H   UNL     1       0.928  11.061  19.969  0.00  0.00    +0.000 HD
ENDROOT
BRANCH   2   5
ATOM      5  C   UNL     1       1.327   8.461  19.831  0.00  0.00    +0.000 A 
ATOM      6  C   UNL     1       1.639   9.081  18.613  0.00  0.00    +0.000 A 
ATOM      7  C   UNL     1       2.547   8.484  17.742  0.00  0.00    +0.000 A 
ATOM      8  C   UNL     1       3.156   7.277  18.088  0.00  0.00    +0.000 A 
ATOM      9  C   UNL     1       2.861   6.650  19.306  0.00  0.00    +0.000 A 
ATOM     10  C   UNL     1       1.909   7.232  20.161  0.00  0.00    +0.000 A 
BRANCH   9  11
ATOM     11  C   UNL     1       3.580   5.387  19.712  0.00  0.00    +0.000 C 
BRANCH  11  12
ATOM     12  N   UNL     1       2.687   4.285  19.986  0.00  0.00    +0.000 N 
ATOM     13  C   UNL     1       2.162   4.030  21.305  0.00  0.00    +0.000 C 
ATOM     14  C   UNL     1       1.340   2.771  21.115  0.00  0.00    +0.000 C 
ATOM     15  C   UNL     1       0.839   2.881  19.680  0.00  0.00    +0.000 C 
ATOM     16  C   UNL     1       1.934   3.666  18.998  0.00  0.00    +0.000 C 
ATOM     17  O   UNL     1       2.079   3.794  17.794  0.00  0.00    +0.000 OA
ENDBRANCH  11  12
ENDBRANCH   9  11
ENDBRANCH   2   5
BRANCH   3  18
ATOM     18  C   UNL     1      -0.521  11.379  21.422  0.00  0.00    +0.000 A 
ATOM     19  C   UNL     1      -0.806  11.250  22.765  0.00  0.00    +0.000 A 
ATOM     20  C   UNL     1      -1.732  12.268  23.055  0.00  0.00    +0.000 A 
ATOM     21  N   UNL     1      -2.028  13.001  21.983  0.00  0.00    +0.000 NA
ATOM     22  N   UNL     1      -1.277  12.456  20.997  0.00  0.00    +0.000 N 
BRANCH  22  23
ATOM     23  C   UNL     1      -1.489  12.928  19.633  0.00  0.00    +0.000 C 
BRANCH  23  24
ATOM     24  C   UNL     1      -2.170  11.889  18.779  0.00  0.00    +0.000 A 
ATOM     25  C   UNL     1      -1.383  11.064  17.953  0.00  0.00    +0.000 A 
ATOM     26  C   UNL     1      -1.962  10.051  17.186  0.00  0.00    +0.000 A 
ATOM     27  C   UNL     1      -3.336   9.835  17.241  0.00  0.00    +0.000 A 
ATOM     28  C   UNL     1      -4.133  10.652  18.040  0.00  0.00    +0.000 A 
ATOM     29  C   UNL     1      -3.556  11.679  18.791  0.00  0.00    +0.000 A 
ATOM     30 CL   UNL     1      -4.617  12.689  19.702  0.00  0.00    +0.000 Cl
ENDBRANCH  23  24
ENDBRANCH  22  23
ENDBRANCH   3  18
TORSDOF 6
ENDMDL
MODEL 6
REMARK VINA RESULT:      -8.5      2.531      8.395
REMARK  Name = 
REMARK  6 active torsions:
REMARK  status: ('A' for Active; 'I' for Inactive)
REMARK    1  A    between atoms: C_2  and  C_17
REMARK    2  A    between atoms: N_3  and  C_4
REMARK    3  A    between atoms: N_8  and  C_9
REMARK    4  A    between atoms: C_9  and  C_10
REMARK    5  A    between atoms: C_21  and  C_22
REMARK    6  A    between atoms: C_22  and  N_23
REMARK                            x       y       z     vdW  Elec       q    Type
REMARK                         _______ _______ _______ _____ _____    ______ ____
ROOT
ATOM      1  O   UNL     1       3.518   7.634  16.767  0.00  0.00    +0.000 OA
ATOM      2  C   UNL     1       3.385   7.429  17.964  0.00  0.00    +0.000 C 
ATOM      3  N   UNL     1       4.184   6.453  18.659  0.00  0.00    +0.000 N 
ATOM      4  H   UNL     1       3.963   6.241  19.626  0.00  0.00    +0.000 HD
ENDROOT
BRANCH   2   5
ATOM      5  C   UNL     1       2.301   8.081  18.737  0.00  0.00    +0.000 A 
ATOM      6  C   UNL     1       1.992   7.561  20.001  0.00  0.00    +0.000 A 
ATOM      7  C   UNL     1       1.011   8.167  20.782  0.00  0.00    +0.000 A 
ATOM      8  C   UNL     1       0.349   9.302  20.313  0.00  0.00    +0.000 A 
ATOM      9  C   UNL     1       0.654   9.840  19.056  0.00  0.00    +0.000 A 
ATOM     10  C   UNL     1       1.610   9.197  18.251  0.00  0.00    +0.000 A 
BRANCH   9  11
ATOM     11  C   UNL     1      -0.007  11.113  18.585  0.00  0.00    +0.000 C 
BRANCH  11  12
ATOM     12  N   UNL     1      -1.324  10.899  18.030  0.00  0.00    +0.000 N 
ATOM     13  C   UNL     1      -1.613   9.806  17.134  0.00  0.00    +0.000 C 
ATOM     14  C   UNL     1      -3.071  10.021  16.781  0.00  0.00    +0.000 C 
ATOM     15  C   UNL     1      -3.653  10.667  18.034  0.00  0.00    +0.000 C 
ATOM     16  C   UNL     1      -2.474  11.417  18.607  0.00  0.00    +0.000 C 
ATOM     17  O   UNL     1      -2.524  12.269  19.479  0.00  0.00    +0.000 OA
ENDBRANCH  11  12
ENDBRANCH   9  11
ENDBRANCH   2   5
BRANCH   3  18
ATOM     18  C   UNL     1       5.207   5.728  18.044  0.00  0.00    +0.000 A 
ATOM     19  C   UNL     1       6.506   6.131  17.820  0.00  0.00    +0.000 A 
ATOM     20  C   UNL     1       7.131   5.051  17.172  0.00  0.00    +0.000 A 
ATOM     21  N   UNL     1       6.301   4.025  16.985  0.00  0.00    +0.000 NA
ATOM     22  N   UNL     1       5.135   4.446  17.530  0.00  0.00    +0.000 N 
BRANCH  22  23
ATOM     23  C   UNL     1       3.953   3.611  17.347  0.00  0.00    +0.000 C 
BRANCH  23  24
ATOM     24  C   UNL     1       3.164   3.468  18.624  0.00  0.00    +0.000 A 
ATOM     25  C   UNL     1       3.757   2.817  19.722  0.00  0.00    +0.000 A 
ATOM     26  C   UNL     1       3.087   2.709  20.943  0.00  0.00    +0.000 A 
ATOM     27  C   UNL     1       1.818   3.262  21.092  0.00  0.00    +0.000 A 
ATOM     28  C   UNL     1       1.207   3.894  20.011  0.00  0.00    +0.000 A 
ATOM     29  C   UNL     1       1.869   3.984  18.783  0.00  0.00    +0.000 A 
ATOM     30 CL   UNL     1       1.021   4.722  17.475  0.00  0.00    +0.000 Cl
ENDBRANCH  23  24
ENDBRANCH  22  23
ENDBRANCH   3  18
TORSDOF 6
ENDMDL
MODEL 7
REMARK VINA RESULT:      -8.5      1.091      1.301
REMARK  Name = 
REMARK  6 active torsions:
REMARK  status: ('A' for Active; 'I' for Inactive)
REMARK    1  A    between atoms: C_2  and  C_17
REMARK    2  A    between atoms: N_3  and  C_4
REMARK    3  A    between atoms: N_8  and  C_9
REMARK    4  A    between atoms: C_9  and  C_10
REMARK    5  A    between atoms: C_21  and  C_22
REMARK    6  A    between atoms: C_22  and  N_23
REMARK                            x       y       z     vdW  Elec       q    Type
REMARK                         _______ _______ _______ _____ _____    ______ ____
ROOT
ATOM      1  O   UNL     1       2.048   9.862  17.397  0.00  0.00    +0.000 OA
ATOM      2  C   UNL     1       1.739   9.389  18.479  0.00  0.00    +0.000 C 
ATOM      3  N   UNL     1       1.096  10.181  19.497  0.00  0.00    +0.000 N 
ATOM      4  H   UNL     1       0.959   9.775  20.416  0.00  0.00    +0.000 HD
ENDROOT
BRANCH   2   5
ATOM      5  C   UNL     1       2.129   8.008  18.853  0.00  0.00    +0.000 A 
ATOM      6  C   UNL     1       1.763   7.543  20.123  0.00  0.00    +0.000 A 
ATOM      7  C   UNL     1       2.069   6.238  20.501  0.00  0.00    +0.000 A 
ATOM      8  C   UNL     1       2.727   5.389  19.609  0.00  0.00    +0.000 A 
ATOM      9  C   UNL     1       3.091   5.837  18.332  0.00  0.00    +0.000 A 
ATOM     10  C   UNL     1       2.823   7.169  17.972  0.00  0.00    +0.000 A 
BRANCH   9  11
ATOM     11  C   UNL     1       3.731   4.894  17.342  0.00  0.00    +0.000 C 
BRANCH  11  12
ATOM     12  N   UNL     1       5.164   5.048  17.253  0.00  0.00    +0.000 N 
ATOM     13  C   UNL     1       6.074   4.254  18.042  0.00  0.00    +0.000 C 
ATOM     14  C   UNL     1       7.435   4.798  17.656  0.00  0.00    +0.000 C 
ATOM     15  C   UNL     1       7.251   5.237  16.208  0.00  0.00    +0.000 C 
ATOM     16  C   UNL     1       5.790   5.617  16.153  0.00  0.00    +0.000 C 
ATOM     17  O   UNL     1       5.248   6.245  15.259  0.00  0.00    +0.000 OA
ENDBRANCH  11  12
ENDBRANCH   9  11
ENDBRANCH   2   5
BRANCH   3  18
ATOM     18  C   UNL     1       0.718  11.511  19.301  0.00  0.00    +0.000 A 
ATOM     19  C   UNL     1       1.540  12.612  19.197  0.00  0.00    +0.000 A 
ATOM     20  C   UNL     1       0.681  13.710  19.011  0.00  0.00    +0.000 A 
ATOM     21  N   UNL     1      -0.602  13.350  18.999  0.00  0.00    +0.000 NA
ATOM     22  N   UNL     1      -0.566  12.007  19.166  0.00  0.00    +0.000 N 
BRANCH  22  23
ATOM     23  C   UNL     1      -1.830  11.307  19.364  0.00  0.00    +0.000 C 
BRANCH  23  24
ATOM     24  C   UNL     1      -2.585  11.134  18.070  0.00  0.00    +0.000 A 
ATOM     25  C   UNL     1      -1.938  10.519  16.981  0.00  0.00    +0.000 A 
ATOM     26  C   UNL     1      -2.614  10.287  15.780  0.00  0.00    +0.000 A 
ATOM     27  C   UNL     1      -3.950  10.651  15.652  0.00  0.00    +0.000 A 
ATOM     28  C   UNL     1      -4.603  11.276  16.713  0.00  0.00    +0.000 A 
ATOM     29  C   UNL     1      -3.921  11.528  17.907  0.00  0.00    +0.000 A 
ATOM     30 CL   UNL     1      -4.777  12.365  19.149  0.00  0.00    +0.000 Cl
ENDBRANCH  23  24
ENDBRANCH  22  23
ENDBRANCH   3  18
TORSDOF 6
ENDMDL
MODEL 8
REMARK VINA RESULT:      -8.5      3.115      8.710
REMARK  Name = 
REMARK  6 active torsions:
REMARK  status: ('A' for Active; 'I' for Inactive)
REMARK    1  A    between atoms: C_2  and  C_17
REMARK    2  A    between atoms: N_3  and  C_4
REMARK    3  A    between atoms: N_8  and  C_9
REMARK    4  A    between atoms: C_9  and  C_10
REMARK    5  A    between atoms: C_21  and  C_22
REMARK    6  A    between atoms: C_22  and  N_23
REMARK                            x       y       z     vdW  Elec       q    Type
REMARK                         _______ _______ _______ _____ _____    ______ ____
ROOT
ATOM      1  O   UNL     1       3.400   7.768  16.699  0.00  0.00    +0.000 OA
ATOM      2  C   UNL     1       3.200   7.451  17.861  0.00  0.00    +0.000 C 
ATOM      3  N   UNL     1       3.786   6.266  18.435  0.00  0.00    +0.000 N 
ATOM      4  H   UNL     1       3.504   5.986  19.368  0.00  0.00    +0.000 HD
ENDROOT
BRANCH   2   5
ATOM      5  C   UNL     1       2.237   8.197  18.705  0.00  0.00    +0.000 A 
ATOM      6  C   UNL     1       1.975   7.709  19.992  0.00  0.00    +0.000 A 
ATOM      7  C   UNL     1       1.110   8.401  20.836  0.00  0.00    +0.000 A 
ATOM      8  C   UNL     1       0.518   9.589  20.407  0.00  0.00    +0.000 A 
ATOM      9  C   UNL     1       0.777  10.095  19.126  0.00  0.00    +0.000 A 
ATOM     10  C   UNL     1       1.612   9.368  18.260  0.00  0.00    +0.000 A 
BRANCH   9  11
ATOM     11  C   UNL     1       0.197  11.420  18.693  0.00  0.00    +0.000 C 
BRANCH  11  12
ATOM     12  N   UNL     1      -1.241  11.482  18.822  0.00  0.00    +0.000 N 
ATOM     13  C   UNL     1      -1.898  12.473  19.638  0.00  0.00    +0.000 C 
ATOM     14  C   UNL     1      -3.365  12.114  19.508  0.00  0.00    +0.000 C 
ATOM     15  C   UNL     1      -3.469  11.527  18.105  0.00  0.00    +0.000 C 
ATOM     16  C   UNL     1      -2.102  10.921  17.889  0.00  0.00    +0.000 C 
ATOM     17  O   UNL     1      -1.798  10.141  17.002  0.00  0.00    +0.000 OA
ENDBRANCH  11  12
ENDBRANCH   9  11
ENDBRANCH   2   5
BRANCH   3  18
ATOM     18  C   UNL     1       4.672   5.441  17.739  0.00  0.00    +0.000 A 
ATOM     19  C   UNL     1       5.942   5.751  17.301  0.00  0.00    +0.000 A 
ATOM     20  C   UNL     1       6.413   4.594  16.657  0.00  0.00    +0.000 A 
ATOM     21  N   UNL     1       5.518   3.607  16.673  0.00  0.00    +0.000 NA
ATOM     22  N   UNL     1       4.465   4.132  17.344  0.00  0.00    +0.000 N 
BRANCH  22  23
ATOM     23  C   UNL     1       3.231   3.356  17.399  0.00  0.00    +0.000 C 
BRANCH  23  24
ATOM     24  C   UNL     1       2.628   3.358  18.780  0.00  0.00    +0.000 A 
ATOM     25  C   UNL     1       1.419   4.046  18.996  0.00  0.00    +0.000 A 
ATOM     26  C   UNL     1       0.793   4.029  20.244  0.00  0.00    +0.000 A 
ATOM     27  C   UNL     1       1.357   3.313  21.296  0.00  0.00    +0.000 A 
ATOM     28  C   UNL     1       2.563   2.639  21.107  0.00  0.00    +0.000 A 
ATOM     29  C   UNL     1       3.199   2.674  19.863  0.00  0.00    +0.000 A 
ATOM     30 CL   UNL     1       4.721   1.872  19.728  0.00  0.00    +0.000 Cl
ENDBRANCH  23  24
ENDBRANCH  22  23
ENDBRANCH   3  18
TORSDOF 6
ENDMDL
MODEL 9
REMARK VINA RESULT:      -8.5      1.096      1.169
REMARK  Name = 
REMARK  6 active torsions:
REMARK  status: ('A' for Active; 'I' for Inactive)
REMARK    1  A    between atoms: C_2  and  C_17
REMARK    2  A    between atoms: N_3  and  C_4
REMARK    3  A    between atoms: N_8  and  C_9
REMARK    4  A    between atoms: C_9  and  C_10
REMARK    5  A    between atoms: C_21  and  C_22
REMARK    6  A    between atoms: C_22  and  N_23
REMARK                            x       y       z     vdW  Elec       q    Type
REMARK                         _______ _______ _______ _____ _____    ______ ____
ROOT
ATOM      1  O   UNL     1       1.413   9.750  17.385  0.00  0.00    +0.000 OA
ATOM      2  C   UNL     1       1.471   9.413  18.557  0.00  0.00    +0.000 C 
ATOM      3  N   UNL     1       1.145  10.323  19.625  0.00  0.00    +0.000 N 
ATOM      4  H   UNL     1       1.313  10.032  20.582  0.00  0.00    +0.000 HD
ENDROOT
BRANCH   2   5
ATOM      5  C   UNL     1       2.007   8.087  18.948  0.00  0.00    +0.000 A 
ATOM      6  C   UNL     1       1.548   7.519  20.143  0.00  0.00    +0.000 A 
ATOM      7  C   UNL     1       1.990   6.256  20.529  0.00  0.00    +0.000 A 
ATOM      8  C   UNL     1       2.879   5.550  19.717  0.00  0.00    +0.000 A 
ATOM      9  C   UNL     1       3.340   6.101  18.514  0.00  0.00    +0.000 A 
ATOM     10  C   UNL     1       2.928   7.396  18.152  0.00  0.00    +0.000 A 
BRANCH   9  11
ATOM     11  C   UNL     1       4.238   5.303  17.600  0.00  0.00    +0.000 C 
BRANCH  11  12
ATOM     12  N   UNL     1       5.619   5.725  17.648  0.00  0.00    +0.000 N 
ATOM     13  C   UNL     1       6.084   6.914  16.978  0.00  0.00    +0.000 C 
ATOM     14  C   UNL     1       7.573   6.914  17.260  0.00  0.00    +0.000 C 
ATOM     15  C   UNL     1       7.681   6.247  18.627  0.00  0.00    +0.000 C 
ATOM     16  C   UNL     1       6.496   5.311  18.641  0.00  0.00    +0.000 C 
ATOM     17  O   UNL     1       6.310   4.404  19.436  0.00  0.00    +0.000 OA
ENDBRANCH  11  12
ENDBRANCH   9  11
ENDBRANCH   2   5
BRANCH   3  18
ATOM     18  C   UNL     1       0.676  11.620  19.404  0.00  0.00    +0.000 A 
ATOM     19  C   UNL     1       1.419  12.778  19.310  0.00  0.00    +0.000 A 
ATOM     20  C   UNL     1       0.488  13.808  19.089  0.00  0.00    +0.000 A 
ATOM     21  N   UNL     1      -0.765  13.355  19.045  0.00  0.00    +0.000 NA
ATOM     22  N   UNL     1      -0.636  12.020  19.228  0.00  0.00    +0.000 N 
BRANCH  22  23
ATOM     23  C   UNL     1      -1.851  11.231  19.399  0.00  0.00    +0.000 C 
BRANCH  23  24
ATOM     24  C   UNL     1      -2.600  11.066  18.101  0.00  0.00    +0.000 A 
ATOM     25  C   UNL     1      -1.981  10.377  17.040  0.00  0.00    +0.000 A 
ATOM     26  C   UNL     1      -2.657  10.151  15.838  0.00  0.00    +0.000 A 
ATOM     27  C   UNL     1      -3.966  10.595  15.681  0.00  0.00    +0.000 A 
ATOM     28  C   UNL     1      -4.589  11.293  16.713  0.00  0.00    +0.000 A 
ATOM     29  C   UNL     1      -3.906  11.539  17.908  0.00  0.00    +0.000 A 
ATOM     30 CL   UNL     1      -4.721  12.467  19.112  0.00  0.00    +0.000 Cl
ENDBRANCH  23  24
ENDBRANCH  22  23
ENDBRANCH   3  18
TORSDOF 6
ENDMDL
