MODEL 1
REMARK VINA RESULT:      -8.3      0.000      0.000
REMARK  Name = 
REMARK  3 active torsions:
REMARK  status: ('A' for Active; 'I' for Inactive)
REMARK    1  A    between atoms: C_2  and  C_4
REMARK    2  A    between atoms: C_6  and  N_7
REMARK    3  A    between atoms: C_8  and  C_10
REMARK                            x       y       z     vdW  Elec       q    Type
REMARK                         _______ _______ _______ _____ _____    ______ ____
ROOT
ATOM      1  N   UNL     1       2.572   6.610  19.484  0.00  0.00    +0.000 N 
ATOM      2  C   UNL     1       2.053   7.868  19.086  0.00  0.00    +0.000 C 
ATOM      3  O   UNL     1       2.215   8.352  17.968  0.00  0.00    +0.000 OA
ATOM      4  H   UNL     1       2.385   6.241  20.414  0.00  0.00    +0.000 HD
ENDROOT
BRANCH   2   5
ATOM      5  C   UNL     1       1.250   8.733  20.040  0.00  0.00    +0.000 A 
ATOM      6  C   UNL     1       1.480   8.589  21.419  0.00  0.00    +0.000 A 
ATOM      7  C   UNL     1       0.767   9.447  22.269  0.00  0.00    +0.000 A 
ATOM      8  F   UNL     1       0.987   9.321  23.610  0.00  0.00    +0.000 F 
ATOM      9  C   UNL     1      -0.115  10.376  21.841  0.00  0.00    +0.000 A 
ATOM     10  C   UNL     1      -0.369  10.509  20.507  0.00  0.00    +0.000 A 
ATOM     11  C   UNL     1      -1.287  11.438  20.165  0.00  0.00    +0.000 A 
ATOM     12  C   UNL     1      -1.465  11.540  18.835  0.00  0.00    +0.000 A 
ATOM     13  C   UNL     1      -1.649  11.651  17.650  0.00  0.00    +0.000 A 
ATOM     14  N   UNL     1      -0.475  10.468  18.242  0.00  0.00    +0.000 NA
ATOM     15  C   UNL     1       0.235   9.802  19.542  0.00  0.00    +0.000 A 
ENDBRANCH   2   5
BRANCH   1  18
ATOM     16  C   UNL     1       5.456   5.161  17.497  0.00  0.00    +0.000 A 
ATOM     17  C   UNL     1       4.718   5.962  18.396  0.00  0.00    +0.000 A 
ATOM     18  C   UNL     1       3.343   5.786  18.590  0.00  0.00    +0.000 A 
ATOM     19  C   UNL     1       2.747   4.764  17.867  0.00  0.00    +0.000 A 
ATOM     20  C   UNL     1       3.447   3.947  17.003  0.00  0.00    +0.000 A 
ATOM     21  C   UNL     1       4.790   4.162  16.826  0.00  0.00    +0.000 A 
ATOM     22  F   UNL     1       5.453   3.367  15.989  0.00  0.00    +0.000 F 
BRANCH  16  24
ATOM     23  N   UNL     1       7.780   4.413  17.987  0.00  0.00    +0.000 N 
ATOM     24  C   UNL     1       6.939   5.274  17.287  0.00  0.00    +0.000 C 
ATOM     25  O   UNL     1       7.376   6.118  16.511  0.00  0.00    +0.000 OA
ATOM     26  H   UNL     1       8.794   4.465  17.880  0.00  0.00    +0.000 HD
ATOM     27  H   UNL     1       7.451   3.708  18.644  0.00  0.00    +0.000 HD
ENDBRANCH  16  24
ENDBRANCH   1  18
TORSDOF 3
ENDMDL
MODEL 2
REMARK VINA RESULT:      -8.2      3.635      5.457
REMARK  Name = 
REMARK  3 active torsions:
REMARK  status: ('A' for Active; 'I' for Inactive)
REMARK    1  A    between atoms: C_2  and  C_4
REMARK    2  A    between atoms: C_6  and  N_7
REMARK    3  A    between atoms: C_8  and  C_10
REMARK                            x       y       z     vdW  Elec       q    Type
REMARK                         _______ _______ _______ _____ _____    ______ ____
ROOT
ATOM      1  N   UNL     1       4.720   4.998  16.468  0.00  0.00    +0.000 N 
ATOM      2  C   UNL     1       4.295   3.954  17.329  0.00  0.00    +0.000 C 
ATOM      3  O   UNL     1       4.509   2.763  17.116  0.00  0.00    +0.000 OA
ATOM      4  H   UNL     1       4.542   5.972  16.703  0.00  0.00    +0.000 HD
ENDROOT
BRANCH   2   5
ATOM      5  C   UNL     1       3.516   4.242  18.599  0.00  0.00    +0.000 A 
ATOM      6  C   UNL     1       3.388   3.212  19.545  0.00  0.00    +0.000 A 
ATOM      7  C   UNL     1       2.716   3.531  20.736  0.00  0.00    +0.000 A 
ATOM      8  F   UNL     1       2.591   2.540  21.666  0.00  0.00    +0.000 F 
ATOM      9  C   UNL     1       2.191   4.745  21.006  0.00  0.00    +0.000 A 
ATOM     10  C   UNL     1       2.284   5.747  20.086  0.00  0.00    +0.000 A 
ATOM     11  C   UNL     1       1.705   6.920  20.421  0.00  0.00    +0.000 A 
ATOM     12  C   UNL     1       1.862   7.873  19.484  0.00  0.00    +0.000 A 
ATOM     13  C   UNL     1       1.982   8.745  18.662  0.00  0.00    +0.000 A 
ATOM     14  N   UNL     1       2.688   7.153  18.352  0.00  0.00    +0.000 NA
ATOM     15  C   UNL     1       2.913   5.643  18.907  0.00  0.00    +0.000 A 
ENDBRANCH   2   5
BRANCH   1  18
ATOM     16  C   UNL     1       5.673   3.686  13.041  0.00  0.00    +0.000 A 
ATOM     17  C   UNL     1       4.934   3.955  14.215  0.00  0.00    +0.000 A 
ATOM     18  C   UNL     1       5.451   4.735  15.254  0.00  0.00    +0.000 A 
ATOM     19  C   UNL     1       6.722   5.253  15.061  0.00  0.00    +0.000 A 
ATOM     20  C   UNL     1       7.458   5.031  13.914  0.00  0.00    +0.000 A 
ATOM     21  C   UNL     1       6.924   4.246  12.923  0.00  0.00    +0.000 A 
ATOM     22  F   UNL     1       7.643   4.041  11.823  0.00  0.00    +0.000 F 
BRANCH  16  24
ATOM     23  N   UNL     1       5.778   1.703  11.539  0.00  0.00    +0.000 N 
ATOM     24  C   UNL     1       5.149   2.899  11.875  0.00  0.00    +0.000 C 
ATOM     25  O   UNL     1       4.185   3.323  11.245  0.00  0.00    +0.000 OA
ATOM     26  H   UNL     1       5.458   1.144  10.747  0.00  0.00    +0.000 HD
ATOM     27  H   UNL     1       6.584   1.328  12.035  0.00  0.00    +0.000 HD
ENDBRANCH  16  24
ENDBRANCH   1  18
TORSDOF 3
ENDMDL
MODEL 3
REMARK VINA RESULT:      -8.0      1.317      1.330
REMARK  Name = 
REMARK  3 active torsions:
REMARK  status: ('A' for Active; 'I' for Inactive)
REMARK    1  A    between atoms: C_2  and  C_4
REMARK    2  A    between atoms: C_6  and  N_7
REMARK    3  A    between atoms: C_8  and  C_10
REMARK                            x       y       z     vdW  Elec       q    Type
REMARK                         _______ _______ _______ _____ _____    ______ ____
ROOT
ATOM      1  N   UNL     1       2.710   6.697  19.308  0.00  0.00    +0.000 N 
ATOM      2  C   UNL     1       2.175   7.924  18.840  0.00  0.00    +0.000 C 
ATOM      3  O   UNL     1       2.305   8.333  17.688  0.00  0.00    +0.000 OA
ATOM      4  H   UNL     1       2.550   6.391  20.265  0.00  0.00    +0.000 HD
ENDROOT
BRANCH   2   5
ATOM      5  C   UNL     1       1.393   8.849  19.756  0.00  0.00    +0.000 A 
ATOM      6  C   UNL     1       0.753   8.289  20.874  0.00  0.00    +0.000 A 
ATOM      7  C   UNL     1       0.093   9.180  21.733  0.00  0.00    +0.000 A 
ATOM      8  F   UNL     1      -0.527   8.649  22.827  0.00  0.00    +0.000 F 
ATOM      9  C   UNL     1       0.034  10.515  21.539  0.00  0.00    +0.000 A 
ATOM     10  C   UNL     1       0.627  11.070  20.443  0.00  0.00    +0.000 A 
ATOM     11  C   UNL     1       0.494  12.407  20.306  0.00  0.00    +0.000 A 
ATOM     12  C   UNL     1       1.130  12.892  19.224  0.00  0.00    +0.000 A 
ATOM     13  C   UNL     1       1.685  13.356  18.261  0.00  0.00    +0.000 A 
ATOM     14  N   UNL     1       1.772  11.615  18.562  0.00  0.00    +0.000 NA
ATOM     15  C   UNL     1       1.328  10.387  19.528  0.00  0.00    +0.000 A 
ENDBRANCH   2   5
BRANCH   1  18
ATOM     16  C   UNL     1       5.546   5.133  17.339  0.00  0.00    +0.000 A 
ATOM     17  C   UNL     1       4.828   5.990  18.202  0.00  0.00    +0.000 A 
ATOM     18  C   UNL     1       3.462   5.817  18.450  0.00  0.00    +0.000 A 
ATOM     19  C   UNL     1       2.854   4.742  17.821  0.00  0.00    +0.000 A 
ATOM     20  C   UNL     1       3.534   3.872  16.995  0.00  0.00    +0.000 A 
ATOM     21  C   UNL     1       4.870   4.083  16.762  0.00  0.00    +0.000 A 
ATOM     22  F   UNL     1       5.514   3.236  15.963  0.00  0.00    +0.000 F 
BRANCH  16  24
ATOM     23  N   UNL     1       7.884   4.381  17.749  0.00  0.00    +0.000 N 
ATOM     24  C   UNL     1       7.020   5.241  17.076  0.00  0.00    +0.000 C 
ATOM     25  O   UNL     1       7.431   6.081  16.281  0.00  0.00    +0.000 OA
ATOM     26  H   UNL     1       8.894   4.430  17.606  0.00  0.00    +0.000 HD
ATOM     27  H   UNL     1       7.577   3.680  18.420  0.00  0.00    +0.000 HD
ENDBRANCH  16  24
ENDBRANCH   1  18
TORSDOF 3
ENDMDL
MODEL 4
REMARK VINA RESULT:      -8.0      2.903      7.885
REMARK  Name = 
REMARK  3 active torsions:
REMARK  status: ('A' for Active; 'I' for Inactive)
REMARK    1  A    between atoms: C_2  and  C_4
REMARK    2  A    between atoms: C_6  and  N_7
REMARK    3  A    between atoms: C_8  and  C_10
REMARK                            x       y       z     vdW  Elec       q    Type
REMARK                         _______ _______ _______ _____ _____    ______ ____
ROOT
ATOM      1  N   UNL     1       2.221   8.541  17.477  0.00  0.00    +0.000 N 
ATOM      2  C   UNL     1       2.581   7.471  18.336  0.00  0.00    +0.000 C 
ATOM      3  O   UNL     1       2.410   7.484  19.553  0.00  0.00    +0.000 OA
ATOM      4  H   UNL     1       2.359   8.469  16.472  0.00  0.00    +0.000 HD
ENDROOT
BRANCH   2   5
ATOM      5  C   UNL     1       3.232   6.209  17.801  0.00  0.00    +0.000 A 
ATOM      6  C   UNL     1       4.450   6.332  17.111  0.00  0.00    +0.000 A 
ATOM      7  C   UNL     1       5.055   5.140  16.685  0.00  0.00    +0.000 A 
ATOM      8  F   UNL     1       6.241   5.246  16.019  0.00  0.00    +0.000 F 
ATOM      9  C   UNL     1       4.534   3.911  16.891  0.00  0.00    +0.000 A 
ATOM     10  C   UNL     1       3.339   3.777  17.535  0.00  0.00    +0.000 A 
ATOM     11  C   UNL     1       2.873   2.518  17.671  0.00  0.00    +0.000 A 
ATOM     12  C   UNL     1       1.709   2.456  18.343  0.00  0.00    +0.000 A 
ATOM     13  C   UNL     1       0.665   2.368  18.937  0.00  0.00    +0.000 A 
ATOM     14  N   UNL     1       1.390   3.960  18.681  0.00  0.00    +0.000 NA
ATOM     15  C   UNL     1       2.628   4.795  18.040  0.00  0.00    +0.000 A 
ENDBRANCH   2   5
BRANCH   1  18
ATOM     16  C   UNL     1       1.724  12.100  18.682  0.00  0.00    +0.000 A 
ATOM     17  C   UNL     1       2.330  10.932  18.169  0.00  0.00    +0.000 A 
ATOM     18  C   UNL     1       1.612   9.747  17.976  0.00  0.00    +0.000 A 
ATOM     19  C   UNL     1       0.263   9.788  18.294  0.00  0.00    +0.000 A 
ATOM     20  C   UNL     1      -0.363  10.921  18.770  0.00  0.00    +0.000 A 
ATOM     21  C   UNL     1       0.378  12.059  18.963  0.00  0.00    +0.000 A 
ATOM     22  F   UNL     1      -0.238  13.145  19.423  0.00  0.00    +0.000 F 
BRANCH  16  24
ATOM     23  N   UNL     1       2.901  14.079  17.733  0.00  0.00    +0.000 N 
ATOM     24  C   UNL     1       2.435  13.411  18.862  0.00  0.00    +0.000 C 
ATOM     25  O   UNL     1       2.591  13.862  19.993  0.00  0.00    +0.000 OA
ATOM     26  H   UNL     1       3.398  14.967  17.815  0.00  0.00    +0.000 HD
ATOM     27  H   UNL     1       2.796  13.729  16.784  0.00  0.00    +0.000 HD
ENDBRANCH  16  24
ENDBRANCH   1  18
TORSDOF 3
ENDMDL
MODEL 5
REMARK VINA RESULT:      -8.0      2.249      8.081
REMARK  Name = 
REMARK  3 active torsions:
REMARK  status: ('A' for Active; 'I' for Inactive)
REMARK    1  A    between atoms: C_2  and  C_4
REMARK    2  A    between atoms: C_6  and  N_7
REMARK    3  A    between atoms: C_8  and  C_10
REMARK                            x       y       z     vdW  Elec       q    Type
REMARK                         _______ _______ _______ _____ _____    ______ ____
ROOT
ATOM      1  N   UNL     1       1.851   7.911  19.393  0.00  0.00    +0.000 N 
ATOM      2  C   UNL     1       2.582   7.847  18.179  0.00  0.00    +0.000 C 
ATOM      3  O   UNL     1       2.585   8.740  17.334  0.00  0.00    +0.000 OA
ATOM      4  H   UNL     1       1.904   7.156  20.072  0.00  0.00    +0.000 HD
ENDROOT
BRANCH   2   5
ATOM      5  C   UNL     1       3.425   6.636  17.824  0.00  0.00    +0.000 A 
ATOM      6  C   UNL     1       4.733   6.852  17.359  0.00  0.00    +0.000 A 
ATOM      7  C   UNL     1       5.505   5.709  17.100  0.00  0.00    +0.000 A 
ATOM      8  F   UNL     1       6.780   5.906  16.654  0.00  0.00    +0.000 F 
ATOM      9  C   UNL     1       5.062   4.444  17.262  0.00  0.00    +0.000 A 
ATOM     10  C   UNL     1       3.786   4.218  17.687  0.00  0.00    +0.000 A 
ATOM     11  C   UNL     1       3.412   2.925  17.791  0.00  0.00    +0.000 A 
ATOM     12  C   UNL     1       2.154   2.775  18.246  0.00  0.00    +0.000 A 
ATOM     13  C   UNL     1       1.031   2.608  18.647  0.00  0.00    +0.000 A 
ATOM     14  N   UNL     1       1.652   4.253  18.456  0.00  0.00    +0.000 NA
ATOM     15  C   UNL     1       2.910   5.180  18.012  0.00  0.00    +0.000 A 
ENDBRANCH   2   5
BRANCH   1  18
ATOM     16  C   UNL     1      -0.590  10.802  19.164  0.00  0.00    +0.000 A 
ATOM     17  C   UNL     1       0.180   9.669  18.820  0.00  0.00    +0.000 A 
ATOM     18  C   UNL     1       1.040   9.052  19.735  0.00  0.00    +0.000 A 
ATOM     19  C   UNL     1       1.077   9.598  21.008  0.00  0.00    +0.000 A 
ATOM     20  C   UNL     1       0.316  10.687  21.382  0.00  0.00    +0.000 A 
ATOM     21  C   UNL     1      -0.502  11.276  20.452  0.00  0.00    +0.000 A 
ATOM     22  F   UNL     1      -1.231  12.325  20.826  0.00  0.00    +0.000 F 
BRANCH  16  24
ATOM     23  N   UNL     1      -1.167  12.631  17.575  0.00  0.00    +0.000 N 
ATOM     24  C   UNL     1      -1.564  11.473  18.239  0.00  0.00    +0.000 C 
ATOM     25  O   UNL     1      -2.683  10.993  18.090  0.00  0.00    +0.000 OA
ATOM     26  H   UNL     1      -1.804  13.122  16.946  0.00  0.00    +0.000 HD
ATOM     27  H   UNL     1      -0.250  13.060  17.682  0.00  0.00    +0.000 HD
ENDBRANCH  16  24
ENDBRANCH   1  18
TORSDOF 3
ENDMDL
MODEL 6
REMARK VINA RESULT:      -7.9      3.569      5.775
REMARK  Name = 
REMARK  3 active torsions:
REMARK  status: ('A' for Active; 'I' for Inactive)
REMARK    1  A    between atoms: C_2  and  C_4
REMARK    2  A    between atoms: C_6  and  N_7
REMARK    3  A    between atoms: C_8  and  C_10
REMARK                            x       y       z     vdW  Elec       q    Type
REMARK                         _______ _______ _______ _____ _____    ______ ____
ROOT
ATOM      1  N   UNL     1       4.660   4.795  16.548  0.00  0.00    +0.000 N 
ATOM      2  C   UNL     1       4.211   6.071  16.974  0.00  0.00    +0.000 C 
ATOM      3  O   UNL     1       4.434   7.114  16.362  0.00  0.00    +0.000 OA
ATOM      4  H   UNL     1       4.425   3.958  17.076  0.00  0.00    +0.000 HD
ENDROOT
BRANCH   2   5
ATOM      5  C   UNL     1       3.413   6.244  18.253  0.00  0.00    +0.000 A 
ATOM      6  C   UNL     1       2.837   7.500  18.510  0.00  0.00    +0.000 A 
ATOM      7  C   UNL     1       2.055   7.607  19.670  0.00  0.00    +0.000 A 
ATOM      8  F   UNL     1       1.485   8.820  19.928  0.00  0.00    +0.000 F 
ATOM      9  C   UNL     1       1.839   6.593  20.535  0.00  0.00    +0.000 A 
ATOM     10  C   UNL     1       2.414   5.375  20.312  0.00  0.00    +0.000 A 
ATOM     11  C   UNL     1       2.175   4.425  21.241  0.00  0.00    +0.000 A 
ATOM     12  C   UNL     1       2.743   3.242  20.944  0.00  0.00    +0.000 A 
ATOM     13  C   UNL     1       3.242   2.172  20.708  0.00  0.00    +0.000 A 
ATOM     14  N   UNL     1       3.477   3.512  19.577  0.00  0.00    +0.000 NA
ATOM     15  C   UNL     1       3.168   5.072  19.247  0.00  0.00    +0.000 A 
ENDBRANCH   2   5
BRANCH   1  18
ATOM     16  C   UNL     1       5.739   3.685  13.088  0.00  0.00    +0.000 A 
ATOM     17  C   UNL     1       4.965   3.867  14.256  0.00  0.00    +0.000 A 
ATOM     18  C   UNL     1       5.426   4.620  15.340  0.00  0.00    +0.000 A 
ATOM     19  C   UNL     1       6.677   5.201  15.198  0.00  0.00    +0.000 A 
ATOM     20  C   UNL     1       7.444   5.065  14.059  0.00  0.00    +0.000 A 
ATOM     21  C   UNL     1       6.965   4.304  13.023  0.00  0.00    +0.000 A 
ATOM     22  F   UNL     1       7.715   4.180  11.931  0.00  0.00    +0.000 F 
BRANCH  16  24
ATOM     23  N   UNL     1       5.911   1.736  11.548  0.00  0.00    +0.000 N 
ATOM     24  C   UNL     1       5.274   2.930  11.876  0.00  0.00    +0.000 C 
ATOM     25  O   UNL     1       4.351   3.378  11.203  0.00  0.00    +0.000 OA
ATOM     26  H   UNL     1       5.631   1.198  10.726  0.00  0.00    +0.000 HD
ATOM     27  H   UNL     1       6.684   1.341  12.079  0.00  0.00    +0.000 HD
ENDBRANCH  16  24
ENDBRANCH   1  18
TORSDOF 3
ENDMDL
MODEL 7
REMARK VINA RESULT:      -7.9      2.866      8.337
REMARK  Name = 
REMARK  3 active torsions:
REMARK  status: ('A' for Active; 'I' for Inactive)
REMARK    1  A    between atoms: C_2  and  C_4
REMARK    2  A    between atoms: C_6  and  N_7
REMARK    3  A    between atoms: C_8  and  C_10
REMARK                            x       y       z     vdW  Elec       q    Type
REMARK                         _______ _______ _______ _____ _____    ______ ____
ROOT
ATOM      1  N   UNL     1       1.659   8.864  17.717  0.00  0.00    +0.000 N 
ATOM      2  C   UNL     1       2.163   7.822  18.536  0.00  0.00    +0.000 C 
ATOM      3  O   UNL     1       1.995   7.766  19.752  0.00  0.00    +0.000 OA
ATOM      4  H   UNL     1       1.803   8.849  16.710  0.00  0.00    +0.000 HD
ENDROOT
BRANCH   2   5
ATOM      5  C   UNL     1       2.975   6.679  17.955  0.00  0.00    +0.000 A 
ATOM      6  C   UNL     1       4.186   6.986  17.313  0.00  0.00    +0.000 A 
ATOM      7  C   UNL     1       4.942   5.901  16.843  0.00  0.00    +0.000 A 
ATOM      8  F   UNL     1       6.124   6.187  16.224  0.00  0.00    +0.000 F 
ATOM      9  C   UNL     1       4.570   4.609  16.966  0.00  0.00    +0.000 A 
ATOM     10  C   UNL     1       3.384   4.297  17.563  0.00  0.00    +0.000 A 
ATOM     11  C   UNL     1       3.070   2.985  17.616  0.00  0.00    +0.000 A 
ATOM     12  C   UNL     1       1.906   2.746  18.246  0.00  0.00    +0.000 A 
ATOM     13  C   UNL     1       0.865   2.500  18.800  0.00  0.00    +0.000 A 
ATOM     14  N   UNL     1       1.398   4.180  18.654  0.00  0.00    +0.000 NA
ATOM     15  C   UNL     1       2.542   5.192  18.099  0.00  0.00    +0.000 A 
ENDBRANCH   2   5
BRANCH   1  18
ATOM     16  C   UNL     1      -1.173  11.277  18.444  0.00  0.00    +0.000 A 
ATOM     17  C   UNL     1      -0.444  10.185  17.922  0.00  0.00    +0.000 A 
ATOM     18  C   UNL     1       0.895   9.958  18.259  0.00  0.00    +0.000 A 
ATOM     19  C   UNL     1       1.463  10.852  19.154  0.00  0.00    +0.000 A 
ATOM     20  C   UNL     1       0.769  11.911  19.702  0.00  0.00    +0.000 A 
ATOM     21  C   UNL     1      -0.538  12.111  19.334  0.00  0.00    +0.000 A 
ATOM     22  F   UNL     1      -1.195  13.136  19.870  0.00  0.00    +0.000 F 
BRANCH  16  24
ATOM     23  N   UNL     1      -3.017  11.740  16.836  0.00  0.00    +0.000 N 
ATOM     24  C   UNL     1      -2.623  11.538  18.156  0.00  0.00    +0.000 C 
ATOM     25  O   UNL     1      -3.425  11.571  19.084  0.00  0.00    +0.000 OA
ATOM     26  H   UNL     1      -3.992  11.931  16.601  0.00  0.00    +0.000 HD
ATOM     27  H   UNL     1      -2.377  11.727  16.045  0.00  0.00    +0.000 HD
ENDBRANCH  16  24
ENDBRANCH   1  18
TORSDOF 3
ENDMDL
MODEL 8
REMARK VINA RESULT:      -7.8      1.950      2.312
REMARK  Name = 
REMARK  3 active torsions:
REMARK  status: ('A' for Active; 'I' for Inactive)
REMARK    1  A    between atoms: C_2  and  C_4
REMARK    2  A    between atoms: C_6  and  N_7
REMARK    3  A    between atoms: C_8  and  C_10
REMARK                            x       y       z     vdW  Elec       q    Type
REMARK                         _______ _______ _______ _____ _____    ______ ____
ROOT
ATOM      1  N   UNL     1       2.271   7.005  19.972  0.00  0.00    +0.000 N 
ATOM      2  C   UNL     1       1.649   8.202  19.533  0.00  0.00    +0.000 C 
ATOM      3  O   UNL     1       1.656   8.589  18.367  0.00  0.00    +0.000 OA
ATOM      4  H   UNL     1       2.213   6.716  20.945  0.00  0.00    +0.000 HD
ENDROOT
BRANCH   2   5
ATOM      5  C   UNL     1       0.923   9.119  20.501  0.00  0.00    +0.000 A 
ATOM      6  C   UNL     1       0.835   8.726  21.847  0.00  0.00    +0.000 A 
ATOM      7  C   UNL     1       0.213   9.626  22.726  0.00  0.00    +0.000 A 
ATOM      8  F   UNL     1       0.127   9.258  24.037  0.00  0.00    +0.000 F 
ATOM      9  C   UNL     1      -0.301  10.816  22.351  0.00  0.00    +0.000 A 
ATOM     10  C   UNL     1      -0.248  11.200  21.043  0.00  0.00    +0.000 A 
ATOM     11  C   UNL     1      -0.814  12.389  20.746  0.00  0.00    +0.000 A 
ATOM     12  C   UNL     1      -0.696  12.720  19.448  0.00  0.00    +0.000 A 
ATOM     13  C   UNL     1      -0.611  13.042  18.290  0.00  0.00    +0.000 A 
ATOM     14  N   UNL     1       0.083  11.504  18.820  0.00  0.00    +0.000 NA
ATOM     15  C   UNL     1       0.332  10.490  20.065  0.00  0.00    +0.000 A 
ENDBRANCH   2   5
BRANCH   1  18
ATOM     16  C   UNL     1       3.416   3.916  18.097  0.00  0.00    +0.000 A 
ATOM     17  C   UNL     1       2.704   4.763  18.975  0.00  0.00    +0.000 A 
ATOM     18  C   UNL     1       2.971   6.133  19.063  0.00  0.00    +0.000 A 
ATOM     19  C   UNL     1       3.958   6.622  18.222  0.00  0.00    +0.000 A 
ATOM     20  C   UNL     1       4.651   5.826  17.334  0.00  0.00    +0.000 A 
ATOM     21  C   UNL     1       4.373   4.483  17.288  0.00  0.00    +0.000 A 
ATOM     22  F   UNL     1       5.049   3.726  16.427  0.00  0.00    +0.000 F 
BRANCH  16  24
ATOM     23  N   UNL     1       4.044   1.533  18.449  0.00  0.00    +0.000 N 
ATOM     24  C   UNL     1       3.137   2.451  17.926  0.00  0.00    +0.000 C 
ATOM     25  O   UNL     1       2.125   2.095  17.331  0.00  0.00    +0.000 OA
ATOM     26  H   UNL     1       3.896   0.528  18.344  0.00  0.00    +0.000 HD
ATOM     27  H   UNL     1       4.897   1.794  18.939  0.00  0.00    +0.000 HD
ENDBRANCH  16  24
ENDBRANCH   1  18
TORSDOF 3
ENDMDL
MODEL 9
REMARK VINA RESULT:      -7.8      2.851      8.057
REMARK  Name = 
REMARK  3 active torsions:
REMARK  status: ('A' for Active; 'I' for Inactive)
REMARK    1  A    between atoms: C_2  and  C_4
REMARK    2  A    between atoms: C_6  and  N_7
REMARK    3  A    between atoms: C_8  and  C_10
REMARK                            x       y       z     vdW  Elec       q    Type
REMARK                         _______ _______ _______ _____ _____    ______ ____
ROOT
ATOM      1  N   UNL     1       1.339   8.818  19.423  0.00  0.00    +0.000 N 
ATOM      2  C   UNL     1       2.135   8.119  18.480  0.00  0.00    +0.000 C 
ATOM      3  O   UNL     1       2.367   8.528  17.344  0.00  0.00    +0.000 OA
ATOM      4  H   UNL     1       1.200   8.449  20.361  0.00  0.00    +0.000 HD
ENDROOT
BRANCH   2   5
ATOM      5  C   UNL     1       2.764   6.778  18.812  0.00  0.00    +0.000 A 
ATOM      6  C   UNL     1       2.351   6.125  19.985  0.00  0.00    +0.000 A 
ATOM      7  C   UNL     1       2.906   4.859  20.229  0.00  0.00    +0.000 A 
ATOM      8  F   UNL     1       2.508   4.212  21.363  0.00  0.00    +0.000 F 
ATOM      9  C   UNL     1       3.801   4.256  19.418  0.00  0.00    +0.000 A 
ATOM     10  C   UNL     1       4.232   4.890  18.289  0.00  0.00    +0.000 A 
ATOM     11  C   UNL     1       5.151   4.233  17.551  0.00  0.00    +0.000 A 
ATOM     12  C   UNL     1       5.506   4.898  16.436  0.00  0.00    +0.000 A 
ATOM     13  C   UNL     1       5.848   5.471  15.434  0.00  0.00    +0.000 A 
ATOM     14  N   UNL     1       4.652   6.219  16.500  0.00  0.00    +0.000 NA
ATOM     15  C   UNL     1       3.795   6.087  17.874  0.00  0.00    +0.000 A 
ENDBRANCH   2   5
BRANCH   1  18
ATOM     16  C   UNL     1      -1.075  11.445  18.142  0.00  0.00    +0.000 A 
ATOM     17  C   UNL     1      -0.502  10.193  18.459  0.00  0.00    +0.000 A 
ATOM     18  C   UNL     1       0.729  10.086  19.115  0.00  0.00    +0.000 A 
ATOM     19  C   UNL     1       1.348  11.278  19.459  0.00  0.00    +0.000 A 
ATOM     20  C   UNL     1       0.800  12.515  19.188  0.00  0.00    +0.000 A 
ATOM     21  C   UNL     1      -0.401  12.580  18.529  0.00  0.00    +0.000 A 
ATOM     22  F   UNL     1      -0.918  13.779  18.274  0.00  0.00    +0.000 F 
BRANCH  16  24
ATOM     23  N   UNL     1      -2.490  11.565  16.097  0.00  0.00    +0.000 N 
ATOM     24  C   UNL     1      -2.414  11.619  17.486  0.00  0.00    +0.000 C 
ATOM     25  O   UNL     1      -3.407  11.806  18.182  0.00  0.00    +0.000 OA
ATOM     26  H   UNL     1      -3.380  11.689  15.613  0.00  0.00    +0.000 HD
ATOM     27  H   UNL     1      -1.686  11.420  15.491  0.00  0.00    +0.000 HD
ENDBRANCH  16  24
ENDBRANCH   1  18
TORSDOF 3
ENDMDL
