MODEL 1
REMARK VINA RESULT:      -8.9      0.000      0.000
REMARK  Name = 
REMARK  7 active torsions:
REMARK  status: ('A' for Active; 'I' for Inactive)
REMARK    1  A    between atoms: C_1  and  C_2
REMARK    2  A    between atoms: C_5  and  C_6
REMARK    3  A    between atoms: C_6  and  N_7
REMARK    4  A    between atoms: C_8  and  C_10
REMARK    5  A    between atoms: C_10  and  S_11
REMARK    6  A    between atoms: S_11  and  C_12
REMARK    7  A    between atoms: C_24  and  C_25
REMARK                            x       y       z     vdW  Elec       q    Type
REMARK                         _______ _______ _______ _____ _____    ______ ____
ROOT
ATOM      1  C   UNL     1       2.812   6.549  18.853  0.00  0.00    +0.000 A 
ATOM      2  N   UNL     1       1.871   5.932  19.504  0.00  0.00    +0.000 NA
ATOM      3  C   UNL     1       2.172   4.648  20.010  0.00  0.00    +0.000 A 
ATOM      4  C   UNL     1       1.170   3.957  20.694  0.00  0.00    +0.000 A 
ATOM      5  C   UNL     1       1.405   2.680  21.217  0.00  0.00    +0.000 A 
ATOM      6  C   UNL     1       2.651   2.074  21.058  0.00  0.00    +0.000 A 
ATOM      7  C   UNL     1       3.660   2.745  20.371  0.00  0.00    +0.000 A 
ATOM      8  C   UNL     1       3.416   4.024  19.849  0.00  0.00    +0.000 A 
ATOM      9  C   UNL     1       4.467   4.766  19.104  0.00  0.00    +0.000 A 
ATOM     10  N   UNL     1       5.616   4.176  18.953  0.00  0.00    +0.000 NA
ATOM     11  C   UNL     1       6.552   4.892  18.257  0.00  0.00    +0.000 A 
ATOM     12  O   UNL     1       7.681   4.460  18.043  0.00  0.00    +0.000 OA
ATOM     13  C   UNL     1       6.216   6.281  17.722  0.00  0.00    +0.000 A 
ATOM     14  C   UNL     1       7.272   7.021  16.957  0.00  0.00    +0.000 C 
ATOM     15  N   UNL     1       5.046   6.815  17.916  0.00  0.00    +0.000 NA
ATOM     16  N   UNL     1       4.112   6.043  18.625  0.00  0.00    +0.000 N 
ENDROOT
BRANCH   1  17
ATOM     17  S   UNL     1       2.350   8.110  18.142  0.00  0.00    +0.000 S 
BRANCH  17  18
ATOM     18  C   UNL     1       1.610   8.953  19.579  0.00  0.00    +0.000 C 
BRANCH  18  20
ATOM     19  N   UNL     1      -0.557  10.089  19.514  0.00  0.00    +0.000 N 
ATOM     20  C   UNL     1       0.777  10.169  19.194  0.00  0.00    +0.000 C 
ATOM     21  O   UNL     1       1.291  11.175  18.711  0.00  0.00    +0.000 OA
ATOM     22  H   UNL     1      -0.928   9.177  19.759  0.00  0.00    +0.000 HD
BRANCH  19  23
ATOM     23  C   UNL     1      -1.486  11.122  19.126  0.00  0.00    +0.000 C 
BRANCH  23  28
ATOM     24  C   UNL     1      -4.081   9.978  14.024  0.00  0.00    +0.000 C 
ATOM     25  C   UNL     1      -3.427  10.280  15.339  0.00  0.00    +0.000 A 
ATOM     26  C   UNL     1      -3.966  11.238  16.204  0.00  0.00    +0.000 A 
ATOM     27  C   UNL     1      -3.355  11.513  17.432  0.00  0.00    +0.000 A 
ATOM     28  C   UNL     1      -2.202  10.822  17.830  0.00  0.00    +0.000 A 
ATOM     29  C   UNL     1      -1.654   9.879  16.948  0.00  0.00    +0.000 A 
ATOM     30  C   UNL     1      -2.261   9.608  15.719  0.00  0.00    +0.000 A 
ENDBRANCH  23  28
ENDBRANCH  19  23
ENDBRANCH  18  20
ENDBRANCH  17  18
ENDBRANCH   1  17
TORSDOF 5
ENDMDL
MODEL 2
REMARK VINA RESULT:      -8.9      1.036      1.692
REMARK  Name = 
REMARK  7 active torsions:
REMARK  status: ('A' for Active; 'I' for Inactive)
REMARK    1  A    between atoms: C_1  and  C_2
REMARK    2  A    between atoms: C_5  and  C_6
REMARK    3  A    between atoms: C_6  and  N_7
REMARK    4  A    between atoms: C_8  and  C_10
REMARK    5  A    between atoms: C_10  and  S_11
REMARK    6  A    between atoms: S_11  and  C_12
REMARK    7  A    between atoms: C_24  and  C_25
REMARK                            x       y       z     vdW  Elec       q    Type
REMARK                         _______ _______ _______ _____ _____    ______ ____
ROOT
ATOM      1  C   UNL     1       2.946   6.648  18.701  0.00  0.00    +0.000 A 
ATOM      2  N   UNL     1       1.954   6.094  19.332  0.00  0.00    +0.000 NA
ATOM      3  C   UNL     1       2.183   4.824  19.905  0.00  0.00    +0.000 A 
ATOM      4  C   UNL     1       1.126   4.199  20.571  0.00  0.00    +0.000 A 
ATOM      5  C   UNL     1       1.290   2.939  21.157  0.00  0.00    +0.000 A 
ATOM      6  C   UNL     1       2.518   2.284  21.083  0.00  0.00    +0.000 A 
ATOM      7  C   UNL     1       3.581   2.887  20.417  0.00  0.00    +0.000 A 
ATOM      8  C   UNL     1       3.409   4.150  19.831  0.00  0.00    +0.000 A 
ATOM      9  C   UNL     1       4.520   4.821  19.105  0.00  0.00    +0.000 A 
ATOM     10  N   UNL     1       5.652   4.185  19.033  0.00  0.00    +0.000 NA
ATOM     11  C   UNL     1       6.645   4.835  18.353  0.00  0.00    +0.000 A 
ATOM     12  O   UNL     1       7.765   4.355  18.211  0.00  0.00    +0.000 OA
ATOM     13  C   UNL     1       6.386   6.211  17.744  0.00  0.00    +0.000 A 
ATOM     14  C   UNL     1       7.502   6.879  16.999  0.00  0.00    +0.000 C 
ATOM     15  N   UNL     1       5.228   6.794  17.860  0.00  0.00    +0.000 NA
ATOM     16  N   UNL     1       4.235   6.087  18.555  0.00  0.00    +0.000 N 
ENDROOT
BRANCH   1  17
ATOM     17  S   UNL     1       2.575   8.192  17.904  0.00  0.00    +0.000 S 
BRANCH  17  18
ATOM     18  C   UNL     1       1.453   8.961  19.117  0.00  0.00    +0.000 C 
BRANCH  18  20
ATOM     19  N   UNL     1      -0.335  10.616  18.882  0.00  0.00    +0.000 N 
ATOM     20  C   UNL     1       1.004  10.359  18.712  0.00  0.00    +0.000 C 
ATOM     21  O   UNL     1       1.808  11.212  18.341  0.00  0.00    +0.000 OA
ATOM     22  H   UNL     1      -0.950   9.824  19.036  0.00  0.00    +0.000 HD
BRANCH  19  23
ATOM     23  C   UNL     1      -0.921  11.863  18.454  0.00  0.00    +0.000 C 
BRANCH  23  28
ATOM     24  C   UNL     1      -6.734  11.509  18.048  0.00  0.00    +0.000 C 
ATOM     25  C   UNL     1      -5.239  11.596  18.137  0.00  0.00    +0.000 A 
ATOM     26  C   UNL     1      -4.433  11.157  17.083  0.00  0.00    +0.000 A 
ATOM     27  C   UNL     1      -3.038  11.245  17.168  0.00  0.00    +0.000 A 
ATOM     28  C   UNL     1      -2.423  11.793  18.303  0.00  0.00    +0.000 A 
ATOM     29  C   UNL     1      -3.238  12.210  19.365  0.00  0.00    +0.000 A 
ATOM     30  C   UNL     1      -4.630  12.117  19.282  0.00  0.00    +0.000 A 
ENDBRANCH  23  28
ENDBRANCH  19  23
ENDBRANCH  18  20
ENDBRANCH  17  18
ENDBRANCH   1  17
TORSDOF 5
ENDMDL
MODEL 3
REMARK VINA RESULT:      -8.8      2.288      3.475
REMARK  Name = 
REMARK  7 active torsions:
REMARK  status: ('A' for Active; 'I' for Inactive)
REMARK    1  A    between atoms: C_1  and  C_2
REMARK    2  A    between atoms: C_5  and  C_6
REMARK    3  A    between atoms: C_6  and  N_7
REMARK    4  A    between atoms: C_8  and  C_10
REMARK    5  A    between atoms: C_10  and  S_11
REMARK    6  A    between atoms: S_11  and  C_12
REMARK    7  A    between atoms: C_24  and  C_25
REMARK                            x       y       z     vdW  Elec       q    Type
REMARK                         _______ _______ _______ _____ _____    ______ ____
ROOT
ATOM      1  C   UNL     1       2.812   6.559  18.716  0.00  0.00    +0.000 A 
ATOM      2  N   UNL     1       1.846   5.978  19.363  0.00  0.00    +0.000 NA
ATOM      3  C   UNL     1       2.125   4.725  19.951  0.00  0.00    +0.000 A 
ATOM      4  C   UNL     1       1.097   4.071  20.634  0.00  0.00    +0.000 A 
ATOM      5  C   UNL     1       1.310   2.826  21.236  0.00  0.00    +0.000 A 
ATOM      6  C   UNL     1       2.561   2.215  21.160  0.00  0.00    +0.000 A 
ATOM      7  C   UNL     1       3.596   2.847  20.477  0.00  0.00    +0.000 A 
ATOM      8  C   UNL     1       3.374   4.095  19.875  0.00  0.00    +0.000 A 
ATOM      9  C   UNL     1       4.454   4.795  19.131  0.00  0.00    +0.000 A 
ATOM     10  N   UNL     1       5.608   4.200  19.059  0.00  0.00    +0.000 NA
ATOM     11  C   UNL     1       6.572   4.876  18.362  0.00  0.00    +0.000 A 
ATOM     12  O   UNL     1       7.707   4.434  18.217  0.00  0.00    +0.000 OA
ATOM     13  C   UNL     1       6.258   6.233  17.736  0.00  0.00    +0.000 A 
ATOM     14  C   UNL     1       7.343   6.930  16.974  0.00  0.00    +0.000 C 
ATOM     15  N   UNL     1       5.081   6.775  17.854  0.00  0.00    +0.000 NA
ATOM     16  N   UNL     1       4.119   6.043  18.567  0.00  0.00    +0.000 N 
ENDROOT
BRANCH   1  17
ATOM     17  S   UNL     1       2.379   8.076  17.901  0.00  0.00    +0.000 S 
BRANCH  17  18
ATOM     18  C   UNL     1       1.782   9.078  19.302  0.00  0.00    +0.000 C 
BRANCH  18  20
ATOM     19  N   UNL     1       0.420  11.058  19.765  0.00  0.00    +0.000 N 
ATOM     20  C   UNL     1       0.612   9.981  18.934  0.00  0.00    +0.000 C 
ATOM     21  O   UNL     1      -0.051   9.794  17.916  0.00  0.00    +0.000 OA
ATOM     22  H   UNL     1       0.899  11.052  20.660  0.00  0.00    +0.000 HD
BRANCH  19  23
ATOM     23  C   UNL     1      -0.705  11.946  19.598  0.00  0.00    +0.000 C 
BRANCH  23  28
ATOM     24  C   UNL     1      -4.091  12.518  24.319  0.00  0.00    +0.000 C 
ATOM     25  C   UNL     1      -3.211  12.362  23.114  0.00  0.00    +0.000 A 
ATOM     26  C   UNL     1      -1.958  11.749  23.216  0.00  0.00    +0.000 A 
ATOM     27  C   UNL     1      -1.143  11.601  22.088  0.00  0.00    +0.000 A 
ATOM     28  C   UNL     1      -1.573  12.045  20.830  0.00  0.00    +0.000 A 
ATOM     29  C   UNL     1      -2.821  12.679  20.739  0.00  0.00    +0.000 A 
ATOM     30  C   UNL     1      -3.632  12.832  21.866  0.00  0.00    +0.000 A 
ENDBRANCH  23  28
ENDBRANCH  19  23
ENDBRANCH  18  20
ENDBRANCH  17  18
ENDBRANCH   1  17
TORSDOF 5
ENDMDL
MODEL 4
REMARK VINA RESULT:      -8.7      2.666      3.652
REMARK  Name = 
REMARK  7 active torsions:
REMARK  status: ('A' for Active; 'I' for Inactive)
REMARK    1  A    between atoms: C_1  and  C_2
REMARK    2  A    between atoms: C_5  and  C_6
REMARK    3  A    between atoms: C_6  and  N_7
REMARK    4  A    between atoms: C_8  and  C_10
REMARK    5  A    between atoms: C_10  and  S_11
REMARK    6  A    between atoms: S_11  and  C_12
REMARK    7  A    between atoms: C_24  and  C_25
REMARK                            x       y       z     vdW  Elec       q    Type
REMARK                         _______ _______ _______ _____ _____    ______ ____
ROOT
ATOM      1  C   UNL     1       3.012   6.617  18.030  0.00  0.00    +0.000 A 
ATOM      2  N   UNL     1       1.978   5.865  18.267  0.00  0.00    +0.000 NA
ATOM      3  C   UNL     1       2.200   4.474  18.361  0.00  0.00    +0.000 A 
ATOM      4  C   UNL     1       1.102   3.644  18.593  0.00  0.00    +0.000 A 
ATOM      5  C   UNL     1       1.257   2.256  18.694  0.00  0.00    +0.000 A 
ATOM      6  C   UNL     1       2.519   1.679  18.560  0.00  0.00    +0.000 A 
ATOM      7  C   UNL     1       3.625   2.490  18.319  0.00  0.00    +0.000 A 
ATOM      8  C   UNL     1       3.461   3.879  18.219  0.00  0.00    +0.000 A 
ATOM      9  C   UNL     1       4.619   4.775  17.955  0.00  0.00    +0.000 A 
ATOM     10  N   UNL     1       5.784   4.214  17.817  0.00  0.00    +0.000 NA
ATOM     11  C   UNL     1       6.820   5.073  17.571  0.00  0.00    +0.000 A 
ATOM     12  O   UNL     1       7.974   4.683  17.423  0.00  0.00    +0.000 OA
ATOM     13  C   UNL     1       6.566   6.576  17.478  0.00  0.00    +0.000 A 
ATOM     14  C   UNL     1       7.732   7.475  17.197  0.00  0.00    +0.000 C 
ATOM     15  N   UNL     1       5.373   7.070  17.634  0.00  0.00    +0.000 NA
ATOM     16  N   UNL     1       4.338   6.154  17.874  0.00  0.00    +0.000 N 
ENDROOT
BRANCH   1  17
ATOM     17  S   UNL     1       2.664   8.345  17.810  0.00  0.00    +0.000 S 
BRANCH  17  18
ATOM     18  C   UNL     1       1.571   8.673  19.231  0.00  0.00    +0.000 C 
BRANCH  18  20
ATOM     19  N   UNL     1       0.920  10.946  19.865  0.00  0.00    +0.000 N 
ATOM     20  C   UNL     1       0.673   9.887  19.026  0.00  0.00    +0.000 C 
ATOM     21  O   UNL     1      -0.150   9.932  18.115  0.00  0.00    +0.000 OA
ATOM     22  H   UNL     1       1.497  10.774  20.682  0.00  0.00    +0.000 HD
BRANCH  19  23
ATOM     23  C   UNL     1       0.089  12.126  19.851  0.00  0.00    +0.000 C 
BRANCH  23  28
ATOM     24  C   UNL     1      -3.907  12.375  24.100  0.00  0.00    +0.000 C 
ATOM     25  C   UNL     1      -2.872  12.300  23.016  0.00  0.00    +0.000 A 
ATOM     26  C   UNL     1      -1.684  11.590  23.209  0.00  0.00    +0.000 A 
ATOM     27  C   UNL     1      -0.723  11.518  22.194  0.00  0.00    +0.000 A 
ATOM     28  C   UNL     1      -0.941  12.140  20.956  0.00  0.00    +0.000 A 
ATOM     29  C   UNL     1      -2.126  12.869  20.778  0.00  0.00    +0.000 A 
ATOM     30  C   UNL     1      -3.082  12.945  21.794  0.00  0.00    +0.000 A 
ENDBRANCH  23  28
ENDBRANCH  19  23
ENDBRANCH  18  20
ENDBRANCH  17  18
ENDBRANCH   1  17
TORSDOF 5
ENDMDL
MODEL 5
REMARK VINA RESULT:      -8.6      1.536      1.831
REMARK  Name = 
REMARK  7 active torsions:
REMARK  status: ('A' for Active; 'I' for Inactive)
REMARK    1  A    between atoms: C_1  and  C_2
REMARK    2  A    between atoms: C_5  and  C_6
REMARK    3  A    between atoms: C_6  and  N_7
REMARK    4  A    between atoms: C_8  and  C_10
REMARK    5  A    between atoms: C_10  and  S_11
REMARK    6  A    between atoms: S_11  and  C_12
REMARK    7  A    between atoms: C_24  and  C_25
REMARK                            x       y       z     vdW  Elec       q    Type
REMARK                         _______ _______ _______ _____ _____    ______ ____
ROOT
ATOM      1  C   UNL     1       2.928   6.486  18.138  0.00  0.00    +0.000 A 
ATOM      2  N   UNL     1       1.926   5.694  18.384  0.00  0.00    +0.000 NA
ATOM      3  C   UNL     1       2.191   4.307  18.409  0.00  0.00    +0.000 A 
ATOM      4  C   UNL     1       1.128   3.436  18.651  0.00  0.00    +0.000 A 
ATOM      5  C   UNL     1       1.325   2.051  18.686  0.00  0.00    +0.000 A 
ATOM      6  C   UNL     1       2.596   1.517  18.476  0.00  0.00    +0.000 A 
ATOM      7  C   UNL     1       3.668   2.370  18.226  0.00  0.00    +0.000 A 
ATOM      8  C   UNL     1       3.461   3.757  18.191  0.00  0.00    +0.000 A 
ATOM      9  C   UNL     1       4.581   4.697  17.919  0.00  0.00    +0.000 A 
ATOM     10  N   UNL     1       5.755   4.177  17.710  0.00  0.00    +0.000 NA
ATOM     11  C   UNL     1       6.755   5.077  17.458  0.00  0.00    +0.000 A 
ATOM     12  O   UNL     1       7.912   4.728  17.247  0.00  0.00    +0.000 OA
ATOM     13  C   UNL     1       6.456   6.574  17.440  0.00  0.00    +0.000 A 
ATOM     14  C   UNL     1       7.583   7.518  17.150  0.00  0.00    +0.000 C 
ATOM     15  N   UNL     1       5.257   7.025  17.666  0.00  0.00    +0.000 NA
ATOM     16  N   UNL     1       4.259   6.069  17.908  0.00  0.00    +0.000 N 
ENDROOT
BRANCH   1  17
ATOM     17  S   UNL     1       2.522   8.210  18.006  0.00  0.00    +0.000 S 
BRANCH  17  18
ATOM     18  C   UNL     1       1.728   8.515  19.618  0.00  0.00    +0.000 C 
BRANCH  18  20
ATOM     19  N   UNL     1       0.487  10.258  18.428  0.00  0.00    +0.000 N 
ATOM     20  C   UNL     1       0.922   9.808  19.651  0.00  0.00    +0.000 C 
ATOM     21  O   UNL     1       0.620  10.351  20.712  0.00  0.00    +0.000 OA
ATOM     22  H   UNL     1       0.908   9.849  17.600  0.00  0.00    +0.000 HD
BRANCH  19  23
ATOM     23  C   UNL     1      -0.204  11.517  18.293  0.00  0.00    +0.000 C 
BRANCH  23  28
ATOM     24  C   UNL     1      -6.013  10.971  18.091  0.00  0.00    +0.000 C 
ATOM     25  C   UNL     1      -4.522  11.120  18.156  0.00  0.00    +0.000 A 
ATOM     26  C   UNL     1      -3.930  12.019  19.048  0.00  0.00    +0.000 A 
ATOM     27  C   UNL     1      -2.538  12.151  19.110  0.00  0.00    +0.000 A 
ATOM     28  C   UNL     1      -1.708  11.372  18.292  0.00  0.00    +0.000 A 
ATOM     29  C   UNL     1      -2.310  10.488  17.382  0.00  0.00    +0.000 A 
ATOM     30  C   UNL     1      -3.700  10.361  17.317  0.00  0.00    +0.000 A 
ENDBRANCH  23  28
ENDBRANCH  19  23
ENDBRANCH  18  20
ENDBRANCH  17  18
ENDBRANCH   1  17
TORSDOF 5
ENDMDL
MODEL 6
REMARK VINA RESULT:      -8.6      3.556      8.003
REMARK  Name = 
REMARK  7 active torsions:
REMARK  status: ('A' for Active; 'I' for Inactive)
REMARK    1  A    between atoms: C_1  and  C_2
REMARK    2  A    between atoms: C_5  and  C_6
REMARK    3  A    between atoms: C_6  and  N_7
REMARK    4  A    between atoms: C_8  and  C_10
REMARK    5  A    between atoms: C_10  and  S_11
REMARK    6  A    between atoms: S_11  and  C_12
REMARK    7  A    between atoms: C_24  and  C_25
REMARK                            x       y       z     vdW  Elec       q    Type
REMARK                         _______ _______ _______ _____ _____    ______ ____
ROOT
ATOM      1  C   UNL     1       3.810   6.018  17.948  0.00  0.00    +0.000 A 
ATOM      2  N   UNL     1       3.360   7.224  17.766  0.00  0.00    +0.000 NA
ATOM      3  C   UNL     1       2.468   7.734  18.735  0.00  0.00    +0.000 A 
ATOM      4  C   UNL     1       1.956   9.019  18.551  0.00  0.00    +0.000 A 
ATOM      5  C   UNL     1       1.066   9.579  19.474  0.00  0.00    +0.000 A 
ATOM      6  C   UNL     1       0.674   8.855  20.600  0.00  0.00    +0.000 A 
ATOM      7  C   UNL     1       1.168   7.568  20.797  0.00  0.00    +0.000 A 
ATOM      8  C   UNL     1       2.059   7.014  19.865  0.00  0.00    +0.000 A 
ATOM      9  C   UNL     1       2.601   5.640  20.040  0.00  0.00    +0.000 A 
ATOM     10  N   UNL     1       2.209   4.976  21.088  0.00  0.00    +0.000 NA
ATOM     11  C   UNL     1       2.727   3.715  21.207  0.00  0.00    +0.000 A 
ATOM     12  O   UNL     1       2.448   2.979  22.147  0.00  0.00    +0.000 OA
ATOM     13  C   UNL     1       3.695   3.180  20.155  0.00  0.00    +0.000 A 
ATOM     14  C   UNL     1       4.228   1.789  20.324  0.00  0.00    +0.000 C 
ATOM     15  N   UNL     1       4.051   3.903  19.133  0.00  0.00    +0.000 NA
ATOM     16  N   UNL     1       3.487   5.185  19.043  0.00  0.00    +0.000 N 
ENDROOT
BRANCH   1  17
ATOM     17  S   UNL     1       4.837   5.383  16.646  0.00  0.00    +0.000 S 
BRANCH  17  18
ATOM     18  C   UNL     1       5.913   6.815  16.308  0.00  0.00    +0.000 C 
BRANCH  18  20
ATOM     19  N   UNL     1       7.439   8.283  17.535  0.00  0.00    +0.000 N 
ATOM     20  C   UNL     1       7.017   6.990  17.343  0.00  0.00    +0.000 C 
ATOM     21  O   UNL     1       7.429   6.044  18.011  0.00  0.00    +0.000 OA
ATOM     22  H   UNL     1       7.170   8.973  16.842  0.00  0.00    +0.000 HD
BRANCH  19  23
ATOM     23  C   UNL     1       8.542   8.591  18.413  0.00  0.00    +0.000 C 
BRANCH  23  28
ATOM     24  C   UNL     1       9.715  14.308  18.547  0.00  0.00    +0.000 C 
ATOM     25  C   UNL     1       9.421  12.837  18.526  0.00  0.00    +0.000 A 
ATOM     26  C   UNL     1      10.063  11.966  19.412  0.00  0.00    +0.000 A 
ATOM     27  C   UNL     1       9.782  10.595  19.393  0.00  0.00    +0.000 A 
ATOM     28  C   UNL     1       8.839  10.069  18.498  0.00  0.00    +0.000 A 
ATOM     29  C   UNL     1       8.216  10.946  17.597  0.00  0.00    +0.000 A 
ATOM     30  C   UNL     1       8.501  12.314  17.613  0.00  0.00    +0.000 A 
ENDBRANCH  23  28
ENDBRANCH  19  23
ENDBRANCH  18  20
ENDBRANCH  17  18
ENDBRANCH   1  17
TORSDOF 5
ENDMDL
MODEL 7
REMARK VINA RESULT:      -8.5      3.186      7.698
REMARK  Name = 
REMARK  7 active torsions:
REMARK  status: ('A' for Active; 'I' for Inactive)
REMARK    1  A    between atoms: C_1  and  C_2
REMARK    2  A    between atoms: C_5  and  C_6
REMARK    3  A    between atoms: C_6  and  N_7
REMARK    4  A    between atoms: C_8  and  C_10
REMARK    5  A    between atoms: C_10  and  S_11
REMARK    6  A    between atoms: S_11  and  C_12
REMARK    7  A    between atoms: C_24  and  C_25
REMARK                            x       y       z     vdW  Elec       q    Type
REMARK                         _______ _______ _______ _____ _____    ______ ____
ROOT
ATOM      1  C   UNL     1       4.173   5.780  17.694  0.00  0.00    +0.000 A 
ATOM      2  N   UNL     1       4.425   4.566  18.081  0.00  0.00    +0.000 NA
ATOM      3  C   UNL     1       3.767   4.110  19.245  0.00  0.00    +0.000 A 
ATOM      4  C   UNL     1       4.037   2.816  19.693  0.00  0.00    +0.000 A 
ATOM      5  C   UNL     1       3.419   2.308  20.842  0.00  0.00    +0.000 A 
ATOM      6  C   UNL     1       2.520   3.094  21.561  0.00  0.00    +0.000 A 
ATOM      7  C   UNL     1       2.244   4.390  21.135  0.00  0.00    +0.000 A 
ATOM      8  C   UNL     1       2.869   4.892  19.983  0.00  0.00    +0.000 A 
ATOM      9  C   UNL     1       2.603   6.274  19.502  0.00  0.00    +0.000 A 
ATOM     10  N   UNL     1       1.774   6.996  20.198  0.00  0.00    +0.000 NA
ATOM     11  C   UNL     1       1.563   8.262  19.724  0.00  0.00    +0.000 A 
ATOM     12  O   UNL     1       0.803   9.050  20.277  0.00  0.00    +0.000 OA
ATOM     13  C   UNL     1       2.276   8.739  18.461  0.00  0.00    +0.000 A 
ATOM     14  C   UNL     1       2.019  10.137  17.987  0.00  0.00    +0.000 C 
ATOM     15  N   UNL     1       3.089   7.959  17.809  0.00  0.00    +0.000 NA
ATOM     16  N   UNL     1       3.286   6.674  18.336  0.00  0.00    +0.000 N 
ENDROOT
BRANCH   1  17
ATOM     17  S   UNL     1       5.109   6.342  16.292  0.00  0.00    +0.000 S 
BRANCH  17  18
ATOM     18  C   UNL     1       6.699   5.493  16.560  0.00  0.00    +0.000 C 
BRANCH  18  20
ATOM     19  N   UNL     1       7.694   7.337  17.824  0.00  0.00    +0.000 N 
ATOM     20  C   UNL     1       7.439   5.988  17.796  0.00  0.00    +0.000 C 
ATOM     21  O   UNL     1       7.707   5.235  18.730  0.00  0.00    +0.000 OA
ATOM     22  H   UNL     1       7.588   7.854  16.958  0.00  0.00    +0.000 HD
BRANCH  19  23
ATOM     23  C   UNL     1       8.469   7.933  18.885  0.00  0.00    +0.000 C 
BRANCH  23  28
ATOM     24  C   UNL     1       9.307  13.643  18.004  0.00  0.00    +0.000 C 
ATOM     25  C   UNL     1       9.099  12.177  18.244  0.00  0.00    +0.000 A 
ATOM     26  C   UNL     1       9.745  11.526  19.300  0.00  0.00    +0.000 A 
ATOM     27  C   UNL     1       9.544  10.159  19.523  0.00  0.00    +0.000 A 
ATOM     28  C   UNL     1       8.677   9.419  18.707  0.00  0.00    +0.000 A 
ATOM     29  C   UNL     1       8.051  10.074  17.636  0.00  0.00    +0.000 A 
ATOM     30  C   UNL     1       8.256  11.438  17.409  0.00  0.00    +0.000 A 
ENDBRANCH  23  28
ENDBRANCH  19  23
ENDBRANCH  18  20
ENDBRANCH  17  18
ENDBRANCH   1  17
TORSDOF 5
ENDMDL
MODEL 8
REMARK VINA RESULT:      -8.5      1.015      1.350
REMARK  Name = 
REMARK  7 active torsions:
REMARK  status: ('A' for Active; 'I' for Inactive)
REMARK    1  A    between atoms: C_1  and  C_2
REMARK    2  A    between atoms: C_5  and  C_6
REMARK    3  A    between atoms: C_6  and  N_7
REMARK    4  A    between atoms: C_8  and  C_10
REMARK    5  A    between atoms: C_10  and  S_11
REMARK    6  A    between atoms: S_11  and  C_12
REMARK    7  A    between atoms: C_24  and  C_25
REMARK                            x       y       z     vdW  Elec       q    Type
REMARK                         _______ _______ _______ _____ _____    ______ ____
ROOT
ATOM      1  C   UNL     1       2.924   6.519  18.125  0.00  0.00    +0.000 A 
ATOM      2  N   UNL     1       1.869   5.787  18.333  0.00  0.00    +0.000 NA
ATOM      3  C   UNL     1       2.068   4.397  18.482  0.00  0.00    +0.000 A 
ATOM      4  C   UNL     1       0.949   3.587  18.685  0.00  0.00    +0.000 A 
ATOM      5  C   UNL     1       1.080   2.202  18.838  0.00  0.00    +0.000 A 
ATOM      6  C   UNL     1       2.340   1.606  18.786  0.00  0.00    +0.000 A 
ATOM      7  C   UNL     1       3.467   2.396  18.576  0.00  0.00    +0.000 A 
ATOM      8  C   UNL     1       3.327   3.784  18.423  0.00  0.00    +0.000 A 
ATOM      9  C   UNL     1       4.508   4.657  18.190  0.00  0.00    +0.000 A 
ATOM     10  N   UNL     1       5.671   4.078  18.128  0.00  0.00    +0.000 NA
ATOM     11  C   UNL     1       6.729   4.917  17.907  0.00  0.00    +0.000 A 
ATOM     12  O   UNL     1       7.883   4.509  17.831  0.00  0.00    +0.000 OA
ATOM     13  C   UNL     1       6.500   6.419  17.754  0.00  0.00    +0.000 A 
ATOM     14  C   UNL     1       7.690   7.295  17.503  0.00  0.00    +0.000 C 
ATOM     15  N   UNL     1       5.307   6.932  17.834  0.00  0.00    +0.000 NA
ATOM     16  N   UNL     1       4.250   6.035  18.050  0.00  0.00    +0.000 N 
ENDROOT
BRANCH   1  17
ATOM     17  S   UNL     1       2.609   8.242  17.832  0.00  0.00    +0.000 S 
BRANCH  17  18
ATOM     18  C   UNL     1       1.759   8.718  19.372  0.00  0.00    +0.000 C 
BRANCH  18  20
ATOM     19  N   UNL     1      -0.482   9.691  19.222  0.00  0.00    +0.000 N 
ATOM     20  C   UNL     1       0.868   9.943  19.209  0.00  0.00    +0.000 C 
ATOM     21  O   UNL     1       1.338  11.078  19.156  0.00  0.00    +0.000 OA
ATOM     22  H   UNL     1      -0.781   8.728  19.108  0.00  0.00    +0.000 HD
BRANCH  19  23
ATOM     23  C   UNL     1      -1.444  10.739  18.983  0.00  0.00    +0.000 C 
BRANCH  23  28
ATOM     24  C   UNL     1      -4.350  10.210  13.947  0.00  0.00    +0.000 C 
ATOM     25  C   UNL     1      -3.592  10.337  15.235  0.00  0.00    +0.000 A 
ATOM     26  C   UNL     1      -2.476   9.534  15.491  0.00  0.00    +0.000 A 
ATOM     27  C   UNL     1      -1.769   9.659  16.692  0.00  0.00    +0.000 A 
ATOM     28  C   UNL     1      -2.152  10.604  17.655  0.00  0.00    +0.000 A 
ATOM     29  C   UNL     1      -3.286  11.390  17.400  0.00  0.00    +0.000 A 
ATOM     30  C   UNL     1      -3.995  11.261  16.204  0.00  0.00    +0.000 A 
ENDBRANCH  23  28
ENDBRANCH  19  23
ENDBRANCH  18  20
ENDBRANCH  17  18
ENDBRANCH   1  17
TORSDOF 5
ENDMDL
MODEL 9
REMARK VINA RESULT:      -8.4      2.449      3.262
REMARK  Name = 
REMARK  7 active torsions:
REMARK  status: ('A' for Active; 'I' for Inactive)
REMARK    1  A    between atoms: C_1  and  C_2
REMARK    2  A    between atoms: C_5  and  C_6
REMARK    3  A    between atoms: C_6  and  N_7
REMARK    4  A    between atoms: C_8  and  C_10
REMARK    5  A    between atoms: C_10  and  S_11
REMARK    6  A    between atoms: S_11  and  C_12
REMARK    7  A    between atoms: C_24  and  C_25
REMARK                            x       y       z     vdW  Elec       q    Type
REMARK                         _______ _______ _______ _____ _____    ______ ____
ROOT
ATOM      1  C   UNL     1       2.983   6.740  18.607  0.00  0.00    +0.000 A 
ATOM      2  N   UNL     1       1.973   6.203  19.224  0.00  0.00    +0.000 NA
ATOM      3  C   UNL     1       2.176   4.936  19.813  0.00  0.00    +0.000 A 
ATOM      4  C   UNL     1       1.100   4.329  20.464  0.00  0.00    +0.000 A 
ATOM      5  C   UNL     1       1.238   3.072  21.064  0.00  0.00    +0.000 A 
ATOM      6  C   UNL     1       2.460   2.402  21.019  0.00  0.00    +0.000 A 
ATOM      7  C   UNL     1       3.542   2.988  20.368  0.00  0.00    +0.000 A 
ATOM      8  C   UNL     1       3.396   4.247  19.768  0.00  0.00    +0.000 A 
ATOM      9  C   UNL     1       4.528   4.899  19.057  0.00  0.00    +0.000 A 
ATOM     10  N   UNL     1       5.654   4.249  19.013  0.00  0.00    +0.000 NA
ATOM     11  C   UNL     1       6.667   4.882  18.346  0.00  0.00    +0.000 A 
ATOM     12  O   UNL     1       7.784   4.388  18.229  0.00  0.00    +0.000 OA
ATOM     13  C   UNL     1       6.435   6.255  17.720  0.00  0.00    +0.000 A 
ATOM     14  C   UNL     1       7.573   6.903  16.991  0.00  0.00    +0.000 C 
ATOM     15  N   UNL     1       5.282   6.852  17.809  0.00  0.00    +0.000 NA
ATOM     16  N   UNL     1       4.268   6.163  18.491  0.00  0.00    +0.000 N 
ENDROOT
BRANCH   1  17
ATOM     17  S   UNL     1       2.645   8.280  17.789  0.00  0.00    +0.000 S 
BRANCH  17  18
ATOM     18  C   UNL     1       1.109   8.798  18.622  0.00  0.00    +0.000 C 
BRANCH  18  20
ATOM     19  N   UNL     1       0.695  10.381  20.442  0.00  0.00    +0.000 N 
ATOM     20  C   UNL     1       1.174  10.220  19.165  0.00  0.00    +0.000 C 
ATOM     21  O   UNL     1       1.699  11.130  18.527  0.00  0.00    +0.000 OA
ATOM     22  H   UNL     1       0.139   9.628  20.834  0.00  0.00    +0.000 HD
BRANCH  19  23
ATOM     23  C   UNL     1       0.605  11.685  21.053  0.00  0.00    +0.000 C 
BRANCH  23  28
ATOM     24  C   UNL     1      -4.849  12.947  22.708  0.00  0.00    +0.000 C 
ATOM     25  C   UNL     1      -3.450  12.629  22.269  0.00  0.00    +0.000 A 
ATOM     26  C   UNL     1      -3.055  12.824  20.942  0.00  0.00    +0.000 A 
ATOM     27  C   UNL     1      -1.747  12.532  20.538  0.00  0.00    +0.000 A 
ATOM     28  C   UNL     1      -0.802  12.057  21.458  0.00  0.00    +0.000 A 
ATOM     29  C   UNL     1      -1.212  11.842  22.782  0.00  0.00    +0.000 A 
ATOM     30  C   UNL     1      -2.520  12.129  23.184  0.00  0.00    +0.000 A 
ENDBRANCH  23  28
ENDBRANCH  19  23
ENDBRANCH  18  20
ENDBRANCH  17  18
ENDBRANCH   1  17
TORSDOF 5
ENDMDL
