MODEL 1
REMARK VINA RESULT:      -8.4      0.000      0.000
REMARK  Name = 
REMARK  5 active torsions:
REMARK  status: ('A' for Active; 'I' for Inactive)
REMARK    1  A    between atoms: C_1  and  C_2
REMARK    2  A    between atoms: C_4  and  C_5
REMARK    3  A    between atoms: C_12  and  C_13
REMARK    4  A    between atoms: N_15  and  C_16
REMARK    5  A    between atoms: C_20  and  C_21
REMARK                            x       y       z     vdW  Elec       q    Type
REMARK                         _______ _______ _______ _____ _____    ______ ____
ROOT
ATOM      1  C   UNL     1       6.983   4.422  16.583  0.00  0.00    +0.000 C 
ATOM      2  O   UNL     1       8.182   4.161  16.565  0.00  0.00    +0.000 OA
ATOM      3  N   UNL     1       6.188   4.583  15.455  0.00  0.00    +0.000 N 
ATOM      4  H   UNL     1       5.243   4.902  15.635  0.00  0.00    +0.000 HD
ENDROOT
BRANCH   1  10
ATOM      5  C   UNL     1       7.769   6.205  19.245  0.00  0.00    +0.000 C 
ATOM      6  C   UNL     1       6.586   5.365  18.958  0.00  0.00    +0.000 A 
ATOM      7  N   UNL     1       5.573   5.250  19.880  0.00  0.00    +0.000 NA
ATOM      8  C   UNL     1       4.679   4.480  19.292  0.00  0.00    +0.000 A 
ATOM      9  O   UNL     1       5.042   4.061  18.037  0.00  0.00    +0.000 OA
ATOM     10  C   UNL     1       6.275   4.634  17.828  0.00  0.00    +0.000 A 
BRANCH   8  11
ATOM     11  C   UNL     1       3.363   4.071  19.776  0.00  0.00    +0.000 A 
ATOM     12  C   UNL     1       2.442   5.051  20.183  0.00  0.00    +0.000 A 
ATOM     13  C   UNL     1       1.154   4.697  20.590  0.00  0.00    +0.000 A 
ATOM     14  C   UNL     1       0.771   3.358  20.601  0.00  0.00    +0.000 A 
ATOM     15  C   UNL     1       1.679   2.373  20.221  0.00  0.00    +0.000 A 
ATOM     16  C   UNL     1       2.968   2.727  19.814  0.00  0.00    +0.000 A 
ENDBRANCH   8  11
ENDBRANCH   1  10
BRANCH   3  17
ATOM     17  C   UNL     1       6.579   4.440  14.105  0.00  0.00    +0.000 A 
ATOM     18  C   UNL     1       7.420   5.341  13.450  0.00  0.00    +0.000 A 
ATOM     19  C   UNL     1       7.758   5.158  12.106  0.00  0.00    +0.000 A 
ATOM     20  C   UNL     1       7.256   4.071  11.399  0.00  0.00    +0.000 A 
ATOM     21  C   UNL     1       6.421   3.142  12.034  0.00  0.00    +0.000 A 
ATOM     22  C   UNL     1       6.098   3.329  13.393  0.00  0.00    +0.000 A 
BRANCH  21  23
ATOM     23  C   UNL     1       5.865   1.962  11.274  0.00  0.00    +0.000 C 
ATOM     24  F   UNL     1       6.596   1.624  10.175  0.00  0.00    +0.000 F 
ATOM     25  F   UNL     1       5.799   0.836  12.038  0.00  0.00    +0.000 F 
ATOM     26  F   UNL     1       4.599   2.183  10.825  0.00  0.00    +0.000 F 
ENDBRANCH  21  23
ENDBRANCH   3  17
TORSDOF 4
ENDMDL
MODEL 2
REMARK VINA RESULT:      -8.3      0.610      1.083
REMARK  Name = 
REMARK  5 active torsions:
REMARK  status: ('A' for Active; 'I' for Inactive)
REMARK    1  A    between atoms: C_1  and  C_2
REMARK    2  A    between atoms: C_4  and  C_5
REMARK    3  A    between atoms: C_12  and  C_13
REMARK    4  A    between atoms: N_15  and  C_16
REMARK    5  A    between atoms: C_20  and  C_21
REMARK                            x       y       z     vdW  Elec       q    Type
REMARK                         _______ _______ _______ _____ _____    ______ ____
ROOT
ATOM      1  C   UNL     1       6.864   4.444  16.627  0.00  0.00    +0.000 C 
ATOM      2  O   UNL     1       8.088   4.355  16.632  0.00  0.00    +0.000 OA
ATOM      3  N   UNL     1       6.075   4.470  15.484  0.00  0.00    +0.000 N 
ATOM      4  H   UNL     1       5.091   4.655  15.644  0.00  0.00    +0.000 HD
ENDROOT
BRANCH   1  10
ATOM      5  C   UNL     1       7.587   5.985  19.453  0.00  0.00    +0.000 C 
ATOM      6  C   UNL     1       6.395   5.206  19.054  0.00  0.00    +0.000 A 
ATOM      7  N   UNL     1       5.342   5.047  19.923  0.00  0.00    +0.000 NA
ATOM      8  C   UNL     1       4.453   4.353  19.241  0.00  0.00    +0.000 A 
ATOM      9  O   UNL     1       4.857   4.025  17.970  0.00  0.00    +0.000 OA
ATOM     10  C   UNL     1       6.111   4.577  17.857  0.00  0.00    +0.000 A 
BRANCH   8  11
ATOM     11  C   UNL     1       3.108   3.946  19.638  0.00  0.00    +0.000 A 
ATOM     12  C   UNL     1       2.162   3.628  18.649  0.00  0.00    +0.000 A 
ATOM     13  C   UNL     1       0.888   3.176  18.996  0.00  0.00    +0.000 A 
ATOM     14  C   UNL     1       0.540   3.040  20.338  0.00  0.00    +0.000 A 
ATOM     15  C   UNL     1       1.459   3.371  21.331  0.00  0.00    +0.000 A 
ATOM     16  C   UNL     1       2.734   3.824  20.983  0.00  0.00    +0.000 A 
ENDBRANCH   8  11
ENDBRANCH   1  10
BRANCH   3  17
ATOM     17  C   UNL     1       6.506   4.359  14.143  0.00  0.00    +0.000 A 
ATOM     18  C   UNL     1       7.363   5.277  13.534  0.00  0.00    +0.000 A 
ATOM     19  C   UNL     1       7.741   5.126  12.197  0.00  0.00    +0.000 A 
ATOM     20  C   UNL     1       7.263   4.054  11.450  0.00  0.00    +0.000 A 
ATOM     21  C   UNL     1       6.412   3.109  12.039  0.00  0.00    +0.000 A 
ATOM     22  C   UNL     1       6.049   3.264  13.392  0.00  0.00    +0.000 A 
BRANCH  21  23
ATOM     23  C   UNL     1       5.883   1.946  11.236  0.00  0.00    +0.000 C 
ATOM     24  F   UNL     1       4.627   2.144  10.746  0.00  0.00    +0.000 F 
ATOM     25  F   UNL     1       6.664   1.661  10.157  0.00  0.00    +0.000 F 
ATOM     26  F   UNL     1       5.821   0.797  11.964  0.00  0.00    +0.000 F 
ENDBRANCH  21  23
ENDBRANCH   3  17
TORSDOF 4
ENDMDL
MODEL 3
REMARK VINA RESULT:      -8.2      2.270      3.019
REMARK  Name = 
REMARK  5 active torsions:
REMARK  status: ('A' for Active; 'I' for Inactive)
REMARK    1  A    between atoms: C_1  and  C_2
REMARK    2  A    between atoms: C_4  and  C_5
REMARK    3  A    between atoms: C_12  and  C_13
REMARK    4  A    between atoms: N_15  and  C_16
REMARK    5  A    between atoms: C_20  and  C_21
REMARK                            x       y       z     vdW  Elec       q    Type
REMARK                         _______ _______ _______ _____ _____    ______ ____
ROOT
ATOM      1  C   UNL     1       5.688   4.728  16.802  0.00  0.00    +0.000 C 
ATOM      2  O   UNL     1       6.804   4.350  17.146  0.00  0.00    +0.000 OA
ATOM      3  N   UNL     1       5.274   4.888  15.485  0.00  0.00    +0.000 N 
ATOM      4  H   UNL     1       4.360   5.310  15.369  0.00  0.00    +0.000 HD
ENDROOT
BRANCH   1  10
ATOM      5  C   UNL     1       4.568   3.131  19.462  0.00  0.00    +0.000 C 
ATOM      6  C   UNL     1       4.188   4.441  18.890  0.00  0.00    +0.000 A 
ATOM      7  N   UNL     1       3.229   5.216  19.497  0.00  0.00    +0.000 NA
ATOM      8  C   UNL     1       3.175   6.309  18.762  0.00  0.00    +0.000 A 
ATOM      9  O   UNL     1       4.032   6.303  17.689  0.00  0.00    +0.000 OA
ATOM     10  C   UNL     1       4.681   5.094  17.776  0.00  0.00    +0.000 A 
BRANCH   8  11
ATOM     11  C   UNL     1       2.378   7.515  18.971  0.00  0.00    +0.000 A 
ATOM     12  C   UNL     1       2.121   8.369  17.886  0.00  0.00    +0.000 A 
ATOM     13  C   UNL     1       1.310   9.496  18.039  0.00  0.00    +0.000 A 
ATOM     14  C   UNL     1       0.751   9.787  19.281  0.00  0.00    +0.000 A 
ATOM     15  C   UNL     1       1.013   8.962  20.372  0.00  0.00    +0.000 A 
ATOM     16  C   UNL     1       1.825   7.835  20.219  0.00  0.00    +0.000 A 
ENDBRANCH   8  11
ENDBRANCH   1  10
BRANCH   3  17
ATOM     17  C   UNL     1       6.017   4.614  14.316  0.00  0.00    +0.000 A 
ATOM     18  C   UNL     1       7.150   5.339  13.939  0.00  0.00    +0.000 A 
ATOM     19  C   UNL     1       7.834   5.035  12.759  0.00  0.00    +0.000 A 
ATOM     20  C   UNL     1       7.393   4.001  11.939  0.00  0.00    +0.000 A 
ATOM     21  C   UNL     1       6.268   3.248  12.298  0.00  0.00    +0.000 A 
ATOM     22  C   UNL     1       5.594   3.554  13.497  0.00  0.00    +0.000 A 
BRANCH  21  23
ATOM     23  C   UNL     1       5.777   2.129  11.413  0.00  0.00    +0.000 C 
ATOM     24  F   UNL     1       6.569   1.900  10.327  0.00  0.00    +0.000 F 
ATOM     25  F   UNL     1       5.697   0.940  12.073  0.00  0.00    +0.000 F 
ATOM     26  F   UNL     1       4.530   2.365  10.920  0.00  0.00    +0.000 F 
ENDBRANCH  21  23
ENDBRANCH   3  17
TORSDOF 4
ENDMDL
MODEL 4
REMARK VINA RESULT:      -8.1      5.732      9.059
REMARK  Name = 
REMARK  5 active torsions:
REMARK  status: ('A' for Active; 'I' for Inactive)
REMARK    1  A    between atoms: C_1  and  C_2
REMARK    2  A    between atoms: C_4  and  C_5
REMARK    3  A    between atoms: C_12  and  C_13
REMARK    4  A    between atoms: N_15  and  C_16
REMARK    5  A    between atoms: C_20  and  C_21
REMARK                            x       y       z     vdW  Elec       q    Type
REMARK                         _______ _______ _______ _____ _____    ______ ____
ROOT
ATOM      1  C   UNL     1       3.124   6.235  17.934  0.00  0.00    +0.000 C 
ATOM      2  O   UNL     1       2.191   5.498  18.239  0.00  0.00    +0.000 OA
ATOM      3  N   UNL     1       3.103   7.622  18.026  0.00  0.00    +0.000 N 
ATOM      4  H   UNL     1       3.911   8.092  17.635  0.00  0.00    +0.000 HD
ENDROOT
BRANCH   1  10
ATOM      5  C   UNL     1       5.859   5.158  19.430  0.00  0.00    +0.000 C 
ATOM      6  C   UNL     1       5.518   5.260  17.994  0.00  0.00    +0.000 A 
ATOM      7  N   UNL     1       6.413   4.849  17.034  0.00  0.00    +0.000 NA
ATOM      8  C   UNL     1       5.780   5.037  15.893  0.00  0.00    +0.000 A 
ATOM      9  O   UNL     1       4.520   5.564  16.034  0.00  0.00    +0.000 OA
ATOM     10  C   UNL     1       4.359   5.707  17.392  0.00  0.00    +0.000 A 
BRANCH   8  11
ATOM     11  C   UNL     1       6.219   4.713  14.539  0.00  0.00    +0.000 A 
ATOM     12  C   UNL     1       7.367   5.333  14.018  0.00  0.00    +0.000 A 
ATOM     13  C   UNL     1       7.849   4.999  12.751  0.00  0.00    +0.000 A 
ATOM     14  C   UNL     1       7.186   4.044  11.984  0.00  0.00    +0.000 A 
ATOM     15  C   UNL     1       6.034   3.435  12.477  0.00  0.00    +0.000 A 
ATOM     16  C   UNL     1       5.551   3.770  13.745  0.00  0.00    +0.000 A 
ENDBRANCH   8  11
ENDBRANCH   1  10
BRANCH   3  17
ATOM     17  C   UNL     1       2.053   8.431  18.514  0.00  0.00    +0.000 A 
ATOM     18  C   UNL     1       1.272   9.251  17.698  0.00  0.00    +0.000 A 
ATOM     19  C   UNL     1       0.258  10.045  18.241  0.00  0.00    +0.000 A 
ATOM     20  C   UNL     1       0.014  10.030  19.610  0.00  0.00    +0.000 A 
ATOM     21  C   UNL     1       0.772   9.207  20.453  0.00  0.00    +0.000 A 
ATOM     22  C   UNL     1       1.783   8.400  19.892  0.00  0.00    +0.000 A 
BRANCH  21  23
ATOM     23  C   UNL     1       0.520   9.189  21.941  0.00  0.00    +0.000 C 
ATOM     24  F   UNL     1       1.607   8.824  22.677  0.00  0.00    +0.000 F 
ATOM     25  F   UNL     1       0.138  10.406  22.418  0.00  0.00    +0.000 F 
ATOM     26  F   UNL     1      -0.472   8.324  22.289  0.00  0.00    +0.000 F 
ENDBRANCH  21  23
ENDBRANCH   3  17
TORSDOF 4
ENDMDL
MODEL 5
REMARK VINA RESULT:      -8.1      0.931      1.202
REMARK  Name = 
REMARK  5 active torsions:
REMARK  status: ('A' for Active; 'I' for Inactive)
REMARK    1  A    between atoms: C_1  and  C_2
REMARK    2  A    between atoms: C_4  and  C_5
REMARK    3  A    between atoms: C_12  and  C_13
REMARK    4  A    between atoms: N_15  and  C_16
REMARK    5  A    between atoms: C_20  and  C_21
REMARK                            x       y       z     vdW  Elec       q    Type
REMARK                         _______ _______ _______ _____ _____    ______ ____
ROOT
ATOM      1  C   UNL     1       5.918   5.481  16.236  0.00  0.00    +0.000 C 
ATOM      2  O   UNL     1       5.771   6.603  15.760  0.00  0.00    +0.000 OA
ATOM      3  N   UNL     1       6.315   4.360  15.518  0.00  0.00    +0.000 N 
ATOM      4  H   UNL     1       6.286   3.486  16.032  0.00  0.00    +0.000 HD
ENDROOT
BRANCH   1  10
ATOM      5  C   UNL     1       7.708   6.046  18.949  0.00  0.00    +0.000 C 
ATOM      6  C   UNL     1       6.374   5.428  18.781  0.00  0.00    +0.000 A 
ATOM      7  N   UNL     1       5.664   4.994  19.875  0.00  0.00    +0.000 NA
ATOM      8  C   UNL     1       4.529   4.548  19.375  0.00  0.00    +0.000 A 
ATOM      9  O   UNL     1       4.445   4.644  18.008  0.00  0.00    +0.000 OA
ATOM     10  C   UNL     1       5.640   5.210  17.632  0.00  0.00    +0.000 A 
BRANCH   8  11
ATOM     11  C   UNL     1       3.361   4.027  20.079  0.00  0.00    +0.000 A 
ATOM     12  C   UNL     1       2.109   4.635  19.884  0.00  0.00    +0.000 A 
ATOM     13  C   UNL     1       0.961   4.123  20.492  0.00  0.00    +0.000 A 
ATOM     14  C   UNL     1       1.051   2.998  21.310  0.00  0.00    +0.000 A 
ATOM     15  C   UNL     1       2.287   2.396  21.531  0.00  0.00    +0.000 A 
ATOM     16  C   UNL     1       3.436   2.910  20.922  0.00  0.00    +0.000 A 
ENDBRANCH   8  11
ENDBRANCH   1  10
BRANCH   3  17
ATOM     17  C   UNL     1       6.659   4.297  14.150  0.00  0.00    +0.000 A 
ATOM     18  C   UNL     1       7.467   5.243  13.517  0.00  0.00    +0.000 A 
ATOM     19  C   UNL     1       7.758   5.140  12.154  0.00  0.00    +0.000 A 
ATOM     20  C   UNL     1       7.241   4.088  11.405  0.00  0.00    +0.000 A 
ATOM     21  C   UNL     1       6.438   3.115  12.016  0.00  0.00    +0.000 A 
ATOM     22  C   UNL     1       6.163   3.222  13.394  0.00  0.00    +0.000 A 
BRANCH  21  23
ATOM     23  C   UNL     1       5.867   1.974  11.211  0.00  0.00    +0.000 C 
ATOM     24  F   UNL     1       5.759   0.809  11.910  0.00  0.00    +0.000 F 
ATOM     25  F   UNL     1       4.616   2.243  10.741  0.00  0.00    +0.000 F 
ATOM     26  F   UNL     1       6.620   1.681  10.115  0.00  0.00    +0.000 F 
ENDBRANCH  21  23
ENDBRANCH   3  17
TORSDOF 4
ENDMDL
MODEL 6
REMARK VINA RESULT:      -8.0      0.913      1.156
REMARK  Name = 
REMARK  5 active torsions:
REMARK  status: ('A' for Active; 'I' for Inactive)
REMARK    1  A    between atoms: C_1  and  C_2
REMARK    2  A    between atoms: C_4  and  C_5
REMARK    3  A    between atoms: C_12  and  C_13
REMARK    4  A    between atoms: N_15  and  C_16
REMARK    5  A    between atoms: C_20  and  C_21
REMARK                            x       y       z     vdW  Elec       q    Type
REMARK                         _______ _______ _______ _____ _____    ______ ____
ROOT
ATOM      1  C   UNL     1       6.798   4.445  16.537  0.00  0.00    +0.000 C 
ATOM      2  O   UNL     1       8.011   4.351  16.379  0.00  0.00    +0.000 OA
ATOM      3  N   UNL     1       5.862   4.461  15.509  0.00  0.00    +0.000 N 
ATOM      4  H   UNL     1       4.909   4.653  15.797  0.00  0.00    +0.000 HD
ENDROOT
BRANCH   1  10
ATOM      5  C   UNL     1       7.878   6.050  19.209  0.00  0.00    +0.000 C 
ATOM      6  C   UNL     1       6.652   5.251  18.990  0.00  0.00    +0.000 A 
ATOM      7  N   UNL     1       5.729   5.099  19.997  0.00  0.00    +0.000 NA
ATOM      8  C   UNL     1       4.764   4.383  19.454  0.00  0.00    +0.000 A 
ATOM      9  O   UNL     1       4.996   4.033  18.147  0.00  0.00    +0.000 OA
ATOM     10  C   UNL     1       6.217   4.595  17.855  0.00  0.00    +0.000 A 
BRANCH   8  11
ATOM     11  C   UNL     1       3.491   3.970  20.038  0.00  0.00    +0.000 A 
ATOM     12  C   UNL     1       2.352   4.771  19.847  0.00  0.00    +0.000 A 
ATOM     13  C   UNL     1       1.107   4.374  20.338  0.00  0.00    +0.000 A 
ATOM     14  C   UNL     1       0.985   3.172  21.032  0.00  0.00    +0.000 A 
ATOM     15  C   UNL     1       2.108   2.376  21.248  0.00  0.00    +0.000 A 
ATOM     16  C   UNL     1       3.354   2.775  20.757  0.00  0.00    +0.000 A 
ENDBRANCH   8  11
ENDBRANCH   1  10
BRANCH   3  17
ATOM     17  C   UNL     1       6.110   4.334  14.124  0.00  0.00    +0.000 A 
ATOM     18  C   UNL     1       7.299   4.739  13.516  0.00  0.00    +0.000 A 
ATOM     19  C   UNL     1       7.480   4.605  12.137  0.00  0.00    +0.000 A 
ATOM     20  C   UNL     1       6.471   4.065  11.347  0.00  0.00    +0.000 A 
ATOM     21  C   UNL     1       5.271   3.636  11.931  0.00  0.00    +0.000 A 
ATOM     22  C   UNL     1       5.106   3.763  13.325  0.00  0.00    +0.000 A 
BRANCH  21  23
ATOM     23  C   UNL     1       4.167   3.055  11.082  0.00  0.00    +0.000 C 
ATOM     24  F   UNL     1       3.812   3.842  10.028  0.00  0.00    +0.000 F 
ATOM     25  F   UNL     1       4.503   1.847  10.548  0.00  0.00    +0.000 F 
ATOM     26  F   UNL     1       3.024   2.843  11.790  0.00  0.00    +0.000 F 
ENDBRANCH  21  23
ENDBRANCH   3  17
TORSDOF 4
ENDMDL
MODEL 7
REMARK VINA RESULT:      -7.9      6.438      9.294
REMARK  Name = 
REMARK  5 active torsions:
REMARK  status: ('A' for Active; 'I' for Inactive)
REMARK    1  A    between atoms: C_1  and  C_2
REMARK    2  A    between atoms: C_4  and  C_5
REMARK    3  A    between atoms: C_12  and  C_13
REMARK    4  A    between atoms: N_15  and  C_16
REMARK    5  A    between atoms: C_20  and  C_21
REMARK                            x       y       z     vdW  Elec       q    Type
REMARK                         _______ _______ _______ _____ _____    ______ ____
ROOT
ATOM      1  C   UNL     1       1.805   8.100  19.575  0.00  0.00    +0.000 C 
ATOM      2  O   UNL     1       1.512   8.385  20.732  0.00  0.00    +0.000 OA
ATOM      3  N   UNL     1       1.420   8.829  18.456  0.00  0.00    +0.000 N 
ATOM      4  H   UNL     1       1.651   8.404  17.565  0.00  0.00    +0.000 HD
ENDROOT
BRANCH   1  10
ATOM      5  C   UNL     1       1.574   5.011  20.708  0.00  0.00    +0.000 C 
ATOM      6  C   UNL     1       2.501   5.614  19.726  0.00  0.00    +0.000 A 
ATOM      7  N   UNL     1       3.458   4.846  19.107  0.00  0.00    +0.000 NA
ATOM      8  C   UNL     1       4.064   5.676  18.281  0.00  0.00    +0.000 A 
ATOM      9  O   UNL     1       3.578   6.959  18.324  0.00  0.00    +0.000 OA
ATOM     10  C   UNL     1       2.571   6.912  19.260  0.00  0.00    +0.000 A 
BRANCH   8  11
ATOM     11  C   UNL     1       5.122   5.397  17.315  0.00  0.00    +0.000 A 
ATOM     12  C   UNL     1       6.339   4.853  17.761  0.00  0.00    +0.000 A 
ATOM     13  C   UNL     1       7.347   4.517  16.855  0.00  0.00    +0.000 A 
ATOM     14  C   UNL     1       7.155   4.725  15.491  0.00  0.00    +0.000 A 
ATOM     15  C   UNL     1       5.963   5.283  15.035  0.00  0.00    +0.000 A 
ATOM     16  C   UNL     1       4.955   5.620  15.941  0.00  0.00    +0.000 A 
ENDBRANCH   8  11
ENDBRANCH   1  10
BRANCH   3  17
ATOM     17  C   UNL     1       0.674  10.028  18.431  0.00  0.00    +0.000 A 
ATOM     18  C   UNL     1       1.201  11.268  18.797  0.00  0.00    +0.000 A 
ATOM     19  C   UNL     1       0.409  12.419  18.770  0.00  0.00    +0.000 A 
ATOM     20  C   UNL     1      -0.924  12.344  18.378  0.00  0.00    +0.000 A 
ATOM     21  C   UNL     1      -1.476  11.116  17.991  0.00  0.00    +0.000 A 
ATOM     22  C   UNL     1      -0.664   9.964  18.008  0.00  0.00    +0.000 A 
BRANCH  21  23
ATOM     23  C   UNL     1      -2.922  11.022  17.569  0.00  0.00    +0.000 C 
ATOM     24  F   UNL     1      -3.745  11.880  18.236  0.00  0.00    +0.000 F 
ATOM     25  F   UNL     1      -3.096  11.292  16.245  0.00  0.00    +0.000 F 
ATOM     26  F   UNL     1      -3.442   9.780  17.768  0.00  0.00    +0.000 F 
ENDBRANCH  21  23
ENDBRANCH   3  17
TORSDOF 4
ENDMDL
MODEL 8
REMARK VINA RESULT:      -7.9      1.250      1.447
REMARK  Name = 
REMARK  5 active torsions:
REMARK  status: ('A' for Active; 'I' for Inactive)
REMARK    1  A    between atoms: C_1  and  C_2
REMARK    2  A    between atoms: C_4  and  C_5
REMARK    3  A    between atoms: C_12  and  C_13
REMARK    4  A    between atoms: N_15  and  C_16
REMARK    5  A    between atoms: C_20  and  C_21
REMARK                            x       y       z     vdW  Elec       q    Type
REMARK                         _______ _______ _______ _____ _____    ______ ____
ROOT
ATOM      1  C   UNL     1       5.976   5.375  16.288  0.00  0.00    +0.000 C 
ATOM      2  O   UNL     1       6.251   6.504  15.892  0.00  0.00    +0.000 OA
ATOM      3  N   UNL     1       5.867   4.253  15.476  0.00  0.00    +0.000 N 
ATOM      4  H   UNL     1       5.528   3.417  15.939  0.00  0.00    +0.000 HD
ENDROOT
BRANCH   1  10
ATOM      5  C   UNL     1       7.755   5.945  19.007  0.00  0.00    +0.000 C 
ATOM      6  C   UNL     1       6.419   5.333  18.836  0.00  0.00    +0.000 A 
ATOM      7  N   UNL     1       5.701   4.909  19.928  0.00  0.00    +0.000 NA
ATOM      8  C   UNL     1       4.566   4.467  19.425  0.00  0.00    +0.000 A 
ATOM      9  O   UNL     1       4.490   4.556  18.057  0.00  0.00    +0.000 OA
ATOM     10  C   UNL     1       5.690   5.114  17.683  0.00  0.00    +0.000 A 
BRANCH   8  11
ATOM     11  C   UNL     1       3.391   3.957  20.126  0.00  0.00    +0.000 A 
ATOM     12  C   UNL     1       2.151   4.593  19.949  0.00  0.00    +0.000 A 
ATOM     13  C   UNL     1       0.997   4.093  20.555  0.00  0.00    +0.000 A 
ATOM     14  C   UNL     1       1.068   2.952  21.351  0.00  0.00    +0.000 A 
ATOM     15  C   UNL     1       2.293   2.321  21.553  0.00  0.00    +0.000 A 
ATOM     16  C   UNL     1       3.448   2.822  20.948  0.00  0.00    +0.000 A 
ENDBRANCH   8  11
ENDBRANCH   1  10
BRANCH   3  17
ATOM     17  C   UNL     1       6.086   4.181  14.083  0.00  0.00    +0.000 A 
ATOM     18  C   UNL     1       7.286   4.551  13.473  0.00  0.00    +0.000 A 
ATOM     19  C   UNL     1       7.438   4.476  12.086  0.00  0.00    +0.000 A 
ATOM     20  C   UNL     1       6.389   4.030  11.289  0.00  0.00    +0.000 A 
ATOM     21  C   UNL     1       5.177   3.638  11.874  0.00  0.00    +0.000 A 
ATOM     22  C   UNL     1       5.040   3.705  13.275  0.00  0.00    +0.000 A 
BRANCH  21  23
ATOM     23  C   UNL     1       4.030   3.159  11.018  0.00  0.00    +0.000 C 
ATOM     24  F   UNL     1       4.288   1.998  10.353  0.00  0.00    +0.000 F 
ATOM     25  F   UNL     1       2.900   2.930  11.743  0.00  0.00    +0.000 F 
ATOM     26  F   UNL     1       3.681   4.064  10.062  0.00  0.00    +0.000 F 
ENDBRANCH  21  23
ENDBRANCH   3  17
TORSDOF 4
ENDMDL
MODEL 9
REMARK VINA RESULT:      -7.9      5.600      9.167
REMARK  Name = 
REMARK  5 active torsions:
REMARK  status: ('A' for Active; 'I' for Inactive)
REMARK    1  A    between atoms: C_1  and  C_2
REMARK    2  A    between atoms: C_4  and  C_5
REMARK    3  A    between atoms: C_12  and  C_13
REMARK    4  A    between atoms: N_15  and  C_16
REMARK    5  A    between atoms: C_20  and  C_21
REMARK                            x       y       z     vdW  Elec       q    Type
REMARK                         _______ _______ _______ _____ _____    ______ ____
ROOT
ATOM      1  C   UNL     1       1.901   5.832  20.287  0.00  0.00    +0.000 C 
ATOM      2  O   UNL     1       0.846   5.393  20.736  0.00  0.00    +0.000 OA
ATOM      3  N   UNL     1       2.232   7.180  20.213  0.00  0.00    +0.000 N 
ATOM      4  H   UNL     1       3.093   7.385  19.719  0.00  0.00    +0.000 HD
ENDROOT
BRANCH   1  10
ATOM      5  C   UNL     1       2.842   2.796  21.171  0.00  0.00    +0.000 C 
ATOM      6  C   UNL     1       3.331   3.686  20.095  0.00  0.00    +0.000 A 
ATOM      7  N   UNL     1       4.334   3.273  19.250  0.00  0.00    +0.000 NA
ATOM      8  C   UNL     1       4.486   4.273  18.405  0.00  0.00    +0.000 A 
ATOM      9  O   UNL     1       3.653   5.338  18.645  0.00  0.00    +0.000 OA
ATOM     10  C   UNL     1       2.913   4.953  19.738  0.00  0.00    +0.000 A 
BRANCH   8  11
ATOM     11  C   UNL     1       5.367   4.366  17.245  0.00  0.00    +0.000 A 
ATOM     12  C   UNL     1       4.835   4.190  15.957  0.00  0.00    +0.000 A 
ATOM     13  C   UNL     1       5.638   4.334  14.824  0.00  0.00    +0.000 A 
ATOM     14  C   UNL     1       6.988   4.651  14.964  0.00  0.00    +0.000 A 
ATOM     15  C   UNL     1       7.536   4.808  16.235  0.00  0.00    +0.000 A 
ATOM     16  C   UNL     1       6.732   4.663  17.368  0.00  0.00    +0.000 A 
ENDBRANCH   8  11
ENDBRANCH   1  10
BRANCH   3  17
ATOM     17  C   UNL     1       1.464   8.276  20.663  0.00  0.00    +0.000 A 
ATOM     18  C   UNL     1       1.320   8.611  22.010  0.00  0.00    +0.000 A 
ATOM     19  C   UNL     1       0.530   9.697  22.397  0.00  0.00    +0.000 A 
ATOM     20  C   UNL     1      -0.129  10.462  21.440  0.00  0.00    +0.000 A 
ATOM     21  C   UNL     1       0.008  10.157  20.079  0.00  0.00    +0.000 A 
ATOM     22  C   UNL     1       0.819   9.069  19.699  0.00  0.00    +0.000 A 
BRANCH  21  23
ATOM     23  C   UNL     1      -0.707  10.976  19.032  0.00  0.00    +0.000 C 
ATOM     24  F   UNL     1      -1.272  10.229  18.043  0.00  0.00    +0.000 F 
ATOM     25  F   UNL     1      -1.718  11.723  19.558  0.00  0.00    +0.000 F 
ATOM     26  F   UNL     1       0.120  11.858  18.406  0.00  0.00    +0.000 F 
ENDBRANCH  21  23
ENDBRANCH   3  17
TORSDOF 4
ENDMDL
