MODEL 1
REMARK VINA RESULT:      -8.4      0.000      0.000
REMARK  Name = 
REMARK  5 active torsions:
REMARK  status: ('A' for Active; 'I' for Inactive)
REMARK    1  A    between atoms: C_1  and  N_2
REMARK    2  A    between atoms: C_6  and  C_7
REMARK    3  A    between atoms: C_7  and  C_8
REMARK    4  A    between atoms: C_8  and  C_9
REMARK    5  A    between atoms: C_20  and  C_21
REMARK                            x       y       z     vdW  Elec       q    Type
REMARK                         _______ _______ _______ _____ _____    ______ ____
ROOT
ATOM      1  C   UNL     1      -3.212  12.490  20.160  0.00  0.00    +0.000 A 
ATOM      2  C   UNL     1      -2.949  12.319  18.792  0.00  0.00    +0.000 A 
ATOM      3  C   UNL     1      -1.675  11.977  18.330  0.00  0.00    +0.000 A 
ATOM      4  C   UNL     1      -0.642  11.734  19.235  0.00  0.00    +0.000 A 
ATOM      5  C   UNL     1      -0.899  11.852  20.600  0.00  0.00    +0.000 A 
ATOM      6  C   UNL     1      -2.136  12.294  21.043  0.00  0.00    +0.000 A 
ATOM      7  N   UNL     1       0.020  11.443  21.579  0.00  0.00    +0.000 N 
ATOM      8  C   UNL     1       0.440  10.130  21.625  0.00  0.00    +0.000 C 
ATOM      9  O   UNL     1       0.386   9.559  22.715  0.00  0.00    +0.000 OA
ATOM     10  C   UNL     1       0.972   9.416  20.425  0.00  0.00    +0.000 A 
ATOM     11  C   UNL     1       1.391   8.089  20.649  0.00  0.00    +0.000 A 
ATOM     12  C   UNL     1       2.006   7.334  19.643  0.00  0.00    +0.000 A 
ATOM     13  C   UNL     1       2.182   7.910  18.379  0.00  0.00    +0.000 A 
ATOM     14  C   UNL     1       1.754   9.213  18.139  0.00  0.00    +0.000 A 
ATOM     15  C   UNL     1       1.149   9.975  19.150  0.00  0.00    +0.000 A 
ATOM     16  C   UNL     1       0.749  11.390  18.803  0.00  0.00    +0.000 C 
ATOM     17  H   UNL     1      -0.244  11.695  22.526  0.00  0.00    +0.000 HD
ENDROOT
BRANCH   1  18
ATOM     18  C   UNL     1      -4.651  12.823  20.757  0.00  0.00    +0.000 C 
ATOM     19  C   UNL     1      -5.443  14.032  20.183  0.00  0.00    +0.000 C 
ATOM     20  O   UNL     1      -6.493  13.193  19.655  0.00  0.00    +0.000 OA
ATOM     21  C   UNL     1      -5.804  12.002  20.066  0.00  0.00    +0.000 C 
BRANCH  18  22
ATOM     22  C   UNL     1      -4.633  12.687  22.306  0.00  0.00    +0.000 C 
BRANCH  22  28
ATOM     23  C   UNL     1      -5.819  15.458  23.719  0.00  0.00    +0.000 C 
ATOM     24  N   UNL     1      -6.380  14.138  23.620  0.00  0.00    +0.000 N 
ATOM     25  C   UNL     1      -7.574  13.841  24.203  0.00  0.00    +0.000 A 
ATOM     26  N   UNL     1      -7.840  12.585  24.025  0.00  0.00    +0.000 NA
ATOM     27  N   UNL     1      -6.819  12.024  23.301  0.00  0.00    +0.000 NA
ATOM     28  C   UNL     1      -5.931  12.965  23.026  0.00  0.00    +0.000 A 
ENDBRANCH  22  28
ENDBRANCH  18  22
ENDBRANCH   1  18
BRANCH  12  29
ATOM     29  C   UNL     1       2.493   5.932  19.910  0.00  0.00    +0.000 C 
ATOM     30  F   UNL     1       2.110   5.441  21.120  0.00  0.00    +0.000 F 
ATOM     31  F   UNL     1       2.044   5.042  18.984  0.00  0.00    +0.000 F 
ATOM     32  F   UNL     1       3.851   5.846  19.885  0.00  0.00    +0.000 F 
ENDBRANCH  12  29
TORSDOF 4
ENDMDL
MODEL 2
REMARK VINA RESULT:      -8.3      1.615      2.009
REMARK  Name = 
REMARK  5 active torsions:
REMARK  status: ('A' for Active; 'I' for Inactive)
REMARK    1  A    between atoms: C_1  and  N_2
REMARK    2  A    between atoms: C_6  and  C_7
REMARK    3  A    between atoms: C_7  and  C_8
REMARK    4  A    between atoms: C_8  and  C_9
REMARK    5  A    between atoms: C_20  and  C_21
REMARK                            x       y       z     vdW  Elec       q    Type
REMARK                         _______ _______ _______ _____ _____    ______ ____
ROOT
ATOM      1  C   UNL     1      -2.248  12.190  19.967  0.00  0.00    +0.000 A 
ATOM      2  C   UNL     1      -2.190  11.763  18.632  0.00  0.00    +0.000 A 
ATOM      3  C   UNL     1      -1.044  11.160  18.107  0.00  0.00    +0.000 A 
ATOM      4  C   UNL     1       0.057  10.910  18.926  0.00  0.00    +0.000 A 
ATOM      5  C   UNL     1      -0.002  11.285  20.267  0.00  0.00    +0.000 A 
ATOM      6  C   UNL     1      -1.101  11.977  20.753  0.00  0.00    +0.000 A 
ATOM      7  N   UNL     1       0.974  10.904  21.201  0.00  0.00    +0.000 N 
ATOM      8  C   UNL     1       1.218   9.567  21.436  0.00  0.00    +0.000 C 
ATOM      9  O   UNL     1       1.232   9.194  22.610  0.00  0.00    +0.000 OA
ATOM     10  C   UNL     1       1.490   8.596  20.334  0.00  0.00    +0.000 A 
ATOM     11  C   UNL     1       1.754   7.273  20.745  0.00  0.00    +0.000 A 
ATOM     12  C   UNL     1       2.127   6.281  19.831  0.00  0.00    +0.000 A 
ATOM     13  C   UNL     1       2.212   6.611  18.474  0.00  0.00    +0.000 A 
ATOM     14  C   UNL     1       1.933   7.909  18.051  0.00  0.00    +0.000 A 
ATOM     15  C   UNL     1       1.572   8.908  18.968  0.00  0.00    +0.000 A 
ATOM     16  C   UNL     1       1.321  10.293  18.418  0.00  0.00    +0.000 C 
ATOM     17  H   UNL     1       0.872  11.343  22.111  0.00  0.00    +0.000 HD
ENDROOT
BRANCH   1  18
ATOM     18  C   UNL     1      -3.539  12.832  20.644  0.00  0.00    +0.000 C 
ATOM     19  C   UNL     1      -3.705  12.740  22.187  0.00  0.00    +0.000 C 
ATOM     20  O   UNL     1      -3.612  14.170  22.361  0.00  0.00    +0.000 OA
ATOM     21  C   UNL     1      -3.365  14.366  20.960  0.00  0.00    +0.000 C 
BRANCH  18  22
ATOM     22  C   UNL     1      -4.803  12.512  19.797  0.00  0.00    +0.000 C 
BRANCH  22  28
ATOM     23  C   UNL     1      -6.985  14.604  21.190  0.00  0.00    +0.000 C 
ATOM     24  N   UNL     1      -6.959  13.168  21.142  0.00  0.00    +0.000 N 
ATOM     25  C   UNL     1      -7.911  12.430  21.775  0.00  0.00    +0.000 A 
ATOM     26  N   UNL     1      -7.644  11.170  21.636  0.00  0.00    +0.000 NA
ATOM     27  N   UNL     1      -6.501  11.049  20.887  0.00  0.00    +0.000 NA
ATOM     28  C   UNL     1      -6.084  12.261  20.558  0.00  0.00    +0.000 A 
ENDBRANCH  22  28
ENDBRANCH  18  22
ENDBRANCH   1  18
BRANCH  12  29
ATOM     29  C   UNL     1       2.454   4.883  20.291  0.00  0.00    +0.000 C 
ATOM     30  F   UNL     1       1.572   3.943  19.856  0.00  0.00    +0.000 F 
ATOM     31  F   UNL     1       3.681   4.472  19.869  0.00  0.00    +0.000 F 
ATOM     32  F   UNL     1       2.471   4.778  21.649  0.00  0.00    +0.000 F 
ENDBRANCH  12  29
TORSDOF 4
ENDMDL
MODEL 3
REMARK VINA RESULT:      -8.3      1.627      2.389
REMARK  Name = 
REMARK  5 active torsions:
REMARK  status: ('A' for Active; 'I' for Inactive)
REMARK    1  A    between atoms: C_1  and  N_2
REMARK    2  A    between atoms: C_6  and  C_7
REMARK    3  A    between atoms: C_7  and  C_8
REMARK    4  A    between atoms: C_8  and  C_9
REMARK    5  A    between atoms: C_20  and  C_21
REMARK                            x       y       z     vdW  Elec       q    Type
REMARK                         _______ _______ _______ _____ _____    ______ ____
ROOT
ATOM      1  C   UNL     1      -2.742  12.489  20.056  0.00  0.00    +0.000 A 
ATOM      2  C   UNL     1      -2.647  12.142  18.699  0.00  0.00    +0.000 A 
ATOM      3  C   UNL     1      -1.454  11.664  18.150  0.00  0.00    +0.000 A 
ATOM      4  C   UNL     1      -0.339  11.460  18.961  0.00  0.00    +0.000 A 
ATOM      5  C   UNL     1      -0.431  11.754  20.321  0.00  0.00    +0.000 A 
ATOM      6  C   UNL     1      -1.583  12.327  20.836  0.00  0.00    +0.000 A 
ATOM      7  N   UNL     1       0.571  11.403  21.238  0.00  0.00    +0.000 N 
ATOM      8  C   UNL     1       0.923  10.079  21.402  0.00  0.00    +0.000 C 
ATOM      9  O   UNL     1       0.965   9.645  22.554  0.00  0.00    +0.000 OA
ATOM     10  C   UNL     1       1.275   9.195  20.249  0.00  0.00    +0.000 A 
ATOM     11  C   UNL     1       1.646   7.878  20.589  0.00  0.00    +0.000 A 
ATOM     12  C   UNL     1       2.100   6.971  19.625  0.00  0.00    +0.000 A 
ATOM     13  C   UNL     1       2.160   7.381  18.288  0.00  0.00    +0.000 A 
ATOM     14  C   UNL     1       1.778   8.674  17.935  0.00  0.00    +0.000 A 
ATOM     15  C   UNL     1       1.334   9.588  18.904  0.00  0.00    +0.000 A 
ATOM     16  C   UNL     1       0.973  10.976  18.428  0.00  0.00    +0.000 C 
ATOM     17  H   UNL     1       0.432  11.781  22.170  0.00  0.00    +0.000 HD
ENDROOT
BRANCH   1  18
ATOM     18  C   UNL     1      -4.082  12.986  20.758  0.00  0.00    +0.000 C 
ATOM     19  C   UNL     1      -4.384  12.529  22.214  0.00  0.00    +0.000 C 
ATOM     20  O   UNL     1      -4.295  13.872  22.736  0.00  0.00    +0.000 OA
ATOM     21  C   UNL     1      -3.925  14.392  21.451  0.00  0.00    +0.000 C 
BRANCH  18  22
ATOM     22  C   UNL     1      -5.270  12.915  19.757  0.00  0.00    +0.000 C 
BRANCH  22  28
ATOM     23  C   UNL     1      -7.902  12.431  21.736  0.00  0.00    +0.000 C 
ATOM     24  N   UNL     1      -7.290  11.573  20.758  0.00  0.00    +0.000 N 
ATOM     25  C   UNL     1      -7.752  10.310  20.550  0.00  0.00    +0.000 A 
ATOM     26  N   UNL     1      -7.010   9.719  19.667  0.00  0.00    +0.000 NA
ATOM     27  N   UNL     1      -6.037  10.597  19.261  0.00  0.00    +0.000 NA
ATOM     28  C   UNL     1      -6.210  11.742  19.901  0.00  0.00    +0.000 A 
ENDBRANCH  22  28
ENDBRANCH  18  22
ENDBRANCH   1  18
BRANCH  12  29
ATOM     29  C   UNL     1       2.539   5.581  20.010  0.00  0.00    +0.000 C 
ATOM     30  F   UNL     1       3.889   5.416  20.019  0.00  0.00    +0.000 F 
ATOM     31  F   UNL     1       2.108   5.227  21.251  0.00  0.00    +0.000 F 
ATOM     32  F   UNL     1       2.053   4.634  19.160  0.00  0.00    +0.000 F 
ENDBRANCH  12  29
TORSDOF 4
ENDMDL
MODEL 4
REMARK VINA RESULT:      -8.2      1.562      2.348
REMARK  Name = 
REMARK  5 active torsions:
REMARK  status: ('A' for Active; 'I' for Inactive)
REMARK    1  A    between atoms: C_1  and  N_2
REMARK    2  A    between atoms: C_6  and  C_7
REMARK    3  A    between atoms: C_7  and  C_8
REMARK    4  A    between atoms: C_8  and  C_9
REMARK    5  A    between atoms: C_20  and  C_21
REMARK                            x       y       z     vdW  Elec       q    Type
REMARK                         _______ _______ _______ _____ _____    ______ ____
ROOT
ATOM      1  C   UNL     1      -2.562  12.460  20.327  0.00  0.00    +0.000 A 
ATOM      2  C   UNL     1      -2.498  12.137  18.962  0.00  0.00    +0.000 A 
ATOM      3  C   UNL     1      -1.333  11.623  18.387  0.00  0.00    +0.000 A 
ATOM      4  C   UNL     1      -0.216  11.357  19.180  0.00  0.00    +0.000 A 
ATOM      5  C   UNL     1      -0.280  11.627  20.546  0.00  0.00    +0.000 A 
ATOM      6  C   UNL     1      -1.401  12.235  21.088  0.00  0.00    +0.000 A 
ATOM      7  N   UNL     1       0.718  11.216  21.443  0.00  0.00    +0.000 N 
ATOM      8  C   UNL     1       1.018   9.876  21.575  0.00  0.00    +0.000 C 
ATOM      9  O   UNL     1       1.056   9.417  22.717  0.00  0.00    +0.000 OA
ATOM     10  C   UNL     1       1.320   9.003  20.401  0.00  0.00    +0.000 A 
ATOM     11  C   UNL     1       1.640   7.665  20.709  0.00  0.00    +0.000 A 
ATOM     12  C   UNL     1       2.045   6.760  19.721  0.00  0.00    +0.000 A 
ATOM     13  C   UNL     1       2.106   7.196  18.392  0.00  0.00    +0.000 A 
ATOM     14  C   UNL     1       1.772   8.510  18.070  0.00  0.00    +0.000 A 
ATOM     15  C   UNL     1       1.378   9.421  19.063  0.00  0.00    +0.000 A 
ATOM     16  C   UNL     1       1.068  10.832  18.620  0.00  0.00    +0.000 C 
ATOM     17  H   UNL     1       0.606  11.581  22.384  0.00  0.00    +0.000 HD
ENDROOT
BRANCH   1  18
ATOM     18  C   UNL     1      -3.873  12.996  21.057  0.00  0.00    +0.000 C 
ATOM     19  C   UNL     1      -4.084  12.666  22.561  0.00  0.00    +0.000 C 
ATOM     20  O   UNL     1      -3.996  14.052  22.957  0.00  0.00    +0.000 OA
ATOM     21  C   UNL     1      -3.707  14.461  21.612  0.00  0.00    +0.000 C 
BRANCH  18  22
ATOM     22  C   UNL     1      -5.111  12.817  20.134  0.00  0.00    +0.000 C 
BRANCH  22  28
ATOM     23  C   UNL     1      -6.682  10.276  18.665  0.00  0.00    +0.000 C 
ATOM     24  N   UNL     1      -6.842  10.851  19.973  0.00  0.00    +0.000 N 
ATOM     25  C   UNL     1      -7.796  10.389  20.827  0.00  0.00    +0.000 A 
ATOM     26  N   UNL     1      -7.782  11.097  21.912  0.00  0.00    +0.000 NA
ATOM     27  N   UNL     1      -6.796  12.045  21.799  0.00  0.00    +0.000 NA
ATOM     28  C   UNL     1      -6.198  11.892  20.629  0.00  0.00    +0.000 A 
ENDBRANCH  22  28
ENDBRANCH  18  22
ENDBRANCH   1  18
BRANCH  12  29
ATOM     29  C   UNL     1       2.432   5.346  20.072  0.00  0.00    +0.000 C 
ATOM     30  F   UNL     1       2.301   5.055  21.394  0.00  0.00    +0.000 F 
ATOM     31  F   UNL     1       1.683   4.424  19.408  0.00  0.00    +0.000 F 
ATOM     32  F   UNL     1       3.728   5.073  19.757  0.00  0.00    +0.000 F 
ENDBRANCH  12  29
TORSDOF 4
ENDMDL
MODEL 5
REMARK VINA RESULT:      -8.2      5.792     10.801
REMARK  Name = 
REMARK  5 active torsions:
REMARK  status: ('A' for Active; 'I' for Inactive)
REMARK    1  A    between atoms: C_1  and  N_2
REMARK    2  A    between atoms: C_6  and  C_7
REMARK    3  A    between atoms: C_7  and  C_8
REMARK    4  A    between atoms: C_8  and  C_9
REMARK    5  A    between atoms: C_20  and  C_21
REMARK                            x       y       z     vdW  Elec       q    Type
REMARK                         _______ _______ _______ _____ _____    ______ ____
ROOT
ATOM      1  C   UNL     1       2.746   4.701  19.142  0.00  0.00    +0.000 A 
ATOM      2  C   UNL     1       1.983   4.660  20.320  0.00  0.00    +0.000 A 
ATOM      3  C   UNL     1       1.638   5.827  21.007  0.00  0.00    +0.000 A 
ATOM      4  C   UNL     1       1.994   7.075  20.496  0.00  0.00    +0.000 A 
ATOM      5  C   UNL     1       2.711   7.135  19.302  0.00  0.00    +0.000 A 
ATOM      6  C   UNL     1       3.140   5.971  18.684  0.00  0.00    +0.000 A 
ATOM      7  N   UNL     1       2.944   8.340  18.621  0.00  0.00    +0.000 N 
ATOM      8  C   UNL     1       1.880   9.105  18.189  0.00  0.00    +0.000 C 
ATOM      9  O   UNL     1       1.894   9.478  17.016  0.00  0.00    +0.000 OA
ATOM     10  C   UNL     1       0.761   9.505  19.095  0.00  0.00    +0.000 A 
ATOM     11  C   UNL     1      -0.231  10.316  18.506  0.00  0.00    +0.000 A 
ATOM     12  C   UNL     1      -1.283  10.851  19.259  0.00  0.00    +0.000 A 
ATOM     13  C   UNL     1      -1.359  10.549  20.623  0.00  0.00    +0.000 A 
ATOM     14  C   UNL     1      -0.397   9.732  21.213  0.00  0.00    +0.000 A 
ATOM     15  C   UNL     1       0.665   9.205  20.462  0.00  0.00    +0.000 A 
ATOM     16  C   UNL     1       1.677   8.358  21.198  0.00  0.00    +0.000 C 
ATOM     17  H   UNL     1       3.578   8.256  17.833  0.00  0.00    +0.000 HD
ENDROOT
BRANCH   1  18
ATOM     18  C   UNL     1       3.127   3.416  18.280  0.00  0.00    +0.000 C 
ATOM     19  C   UNL     1       3.570   2.120  19.017  0.00  0.00    +0.000 C 
ATOM     20  O   UNL     1       2.422   1.374  18.558  0.00  0.00    +0.000 OA
ATOM     21  C   UNL     1       1.874   2.534  17.913  0.00  0.00    +0.000 C 
BRANCH  18  22
ATOM     22  C   UNL     1       3.979   3.831  17.047  0.00  0.00    +0.000 C 
BRANCH  22  28
ATOM     23  C   UNL     1       6.519   4.392  14.971  0.00  0.00    +0.000 C 
ATOM     24  N   UNL     1       6.462   4.387  16.407  0.00  0.00    +0.000 N 
ATOM     25  C   UNL     1       7.583   4.590  17.152  0.00  0.00    +0.000 A 
ATOM     26  N   UNL     1       7.290   4.484  18.410  0.00  0.00    +0.000 NA
ATOM     27  N   UNL     1       5.949   4.218  18.522  0.00  0.00    +0.000 NA
ATOM     28  C   UNL     1       5.425   4.179  17.308  0.00  0.00    +0.000 A 
ENDBRANCH  22  28
ENDBRANCH  18  22
ENDBRANCH   1  18
BRANCH  12  29
ATOM     29  C   UNL     1      -2.310  11.756  18.626  0.00  0.00    +0.000 C 
ATOM     30  F   UNL     1      -2.570  12.879  19.349  0.00  0.00    +0.000 F 
ATOM     31  F   UNL     1      -1.933  12.184  17.391  0.00  0.00    +0.000 F 
ATOM     32  F   UNL     1      -3.510  11.135  18.458  0.00  0.00    +0.000 F 
ENDBRANCH  12  29
TORSDOF 4
ENDMDL
MODEL 6
REMARK VINA RESULT:      -8.2      4.052      5.635
REMARK  Name = 
REMARK  5 active torsions:
REMARK  status: ('A' for Active; 'I' for Inactive)
REMARK    1  A    between atoms: C_1  and  N_2
REMARK    2  A    between atoms: C_6  and  C_7
REMARK    3  A    between atoms: C_7  and  C_8
REMARK    4  A    between atoms: C_8  and  C_9
REMARK    5  A    between atoms: C_20  and  C_21
REMARK                            x       y       z     vdW  Elec       q    Type
REMARK                         _______ _______ _______ _____ _____    ______ ____
ROOT
ATOM      1  C   UNL     1       0.182  10.113  18.895  0.00  0.00    +0.000 A 
ATOM      2  C   UNL     1       0.858  10.107  17.665  0.00  0.00    +0.000 A 
ATOM      3  C   UNL     1       2.001   9.329  17.464  0.00  0.00    +0.000 A 
ATOM      4  C   UNL     1       2.462   8.484  18.473  0.00  0.00    +0.000 A 
ATOM      5  C   UNL     1       1.774   8.442  19.685  0.00  0.00    +0.000 A 
ATOM      6  C   UNL     1       0.705   9.295  19.912  0.00  0.00    +0.000 A 
ATOM      7  N   UNL     1       2.050   7.489  20.677  0.00  0.00    +0.000 N 
ATOM      8  C   UNL     1       1.927   6.144  20.396  0.00  0.00    +0.000 C 
ATOM      9  O   UNL     1       1.272   5.462  21.184  0.00  0.00    +0.000 OA
ATOM     10  C   UNL     1       2.579   5.511  19.209  0.00  0.00    +0.000 A 
ATOM     11  C   UNL     1       2.383   4.120  19.084  0.00  0.00    +0.000 A 
ATOM     12  C   UNL     1       3.018   3.377  18.082  0.00  0.00    +0.000 A 
ATOM     13  C   UNL     1       3.845   4.043  17.170  0.00  0.00    +0.000 A 
ATOM     14  C   UNL     1       4.030   5.420  17.270  0.00  0.00    +0.000 A 
ATOM     15  C   UNL     1       3.405   6.164  18.282  0.00  0.00    +0.000 A 
ATOM     16  C   UNL     1       3.693   7.646  18.328  0.00  0.00    +0.000 C 
ATOM     17  H   UNL     1       1.560   7.647  21.552  0.00  0.00    +0.000 HD
ENDROOT
BRANCH   1  18
ATOM     18  C   UNL     1      -1.156  10.932  19.174  0.00  0.00    +0.000 C 
ATOM     19  C   UNL     1      -1.325  11.657  20.539  0.00  0.00    +0.000 C 
ATOM     20  O   UNL     1      -1.335  12.966  19.930  0.00  0.00    +0.000 OA
ATOM     21  C   UNL     1      -1.093  12.409  18.630  0.00  0.00    +0.000 C 
BRANCH  18  22
ATOM     22  C   UNL     1      -2.389  10.133  18.664  0.00  0.00    +0.000 C 
BRANCH  22  28
ATOM     23  C   UNL     1      -4.977  11.828  17.435  0.00  0.00    +0.000 C 
ATOM     24  N   UNL     1      -3.931  11.098  16.773  0.00  0.00    +0.000 N 
ATOM     25  C   UNL     1      -3.917  10.972  15.417  0.00  0.00    +0.000 A 
ATOM     26  N   UNL     1      -2.916  10.230  15.063  0.00  0.00    +0.000 NA
ATOM     27  N   UNL     1      -2.233   9.855  16.193  0.00  0.00    +0.000 NA
ATOM     28  C   UNL     1      -2.828  10.397  17.243  0.00  0.00    +0.000 A 
ENDBRANCH  22  28
ENDBRANCH  18  22
ENDBRANCH   1  18
BRANCH  12  29
ATOM     29  C   UNL     1       2.838   1.883  17.989  0.00  0.00    +0.000 C 
ATOM     30  F   UNL     1       2.177   1.479  16.871  0.00  0.00    +0.000 F 
ATOM     31  F   UNL     1       4.025   1.218  17.986  0.00  0.00    +0.000 F 
ATOM     32  F   UNL     1       2.132   1.384  19.041  0.00  0.00    +0.000 F 
ENDBRANCH  12  29
TORSDOF 4
ENDMDL
MODEL 7
REMARK VINA RESULT:      -8.1      5.082      9.510
REMARK  Name = 
REMARK  5 active torsions:
REMARK  status: ('A' for Active; 'I' for Inactive)
REMARK    1  A    between atoms: C_1  and  N_2
REMARK    2  A    between atoms: C_6  and  C_7
REMARK    3  A    between atoms: C_7  and  C_8
REMARK    4  A    between atoms: C_8  and  C_9
REMARK    5  A    between atoms: C_20  and  C_21
REMARK                            x       y       z     vdW  Elec       q    Type
REMARK                         _______ _______ _______ _____ _____    ______ ____
ROOT
ATOM      1  C   UNL     1       1.820   7.747  19.989  0.00  0.00    +0.000 A 
ATOM      2  C   UNL     1       1.582   8.118  21.322  0.00  0.00    +0.000 A 
ATOM      3  C   UNL     1       1.086   9.383  21.650  0.00  0.00    +0.000 A 
ATOM      4  C   UNL     1       0.753  10.289  20.644  0.00  0.00    +0.000 A 
ATOM      5  C   UNL     1       0.938   9.919  19.314  0.00  0.00    +0.000 A 
ATOM      6  C   UNL     1       1.530   8.705  19.001  0.00  0.00    +0.000 A 
ATOM      7  N   UNL     1       0.456  10.687  18.242  0.00  0.00    +0.000 N 
ATOM      8  C   UNL     1      -0.894  10.947  18.132  0.00  0.00    +0.000 C 
ATOM      9  O   UNL     1      -1.424  10.724  17.043  0.00  0.00    +0.000 OA
ATOM     10  C   UNL     1      -1.698  11.505  19.261  0.00  0.00    +0.000 A 
ATOM     11  C   UNL     1      -3.057  11.745  18.975  0.00  0.00    +0.000 A 
ATOM     12  C   UNL     1      -3.905  12.362  19.902  0.00  0.00    +0.000 A 
ATOM     13  C   UNL     1      -3.389  12.723  21.152  0.00  0.00    +0.000 A 
ATOM     14  C   UNL     1      -2.052  12.473  21.456  0.00  0.00    +0.000 A 
ATOM     15  C   UNL     1      -1.199  11.866  20.522  0.00  0.00    +0.000 A 
ATOM     16  C   UNL     1       0.242  11.666  20.932  0.00  0.00    +0.000 C 
ATOM     17  H   UNL     1       0.763  10.364  17.329  0.00  0.00    +0.000 HD
ENDROOT
BRANCH   1  18
ATOM     18  C   UNL     1       2.331   6.306  19.542  0.00  0.00    +0.000 C 
ATOM     19  C   UNL     1       2.313   5.936  18.031  0.00  0.00    +0.000 C 
ATOM     20  O   UNL     1       3.751   5.833  17.960  0.00  0.00    +0.000 OA
ATOM     21  C   UNL     1       3.890   6.250  19.327  0.00  0.00    +0.000 C 
BRANCH  18  22
ATOM     22  C   UNL     1       1.799   5.221  20.520  0.00  0.00    +0.000 C 
BRANCH  22  28
ATOM     23  C   UNL     1       3.909   2.715  19.933  0.00  0.00    +0.000 C 
ATOM     24  N   UNL     1       2.495   2.828  19.701  0.00  0.00    +0.000 N 
ATOM     25  C   UNL     1       1.802   1.819  19.105  0.00  0.00    +0.000 A 
ATOM     26  N   UNL     1       0.565   2.175  18.955  0.00  0.00    +0.000 NA
ATOM     27  N   UNL     1       0.412   3.438  19.467  0.00  0.00    +0.000 NA
ATOM     28  C   UNL     1       1.577   3.841  19.948  0.00  0.00    +0.000 A 
ENDBRANCH  22  28
ENDBRANCH  18  22
ENDBRANCH   1  18
BRANCH  12  29
ATOM     29  C   UNL     1      -5.344  12.656  19.564  0.00  0.00    +0.000 C 
ATOM     30  F   UNL     1      -6.227  11.780  20.117  0.00  0.00    +0.000 F 
ATOM     31  F   UNL     1      -5.732  13.893  19.980  0.00  0.00    +0.000 F 
ATOM     32  F   UNL     1      -5.575  12.623  18.223  0.00  0.00    +0.000 F 
ENDBRANCH  12  29
TORSDOF 4
ENDMDL
MODEL 8
REMARK VINA RESULT:      -8.0      0.611      1.134
REMARK  Name = 
REMARK  5 active torsions:
REMARK  status: ('A' for Active; 'I' for Inactive)
REMARK    1  A    between atoms: C_1  and  N_2
REMARK    2  A    between atoms: C_6  and  C_7
REMARK    3  A    between atoms: C_7  and  C_8
REMARK    4  A    between atoms: C_8  and  C_9
REMARK    5  A    between atoms: C_20  and  C_21
REMARK                            x       y       z     vdW  Elec       q    Type
REMARK                         _______ _______ _______ _____ _____    ______ ____
ROOT
ATOM      1  C   UNL     1      -3.085  12.396  20.048  0.00  0.00    +0.000 A 
ATOM      2  C   UNL     1      -2.902  12.126  18.683  0.00  0.00    +0.000 A 
ATOM      3  C   UNL     1      -1.657  11.748  18.174  0.00  0.00    +0.000 A 
ATOM      4  C   UNL     1      -0.572  11.568  19.031  0.00  0.00    +0.000 A 
ATOM      5  C   UNL     1      -0.749  11.785  20.397  0.00  0.00    +0.000 A 
ATOM      6  C   UNL     1      -1.958  12.262  20.879  0.00  0.00    +0.000 A 
ATOM      7  N   UNL     1       0.227  11.446  21.347  0.00  0.00    +0.000 N 
ATOM      8  C   UNL     1       0.651  10.138  21.463  0.00  0.00    +0.000 C 
ATOM      9  O   UNL     1       0.662   9.648  22.593  0.00  0.00    +0.000 OA
ATOM     10  C   UNL     1       1.113   9.338  20.289  0.00  0.00    +0.000 A 
ATOM     11  C   UNL     1       1.546   8.029  20.583  0.00  0.00    +0.000 A 
ATOM     12  C   UNL     1       2.102   7.202  19.600  0.00  0.00    +0.000 A 
ATOM     13  C   UNL     1       2.203   7.685  18.290  0.00  0.00    +0.000 A 
ATOM     14  C   UNL     1       1.759   8.969  17.982  0.00  0.00    +0.000 A 
ATOM     15  C   UNL     1       1.214   9.803  18.969  0.00  0.00    +0.000 A 
ATOM     16  C   UNL     1       0.792  11.191  18.544  0.00  0.00    +0.000 C 
ATOM     17  H   UNL     1       0.019  11.767  22.288  0.00  0.00    +0.000 HD
ENDROOT
BRANCH   1  18
ATOM     18  C   UNL     1      -4.486  12.775  20.703  0.00  0.00    +0.000 C 
ATOM     19  C   UNL     1      -5.304  13.954  20.102  0.00  0.00    +0.000 C 
ATOM     20  O   UNL     1      -6.385  13.093  19.685  0.00  0.00    +0.000 OA
ATOM     21  C   UNL     1      -5.680  11.923  20.127  0.00  0.00    +0.000 C 
BRANCH  18  22
ATOM     22  C   UNL     1      -4.383  12.732  22.254  0.00  0.00    +0.000 C 
BRANCH  22  28
ATOM     23  C   UNL     1      -7.546  12.404  23.237  0.00  0.00    +0.000 C 
ATOM     24  N   UNL     1      -6.620  13.492  23.396  0.00  0.00    +0.000 N 
ATOM     25  C   UNL     1      -7.002  14.653  23.994  0.00  0.00    +0.000 A 
ATOM     26  N   UNL     1      -6.018  15.496  23.969  0.00  0.00    +0.000 NA
ATOM     27  N   UNL     1      -4.948  14.894  23.355  0.00  0.00    +0.000 NA
ATOM     28  C   UNL     1      -5.293  13.662  23.021  0.00  0.00    +0.000 A 
ENDBRANCH  22  28
ENDBRANCH  18  22
ENDBRANCH   1  18
BRANCH  12  29
ATOM     29  C   UNL     1       2.606   5.822  19.939  0.00  0.00    +0.000 C 
ATOM     30  F   UNL     1       2.212   5.380  21.164  0.00  0.00    +0.000 F 
ATOM     31  F   UNL     1       2.186   4.884  19.048  0.00  0.00    +0.000 F 
ATOM     32  F   UNL     1       3.966   5.756  19.939  0.00  0.00    +0.000 F 
ENDBRANCH  12  29
TORSDOF 4
ENDMDL
MODEL 9
REMARK VINA RESULT:      -7.9      2.064      2.716
REMARK  Name = 
REMARK  5 active torsions:
REMARK  status: ('A' for Active; 'I' for Inactive)
REMARK    1  A    between atoms: C_1  and  N_2
REMARK    2  A    between atoms: C_6  and  C_7
REMARK    3  A    between atoms: C_7  and  C_8
REMARK    4  A    between atoms: C_8  and  C_9
REMARK    5  A    between atoms: C_20  and  C_21
REMARK                            x       y       z     vdW  Elec       q    Type
REMARK                         _______ _______ _______ _____ _____    ______ ____
ROOT
ATOM      1  C   UNL     1      -2.681  12.260  19.991  0.00  0.00    +0.000 A 
ATOM      2  C   UNL     1      -2.519  11.953  18.631  0.00  0.00    +0.000 A 
ATOM      3  C   UNL     1      -1.296  11.504  18.124  0.00  0.00    +0.000 A 
ATOM      4  C   UNL     1      -0.217  11.288  18.981  0.00  0.00    +0.000 A 
ATOM      5  C   UNL     1      -0.376  11.542  20.342  0.00  0.00    +0.000 A 
ATOM      6  C   UNL     1      -1.557  12.087  20.819  0.00  0.00    +0.000 A 
ATOM      7  N   UNL     1       0.587  11.174  21.295  0.00  0.00    +0.000 N 
ATOM      8  C   UNL     1       0.947   9.850  21.437  0.00  0.00    +0.000 C 
ATOM      9  O   UNL     1       0.940   9.383  22.577  0.00  0.00    +0.000 OA
ATOM     10  C   UNL     1       1.362   9.004  20.278  0.00  0.00    +0.000 A 
ATOM     11  C   UNL     1       1.732   7.682  20.597  0.00  0.00    +0.000 A 
ATOM     12  C   UNL     1       2.241   6.808  19.629  0.00  0.00    +0.000 A 
ATOM     13  C   UNL     1       2.358   7.258  18.309  0.00  0.00    +0.000 A 
ATOM     14  C   UNL     1       1.977   8.555  17.976  0.00  0.00    +0.000 A 
ATOM     15  C   UNL     1       1.479   9.436  18.948  0.00  0.00    +0.000 A 
ATOM     16  C   UNL     1       1.123  10.834  18.496  0.00  0.00    +0.000 C 
ATOM     17  H   UNL     1       0.400  11.524  22.230  0.00  0.00    +0.000 HD
ENDROOT
BRANCH   1  18
ATOM     18  C   UNL     1      -4.058  12.722  20.644  0.00  0.00    +0.000 C 
ATOM     19  C   UNL     1      -4.153  12.847  22.191  0.00  0.00    +0.000 C 
ATOM     20  O   UNL     1      -4.364  14.275  22.139  0.00  0.00    +0.000 OA
ATOM     21  C   UNL     1      -4.207  14.289  20.713  0.00  0.00    +0.000 C 
BRANCH  18  22
ATOM     22  C   UNL     1      -5.250  12.014  19.938  0.00  0.00    +0.000 C 
BRANCH  22  28
ATOM     23  C   UNL     1      -7.915  13.922  20.519  0.00  0.00    +0.000 C 
ATOM     24  N   UNL     1      -7.214  13.632  19.298  0.00  0.00    +0.000 N 
ATOM     25  C   UNL     1      -7.647  14.132  18.109  0.00  0.00    +0.000 A 
ATOM     26  N   UNL     1      -6.890  13.690  17.154  0.00  0.00    +0.000 NA
ATOM     27  N   UNL     1      -5.922  12.889  17.704  0.00  0.00    +0.000 NA
ATOM     28  C   UNL     1      -6.092  12.863  19.015  0.00  0.00    +0.000 A 
ENDBRANCH  22  28
ENDBRANCH  18  22
ENDBRANCH   1  18
BRANCH  12  29
ATOM     29  C   UNL     1       2.678   5.412  19.994  0.00  0.00    +0.000 C 
ATOM     30  F   UNL     1       4.024   5.225  19.933  0.00  0.00    +0.000 F 
ATOM     31  F   UNL     1       2.308   5.067  21.258  0.00  0.00    +0.000 F 
ATOM     32  F   UNL     1       2.133   4.471  19.175  0.00  0.00    +0.000 F 
ENDBRANCH  12  29
TORSDOF 4
ENDMDL
