MODEL 1
REMARK VINA RESULT:      -8.4      0.000      0.000
REMARK  Name = 
REMARK  6 active torsions:
REMARK  status: ('A' for Active; 'I' for Inactive)
REMARK    1  A    between atoms: C_2  and  C_4
REMARK    2  A    between atoms: N_8  and  C_9
REMARK    3  A    between atoms: C_9  and  C_10
REMARK    4  A    between atoms: C_14  and  N_15
REMARK    5  A    between atoms: N_18  and  C_19
REMARK    6  A    between atoms: C_27  and  O_28
REMARK                            x       y       z     vdW  Elec       q    Type
REMARK                         _______ _______ _______ _____ _____    ______ ____
ROOT
ATOM      1  C   UNL     1       0.523  11.087  21.214  0.00  0.00    +0.000 A 
ATOM      2  C   UNL     1      -0.446  10.865  22.204  0.00  0.00    +0.000 A 
ATOM      3  C   UNL     1      -0.587   9.608  22.791  0.00  0.00    +0.000 A 
ATOM      4  C   UNL     1       0.192   8.539  22.360  0.00  0.00    +0.000 A 
ATOM      5  C   UNL     1       1.034   8.703  21.265  0.00  0.00    +0.000 A 
ATOM      6  C   UNL     1       1.216   9.972  20.700  0.00  0.00    +0.000 A 
ENDROOT
BRANCH   5   7
ATOM      7  N   UNL     1       1.681   7.595  20.684  0.00  0.00    +0.000 N 
ATOM      8  C   UNL     1       2.243   7.540  19.424  0.00  0.00    +0.000 C 
ATOM      9  O   UNL     1       2.205   8.403  18.557  0.00  0.00    +0.000 OA
ATOM     10  N   UNL     1       2.836   6.328  19.229  0.00  0.00    +0.000 N 
ATOM     11  H   UNL     1       1.625   6.733  21.217  0.00  0.00    +0.000 HD
ATOM     12  H   UNL     1       2.872   5.703  20.020  0.00  0.00    +0.000 HD
BRANCH  10  13
ATOM     13  C   UNL     1       3.478   5.854  17.995  0.00  0.00    +0.000 C 
ATOM     14  C   UNL     1       2.842   4.477  17.759  0.00  0.00    +0.000 A 
ATOM     15  C   UNL     1       1.475   4.246  17.871  0.00  0.00    +0.000 A 
ATOM     16  C   UNL     1       1.083   3.217  18.717  0.00  0.00    +0.000 A 
ATOM     17  C   UNL     1       2.053   2.425  19.355  0.00  0.00    +0.000 A 
ATOM     18  C   UNL     1       3.409   2.533  19.018  0.00  0.00    +0.000 A 
ATOM     19  C   UNL     1       3.786   3.522  18.132  0.00  0.00    +0.000 A 
ATOM     20  C   UNL     1       5.155   4.017  17.781  0.00  0.00    +0.000 C 
ATOM     21  C   UNL     1       5.001   5.486  18.205  0.00  0.00    +0.000 C 
BRANCH  21  22
ATOM     22  O   UNL     1       5.427   5.560  19.578  0.00  0.00    +0.000 OA
ATOM     23  H   UNL     1       4.618   5.523  20.116  0.00  0.00    +0.000 HD
ENDBRANCH  21  22
ENDBRANCH  10  13
ENDBRANCH   5   7
BRANCH   1  24
ATOM     24  C   UNL     1       0.867  12.515  20.786  0.00  0.00    +0.000 C 
BRANCH  24  29
ATOM     25  C   UNL     1       1.042  13.648  18.536  0.00  0.00    +0.000 C 
ATOM     26  C   UNL     1       0.956  15.076  19.031  0.00  0.00    +0.000 C 
ATOM     27  C   UNL     1      -0.511  15.187  19.401  0.00  0.00    +0.000 C 
ATOM     28  C   UNL     1      -0.948  13.759  19.731  0.00  0.00    +0.000 C 
ATOM     29  N   UNL     1       0.216  12.862  19.498  0.00  0.00    +0.000 NA
BRANCH  25  31
ATOM     30  N   UNL     1       2.529  11.975  17.559  0.00  0.00    +0.000 N 
ATOM     31  C   UNL     1       2.454  13.150  18.251  0.00  0.00    +0.000 C 
ATOM     32  O   UNL     1       3.469  13.796  18.494  0.00  0.00    +0.000 OA
ATOM     33  H   UNL     1       3.435  11.643  17.263  0.00  0.00    +0.000 HD
ATOM     34  H   UNL     1       1.693  11.449  17.343  0.00  0.00    +0.000 HD
ENDBRANCH  25  31
ENDBRANCH  24  29
ENDBRANCH   1  24
TORSDOF 6
ENDMDL
MODEL 2
REMARK VINA RESULT:      -8.3      3.229      4.638
REMARK  Name = 
REMARK  6 active torsions:
REMARK  status: ('A' for Active; 'I' for Inactive)
REMARK    1  A    between atoms: C_2  and  C_4
REMARK    2  A    between atoms: N_8  and  C_9
REMARK    3  A    between atoms: C_9  and  C_10
REMARK    4  A    between atoms: C_14  and  N_15
REMARK    5  A    between atoms: N_18  and  C_19
REMARK    6  A    between atoms: C_27  and  O_28
REMARK                            x       y       z     vdW  Elec       q    Type
REMARK                         _______ _______ _______ _____ _____    ______ ____
ROOT
ATOM      1  C   UNL     1      -0.448  11.099  18.983  0.00  0.00    +0.000 A 
ATOM      2  C   UNL     1       0.387  12.225  19.037  0.00  0.00    +0.000 A 
ATOM      3  C   UNL     1       1.695  12.162  18.557  0.00  0.00    +0.000 A 
ATOM      4  C   UNL     1       2.211  10.965  18.072  0.00  0.00    +0.000 A 
ATOM      5  C   UNL     1       1.452   9.803  18.172  0.00  0.00    +0.000 A 
ATOM      6  C   UNL     1       0.123   9.865  18.608  0.00  0.00    +0.000 A 
ENDROOT
BRANCH   5   7
ATOM      7  N   UNL     1       2.020   8.548  17.876  0.00  0.00    +0.000 N 
ATOM      8  C   UNL     1       2.320   7.549  18.781  0.00  0.00    +0.000 C 
ATOM      9  O   UNL     1       2.232   7.603  20.000  0.00  0.00    +0.000 OA
ATOM     10  N   UNL     1       2.795   6.453  18.125  0.00  0.00    +0.000 N 
ATOM     11  H   UNL     1       2.325   8.426  16.916  0.00  0.00    +0.000 HD
ATOM     12  H   UNL     1       2.773   6.476  17.117  0.00  0.00    +0.000 HD
BRANCH  10  13
ATOM     13  C   UNL     1       3.292   5.212  18.738  0.00  0.00    +0.000 C 
ATOM     14  C   UNL     1       4.648   4.987  18.055  0.00  0.00    +0.000 A 
ATOM     15  C   UNL     1       5.582   6.002  17.874  0.00  0.00    +0.000 A 
ATOM     16  C   UNL     1       6.045   6.200  16.580  0.00  0.00    +0.000 A 
ATOM     17  C   UNL     1       5.621   5.349  15.545  0.00  0.00    +0.000 A 
ATOM     18  C   UNL     1       4.879   4.192  15.819  0.00  0.00    +0.000 A 
ATOM     19  C   UNL     1       4.470   3.970  17.119  0.00  0.00    +0.000 A 
ATOM     20  C   UNL     1       3.489   2.972  17.652  0.00  0.00    +0.000 C 
ATOM     21  C   UNL     1       2.474   3.939  18.281  0.00  0.00    +0.000 C 
BRANCH  21  22
ATOM     22  O   UNL     1       1.494   4.219  17.264  0.00  0.00    +0.000 OA
ATOM     23  H   UNL     1       1.755   5.063  16.859  0.00  0.00    +0.000 HD
ENDBRANCH  21  22
ENDBRANCH  10  13
ENDBRANCH   5   7
BRANCH   1  24
ATOM     24  C   UNL     1      -1.949  11.246  19.237  0.00  0.00    +0.000 C 
BRANCH  24  29
ATOM     25  C   UNL     1      -4.122  11.863  18.107  0.00  0.00    +0.000 C 
ATOM     26  C   UNL     1      -4.503  10.472  17.647  0.00  0.00    +0.000 C 
ATOM     27  C   UNL     1      -3.530  10.247  16.505  0.00  0.00    +0.000 C 
ATOM     28  C   UNL     1      -2.325  11.133  16.828  0.00  0.00    +0.000 C 
ATOM     29  N   UNL     1      -2.631  11.878  18.079  0.00  0.00    +0.000 NA
BRANCH  25  31
ATOM     30  N   UNL     1      -4.494  13.594  19.789  0.00  0.00    +0.000 N 
ATOM     31  C   UNL     1      -4.806  12.326  19.389  0.00  0.00    +0.000 C 
ATOM     32  O   UNL     1      -5.676  11.686  19.968  0.00  0.00    +0.000 OA
ATOM     33  H   UNL     1      -4.985  13.988  20.579  0.00  0.00    +0.000 HD
ATOM     34  H   UNL     1      -3.789  14.131  19.303  0.00  0.00    +0.000 HD
ENDBRANCH  25  31
ENDBRANCH  24  29
ENDBRANCH   1  24
TORSDOF 6
ENDMDL
MODEL 3
REMARK VINA RESULT:      -8.2      1.454      1.699
REMARK  Name = 
REMARK  6 active torsions:
REMARK  status: ('A' for Active; 'I' for Inactive)
REMARK    1  A    between atoms: C_2  and  C_4
REMARK    2  A    between atoms: N_8  and  C_9
REMARK    3  A    between atoms: C_9  and  C_10
REMARK    4  A    between atoms: C_14  and  N_15
REMARK    5  A    between atoms: N_18  and  C_19
REMARK    6  A    between atoms: C_27  and  O_28
REMARK                            x       y       z     vdW  Elec       q    Type
REMARK                         _______ _______ _______ _____ _____    ______ ____
ROOT
ATOM      1  C   UNL     1       0.535  11.039  21.165  0.00  0.00    +0.000 A 
ATOM      2  C   UNL     1      -0.407  10.836  22.185  0.00  0.00    +0.000 A 
ATOM      3  C   UNL     1      -0.533   9.590  22.797  0.00  0.00    +0.000 A 
ATOM      4  C   UNL     1       0.233   8.512  22.364  0.00  0.00    +0.000 A 
ATOM      5  C   UNL     1       1.044   8.656  21.243  0.00  0.00    +0.000 A 
ATOM      6  C   UNL     1       1.212   9.914  20.651  0.00  0.00    +0.000 A 
ENDROOT
BRANCH   5   7
ATOM      7  N   UNL     1       1.673   7.536  20.663  0.00  0.00    +0.000 N 
ATOM      8  C   UNL     1       2.259   7.479  19.414  0.00  0.00    +0.000 C 
ATOM      9  O   UNL     1       2.262   8.351  18.557  0.00  0.00    +0.000 OA
ATOM     10  N   UNL     1       2.823   6.253  19.220  0.00  0.00    +0.000 N 
ATOM     11  H   UNL     1       1.584   6.671  21.187  0.00  0.00    +0.000 HD
ATOM     12  H   UNL     1       2.827   5.620  20.004  0.00  0.00    +0.000 HD
BRANCH  10  13
ATOM     13  C   UNL     1       3.478   5.774  17.993  0.00  0.00    +0.000 C 
ATOM     14  C   UNL     1       2.844   4.397  17.757  0.00  0.00    +0.000 A 
ATOM     15  C   UNL     1       1.476   4.166  17.856  0.00  0.00    +0.000 A 
ATOM     16  C   UNL     1       1.077   3.140  18.703  0.00  0.00    +0.000 A 
ATOM     17  C   UNL     1       2.040   2.351  19.353  0.00  0.00    +0.000 A 
ATOM     18  C   UNL     1       3.400   2.458  19.030  0.00  0.00    +0.000 A 
ATOM     19  C   UNL     1       3.785   3.443  18.143  0.00  0.00    +0.000 A 
ATOM     20  C   UNL     1       5.157   3.937  17.803  0.00  0.00    +0.000 C 
ATOM     21  C   UNL     1       4.999   5.408  18.220  0.00  0.00    +0.000 C 
BRANCH  21  22
ATOM     22  O   UNL     1       5.412   5.488  19.597  0.00  0.00    +0.000 OA
ATOM     23  H   UNL     1       6.379   5.393  19.596  0.00  0.00    +0.000 HD
ENDBRANCH  21  22
ENDBRANCH  10  13
ENDBRANCH   5   7
BRANCH   1  24
ATOM     24  C   UNL     1       0.868  12.459  20.703  0.00  0.00    +0.000 C 
BRANCH  24  29
ATOM     25  C   UNL     1      -1.061  13.786  19.758  0.00  0.00    +0.000 C 
ATOM     26  C   UNL     1      -0.242  14.873  19.094  0.00  0.00    +0.000 C 
ATOM     27  C   UNL     1       0.227  15.680  20.289  0.00  0.00    +0.000 C 
ATOM     28  C   UNL     1       0.238  14.693  21.458  0.00  0.00    +0.000 C 
ATOM     29  N   UNL     1      -0.264  13.386  20.954  0.00  0.00    +0.000 NA
BRANCH  25  31
ATOM     30  N   UNL     1      -1.028  12.725  17.559  0.00  0.00    +0.000 N 
ATOM     31  C   UNL     1      -1.535  12.677  18.825  0.00  0.00    +0.000 C 
ATOM     32  O   UNL     1      -2.215  11.723  19.189  0.00  0.00    +0.000 OA
ATOM     33  H   UNL     1      -1.234  11.967  16.924  0.00  0.00    +0.000 HD
ATOM     34  H   UNL     1      -0.453  13.502  17.261  0.00  0.00    +0.000 HD
ENDBRANCH  25  31
ENDBRANCH  24  29
ENDBRANCH   1  24
TORSDOF 6
ENDMDL
MODEL 4
REMARK VINA RESULT:      -7.9      1.586      2.156
REMARK  Name = 
REMARK  6 active torsions:
REMARK  status: ('A' for Active; 'I' for Inactive)
REMARK    1  A    between atoms: C_2  and  C_4
REMARK    2  A    between atoms: N_8  and  C_9
REMARK    3  A    between atoms: C_9  and  C_10
REMARK    4  A    between atoms: C_14  and  N_15
REMARK    5  A    between atoms: N_18  and  C_19
REMARK    6  A    between atoms: C_27  and  O_28
REMARK                            x       y       z     vdW  Elec       q    Type
REMARK                         _______ _______ _______ _____ _____    ______ ____
ROOT
ATOM      1  C   UNL     1       0.386  11.422  20.732  0.00  0.00    +0.000 A 
ATOM      2  C   UNL     1      -0.420  11.489  21.879  0.00  0.00    +0.000 A 
ATOM      3  C   UNL     1      -0.405  10.459  22.819  0.00  0.00    +0.000 A 
ATOM      4  C   UNL     1       0.366   9.322  22.604  0.00  0.00    +0.000 A 
ATOM      5  C   UNL     1       1.035   9.166  21.394  0.00  0.00    +0.000 A 
ATOM      6  C   UNL     1       1.063  10.214  20.465  0.00  0.00    +0.000 A 
ENDROOT
BRANCH   5   7
ATOM      7  N   UNL     1       1.656   7.944  21.069  0.00  0.00    +0.000 N 
ATOM      8  C   UNL     1       1.963   7.491  19.801  0.00  0.00    +0.000 C 
ATOM      9  O   UNL     1       1.675   8.019  18.736  0.00  0.00    +0.000 OA
ATOM     10  N   UNL     1       2.617   6.298  19.877  0.00  0.00    +0.000 N 
ATOM     11  H   UNL     1       1.788   7.305  21.846  0.00  0.00    +0.000 HD
ATOM     12  H   UNL     1       2.867   5.970  20.798  0.00  0.00    +0.000 HD
BRANCH  10  13
ATOM     13  C   UNL     1       3.046   5.460  18.748  0.00  0.00    +0.000 C 
ATOM     14  C   UNL     1       2.475   4.076  19.085  0.00  0.00    +0.000 A 
ATOM     15  C   UNL     1       1.174   3.883  19.536  0.00  0.00    +0.000 A 
ATOM     16  C   UNL     1       1.023   3.175  20.721  0.00  0.00    +0.000 A 
ATOM     17  C   UNL     1       2.148   2.633  21.364  0.00  0.00    +0.000 A 
ATOM     18  C   UNL     1       3.406   2.638  20.745  0.00  0.00    +0.000 A 
ATOM     19  C   UNL     1       3.538   3.295  19.538  0.00  0.00    +0.000 A 
ATOM     20  C   UNL     1       4.777   3.661  18.782  0.00  0.00    +0.000 C 
ATOM     21  C   UNL     1       4.603   5.188  18.750  0.00  0.00    +0.000 C 
BRANCH  21  22
ATOM     22  O   UNL     1       5.275   5.699  19.917  0.00  0.00    +0.000 OA
ATOM     23  H   UNL     1       5.876   6.395  19.601  0.00  0.00    +0.000 HD
ENDBRANCH  21  22
ENDBRANCH  10  13
ENDBRANCH   5   7
BRANCH   1  24
ATOM     24  C   UNL     1       0.584  12.664  19.862  0.00  0.00    +0.000 C 
BRANCH  24  29
ATOM     25  C   UNL     1       2.128  14.622  20.265  0.00  0.00    +0.000 C 
ATOM     26  C   UNL     1       1.901  15.323  18.943  0.00  0.00    +0.000 C 
ATOM     27  C   UNL     1       2.661  14.429  17.983  0.00  0.00    +0.000 C 
ATOM     28  C   UNL     1       2.662  13.048  18.641  0.00  0.00    +0.000 C 
ATOM     29  N   UNL     1       1.977  13.170  19.956  0.00  0.00    +0.000 NA
BRANCH  25  31
ATOM     30  N   UNL     1       0.401  16.129  21.109  0.00  0.00    +0.000 N 
ATOM     31  C   UNL     1       1.326  15.179  21.436  0.00  0.00    +0.000 C 
ATOM     32  O   UNL     1       1.386  14.735  22.578  0.00  0.00    +0.000 OA
ATOM     33  H   UNL     1      -0.221  16.468  21.827  0.00  0.00    +0.000 HD
ATOM     34  H   UNL     1       0.338  16.484  20.164  0.00  0.00    +0.000 HD
ENDBRANCH  25  31
ENDBRANCH  24  29
ENDBRANCH   1  24
TORSDOF 6
ENDMDL
MODEL 5
REMARK VINA RESULT:      -7.9      2.342      3.588
REMARK  Name = 
REMARK  6 active torsions:
REMARK  status: ('A' for Active; 'I' for Inactive)
REMARK    1  A    between atoms: C_2  and  C_4
REMARK    2  A    between atoms: N_8  and  C_9
REMARK    3  A    between atoms: C_9  and  C_10
REMARK    4  A    between atoms: C_14  and  N_15
REMARK    5  A    between atoms: N_18  and  C_19
REMARK    6  A    between atoms: C_27  and  O_28
REMARK                            x       y       z     vdW  Elec       q    Type
REMARK                         _______ _______ _______ _____ _____    ______ ____
ROOT
ATOM      1  C   UNL     1       1.624  12.375  18.378  0.00  0.00    +0.000 A 
ATOM      2  C   UNL     1       0.248  12.478  18.633  0.00  0.00    +0.000 A 
ATOM      3  C   UNL     1      -0.525  11.335  18.831  0.00  0.00    +0.000 A 
ATOM      4  C   UNL     1       0.046  10.071  18.718  0.00  0.00    +0.000 A 
ATOM      5  C   UNL     1       1.366   9.951  18.298  0.00  0.00    +0.000 A 
ATOM      6  C   UNL     1       2.163  11.093  18.142  0.00  0.00    +0.000 A 
ENDROOT
BRANCH   5   7
ATOM      7  N   UNL     1       1.908   8.689  17.983  0.00  0.00    +0.000 N 
ATOM      8  C   UNL     1       2.200   7.676  18.874  0.00  0.00    +0.000 C 
ATOM      9  O   UNL     1       2.128   7.719  20.095  0.00  0.00    +0.000 OA
ATOM     10  N   UNL     1       2.649   6.578  18.202  0.00  0.00    +0.000 N 
ATOM     11  H   UNL     1       2.201   8.573  17.018  0.00  0.00    +0.000 HD
ATOM     12  H   UNL     1       2.616   6.612  17.195  0.00  0.00    +0.000 HD
BRANCH  10  13
ATOM     13  C   UNL     1       3.131   5.323  18.797  0.00  0.00    +0.000 C 
ATOM     14  C   UNL     1       4.487   5.095  18.116  0.00  0.00    +0.000 A 
ATOM     15  C   UNL     1       5.432   6.103  17.955  0.00  0.00    +0.000 A 
ATOM     16  C   UNL     1       5.902   6.317  16.666  0.00  0.00    +0.000 A 
ATOM     17  C   UNL     1       5.475   5.488  15.616  0.00  0.00    +0.000 A 
ATOM     18  C   UNL     1       4.720   4.334  15.868  0.00  0.00    +0.000 A 
ATOM     19  C   UNL     1       4.303   4.096  17.162  0.00  0.00    +0.000 A 
ATOM     20  C   UNL     1       3.310   3.099  17.676  0.00  0.00    +0.000 C 
ATOM     21  C   UNL     1       2.302   4.066  18.316  0.00  0.00    +0.000 C 
BRANCH  21  22
ATOM     22  O   UNL     1       1.329   4.372  17.299  0.00  0.00    +0.000 OA
ATOM     23  H   UNL     1       1.565   5.249  16.953  0.00  0.00    +0.000 HD
ENDBRANCH  21  22
ENDBRANCH  10  13
ENDBRANCH   5   7
BRANCH   1  24
ATOM     24  C   UNL     1       2.511  13.619  18.450  0.00  0.00    +0.000 C 
BRANCH  24  29
ATOM     25  C   UNL     1       2.826  15.772  19.732  0.00  0.00    +0.000 C 
ATOM     26  C   UNL     1       4.278  15.564  20.106  0.00  0.00    +0.000 C 
ATOM     27  C   UNL     1       4.172  14.495  21.176  0.00  0.00    +0.000 C 
ATOM     28  C   UNL     1       2.880  13.740  20.859  0.00  0.00    +0.000 C 
ATOM     29  N   UNL     1       2.245  14.399  19.685  0.00  0.00    +0.000 NA
BRANCH  25  31
ATOM     30  N   UNL     1       1.312  17.114  18.365  0.00  0.00    +0.000 N 
ATOM     31  C   UNL     1       2.595  16.675  18.526  0.00  0.00    +0.000 C 
ATOM     32  O   UNL     1       3.495  17.102  17.810  0.00  0.00    +0.000 OA
ATOM     33  H   UNL     1       1.117  17.787  17.638  0.00  0.00    +0.000 HD
ATOM     34  H   UNL     1       0.571  16.777  18.965  0.00  0.00    +0.000 HD
ENDBRANCH  25  31
ENDBRANCH  24  29
ENDBRANCH   1  24
TORSDOF 6
ENDMDL
MODEL 6
REMARK VINA RESULT:      -7.9      2.189      4.159
REMARK  Name = 
REMARK  6 active torsions:
REMARK  status: ('A' for Active; 'I' for Inactive)
REMARK    1  A    between atoms: C_2  and  C_4
REMARK    2  A    between atoms: N_8  and  C_9
REMARK    3  A    between atoms: C_9  and  C_10
REMARK    4  A    between atoms: C_14  and  N_15
REMARK    5  A    between atoms: N_18  and  C_19
REMARK    6  A    between atoms: C_27  and  O_28
REMARK                            x       y       z     vdW  Elec       q    Type
REMARK                         _______ _______ _______ _____ _____    ______ ____
ROOT
ATOM      1  C   UNL     1       0.561  11.442  19.659  0.00  0.00    +0.000 A 
ATOM      2  C   UNL     1       1.357  12.472  19.135  0.00  0.00    +0.000 A 
ATOM      3  C   UNL     1       2.289  12.208  18.132  0.00  0.00    +0.000 A 
ATOM      4  C   UNL     1       2.485  10.909  17.678  0.00  0.00    +0.000 A 
ATOM      5  C   UNL     1       1.828   9.856  18.307  0.00  0.00    +0.000 A 
ATOM      6  C   UNL     1       0.857  10.116  19.282  0.00  0.00    +0.000 A 
ENDROOT
BRANCH   5   7
ATOM      7  N   UNL     1       2.157   8.521  18.005  0.00  0.00    +0.000 N 
ATOM      8  C   UNL     1       2.295   7.485  18.908  0.00  0.00    +0.000 C 
ATOM      9  O   UNL     1       2.246   7.554  20.128  0.00  0.00    +0.000 OA
ATOM     10  N   UNL     1       2.554   6.321  18.246  0.00  0.00    +0.000 N 
ATOM     11  H   UNL     1       2.415   8.346  17.039  0.00  0.00    +0.000 HD
ATOM     12  H   UNL     1       2.514   6.347  17.239  0.00  0.00    +0.000 HD
BRANCH  10  13
ATOM     13  C   UNL     1       2.836   5.012  18.854  0.00  0.00    +0.000 C 
ATOM     14  C   UNL     1       4.231   4.658  18.322  0.00  0.00    +0.000 A 
ATOM     15  C   UNL     1       5.285   5.566  18.297  0.00  0.00    +0.000 A 
ATOM     16  C   UNL     1       5.918   5.753  17.075  0.00  0.00    +0.000 A 
ATOM     17  C   UNL     1       5.531   4.992  15.959  0.00  0.00    +0.000 A 
ATOM     18  C   UNL     1       4.640   3.918  16.092  0.00  0.00    +0.000 A 
ATOM     19  C   UNL     1       4.057   3.700  17.324  0.00  0.00    +0.000 A 
ATOM     20  C   UNL     1       2.918   2.802  17.695  0.00  0.00    +0.000 C 
ATOM     21  C   UNL     1       1.945   3.856  18.247  0.00  0.00    +0.000 C 
BRANCH  21  22
ATOM     22  O   UNL     1       1.130   4.279  17.138  0.00  0.00    +0.000 OA
ATOM     23  H   UNL     1       0.479   3.571  16.994  0.00  0.00    +0.000 HD
ENDBRANCH  21  22
ENDBRANCH  10  13
ENDBRANCH   5   7
BRANCH   1  24
ATOM     24  C   UNL     1      -0.645  11.779  20.538  0.00  0.00    +0.000 C 
BRANCH  24  29
ATOM     25  C   UNL     1      -0.557  10.971  22.929  0.00  0.00    +0.000 C 
ATOM     26  C   UNL     1      -2.020  11.182  23.259  0.00  0.00    +0.000 C 
ATOM     27  C   UNL     1      -2.097  12.693  23.369  0.00  0.00    +0.000 C 
ATOM     28  C   UNL     1      -0.964  13.216  22.485  0.00  0.00    +0.000 C 
ATOM     29  N   UNL     1      -0.232  12.040  21.940  0.00  0.00    +0.000 NA
BRANCH  25  31
ATOM     30  N   UNL     1       1.156   9.258  22.624  0.00  0.00    +0.000 N 
ATOM     31  C   UNL     1      -0.179   9.540  22.567  0.00  0.00    +0.000 C 
ATOM     32  O   UNL     1      -0.996   8.647  22.366  0.00  0.00    +0.000 OA
ATOM     33  H   UNL     1       1.458   8.305  22.483  0.00  0.00    +0.000 HD
ATOM     34  H   UNL     1       1.831   9.989  22.806  0.00  0.00    +0.000 HD
ENDBRANCH  25  31
ENDBRANCH  24  29
ENDBRANCH   1  24
TORSDOF 6
ENDMDL
MODEL 7
REMARK VINA RESULT:      -7.9      2.315      4.002
REMARK  Name = 
REMARK  6 active torsions:
REMARK  status: ('A' for Active; 'I' for Inactive)
REMARK    1  A    between atoms: C_2  and  C_4
REMARK    2  A    between atoms: N_8  and  C_9
REMARK    3  A    between atoms: C_9  and  C_10
REMARK    4  A    between atoms: C_14  and  N_15
REMARK    5  A    between atoms: N_18  and  C_19
REMARK    6  A    between atoms: C_27  and  O_28
REMARK                            x       y       z     vdW  Elec       q    Type
REMARK                         _______ _______ _______ _____ _____    ______ ____
ROOT
ATOM      1  C   UNL     1      -0.001  11.456  19.289  0.00  0.00    +0.000 A 
ATOM      2  C   UNL     1       0.929  12.483  19.069  0.00  0.00    +0.000 A 
ATOM      3  C   UNL     1       2.091  12.244  18.336  0.00  0.00    +0.000 A 
ATOM      4  C   UNL     1       2.373  10.967  17.861  0.00  0.00    +0.000 A 
ATOM      5  C   UNL     1       1.547   9.906  18.217  0.00  0.00    +0.000 A 
ATOM      6  C   UNL     1       0.355  10.144  18.914  0.00  0.00    +0.000 A 
ENDROOT
BRANCH   5   7
ATOM      7  N   UNL     1       1.914   8.579  17.922  0.00  0.00    +0.000 N 
ATOM      8  C   UNL     1       2.190   7.580  18.835  0.00  0.00    +0.000 C 
ATOM      9  O   UNL     1       2.252   7.686  20.052  0.00  0.00    +0.000 OA
ATOM     10  N   UNL     1       2.445   6.410  18.184  0.00  0.00    +0.000 N 
ATOM     11  H   UNL     1       2.089   8.387  16.940  0.00  0.00    +0.000 HD
ATOM     12  H   UNL     1       2.310   6.402  17.185  0.00  0.00    +0.000 HD
BRANCH  10  13
ATOM     13  C   UNL     1       2.851   5.137  18.797  0.00  0.00    +0.000 C 
ATOM     14  C   UNL     1       4.248   4.883  18.216  0.00  0.00    +0.000 A 
ATOM     15  C   UNL     1       5.227   5.868  18.139  0.00  0.00    +0.000 A 
ATOM     16  C   UNL     1       5.797   6.084  16.891  0.00  0.00    +0.000 A 
ATOM     17  C   UNL     1       5.429   5.277  15.802  0.00  0.00    +0.000 A 
ATOM     18  C   UNL     1       4.629   4.140  15.983  0.00  0.00    +0.000 A 
ATOM     19  C   UNL     1       4.111   3.898  17.239  0.00  0.00    +0.000 A 
ATOM     20  C   UNL     1       3.059   2.921  17.665  0.00  0.00    +0.000 C 
ATOM     21  C   UNL     1       2.030   3.906  18.241  0.00  0.00    +0.000 C 
BRANCH  21  22
ATOM     22  O   UNL     1       1.143   4.247  17.158  0.00  0.00    +0.000 OA
ATOM     23  H   UNL     1       0.264   3.921  17.414  0.00  0.00    +0.000 HD
ENDBRANCH  21  22
ENDBRANCH  10  13
ENDBRANCH   5   7
BRANCH   1  24
ATOM     24  C   UNL     1      -1.391  11.787  19.836  0.00  0.00    +0.000 C 
BRANCH  24  29
ATOM     25  C   UNL     1      -1.534  12.384  22.285  0.00  0.00    +0.000 C 
ATOM     26  C   UNL     1      -3.036  12.260  22.428  0.00  0.00    +0.000 C 
ATOM     27  C   UNL     1      -3.519  13.502  21.704  0.00  0.00    +0.000 C 
ATOM     28  C   UNL     1      -2.418  13.829  20.694  0.00  0.00    +0.000 C 
ATOM     29  N   UNL     1      -1.321  12.840  20.881  0.00  0.00    +0.000 NA
BRANCH  25  31
ATOM     30  N   UNL     1      -1.473  10.199  23.374  0.00  0.00    +0.000 N 
ATOM     31  C   UNL     1      -0.739  11.172  22.759  0.00  0.00    +0.000 C 
ATOM     32  O   UNL     1       0.447  10.992  22.505  0.00  0.00    +0.000 OA
ATOM     33  H   UNL     1      -1.018   9.334  23.627  0.00  0.00    +0.000 HD
ATOM     34  H   UNL     1      -2.456  10.339  23.570  0.00  0.00    +0.000 HD
ENDBRANCH  25  31
ENDBRANCH  24  29
ENDBRANCH   1  24
TORSDOF 6
ENDMDL
MODEL 8
REMARK VINA RESULT:      -7.8      1.378      2.395
REMARK  Name = 
REMARK  6 active torsions:
REMARK  status: ('A' for Active; 'I' for Inactive)
REMARK    1  A    between atoms: C_2  and  C_4
REMARK    2  A    between atoms: N_8  and  C_9
REMARK    3  A    between atoms: C_9  and  C_10
REMARK    4  A    between atoms: C_14  and  N_15
REMARK    5  A    between atoms: N_18  and  C_19
REMARK    6  A    between atoms: C_27  and  O_28
REMARK                            x       y       z     vdW  Elec       q    Type
REMARK                         _______ _______ _______ _____ _____    ______ ____
ROOT
ATOM      1  C   UNL     1       0.525  10.958  20.932  0.00  0.00    +0.000 A 
ATOM      2  C   UNL     1      -0.412  10.518  21.879  0.00  0.00    +0.000 A 
ATOM      3  C   UNL     1      -0.448   9.181  22.273  0.00  0.00    +0.000 A 
ATOM      4  C   UNL     1       0.406   8.252  21.689  0.00  0.00    +0.000 A 
ATOM      5  C   UNL     1       1.219   8.640  20.629  0.00  0.00    +0.000 A 
ATOM      6  C   UNL     1       1.296   9.988  20.258  0.00  0.00    +0.000 A 
ENDROOT
BRANCH   5   7
ATOM      7  N   UNL     1       1.942   7.683  19.891  0.00  0.00    +0.000 N 
ATOM      8  C   UNL     1       2.049   6.336  20.175  0.00  0.00    +0.000 C 
ATOM      9  O   UNL     1       1.615   5.749  21.156  0.00  0.00    +0.000 OA
ATOM     10  N   UNL     1       2.774   5.711  19.205  0.00  0.00    +0.000 N 
ATOM     11  H   UNL     1       2.517   8.058  19.142  0.00  0.00    +0.000 HD
ATOM     12  H   UNL     1       3.038   6.261  18.402  0.00  0.00    +0.000 HD
BRANCH  10  13
ATOM     13  C   UNL     1       3.171   4.295  19.182  0.00  0.00    +0.000 C 
ATOM     14  C   UNL     1       4.543   4.313  18.495  0.00  0.00    +0.000 A 
ATOM     15  C   UNL     1       5.540   5.227  18.819  0.00  0.00    +0.000 A 
ATOM     16  C   UNL     1       6.075   5.964  17.771  0.00  0.00    +0.000 A 
ATOM     17  C   UNL     1       5.654   5.719  16.453  0.00  0.00    +0.000 A 
ATOM     18  C   UNL     1       4.835   4.622  16.149  0.00  0.00    +0.000 A 
ATOM     19  C   UNL     1       4.353   3.857  17.192  0.00  0.00    +0.000 A 
ATOM     20  C   UNL     1       3.294   2.799  17.188  0.00  0.00    +0.000 C 
ATOM     21  C   UNL     1       2.305   3.438  18.176  0.00  0.00    +0.000 C 
BRANCH  21  22
ATOM     22  O   UNL     1       1.392   4.224  17.387  0.00  0.00    +0.000 OA
ATOM     23  H   UNL     1       0.720   3.606  17.052  0.00  0.00    +0.000 HD
ENDBRANCH  21  22
ENDBRANCH  10  13
ENDBRANCH   5   7
BRANCH   1  24
ATOM     24  C   UNL     1       0.753  12.456  20.720  0.00  0.00    +0.000 C 
BRANCH  24  29
ATOM     25  C   UNL     1       1.031  13.760  18.575  0.00  0.00    +0.000 C 
ATOM     26  C   UNL     1       0.947  15.146  19.179  0.00  0.00    +0.000 C 
ATOM     27  C   UNL     1      -0.531  15.253  19.501  0.00  0.00    +0.000 C 
ATOM     28  C   UNL     1      -1.002  13.811  19.700  0.00  0.00    +0.000 C 
ATOM     29  N   UNL     1       0.157  12.915  19.440  0.00  0.00    +0.000 NA
BRANCH  25  31
ATOM     30  N   UNL     1       2.528  12.119  17.561  0.00  0.00    +0.000 N 
ATOM     31  C   UNL     1       2.446  13.261  18.305  0.00  0.00    +0.000 C 
ATOM     32  O   UNL     1       3.459  13.885  18.603  0.00  0.00    +0.000 OA
ATOM     33  H   UNL     1       3.439  11.791  17.273  0.00  0.00    +0.000 HD
ATOM     34  H   UNL     1       1.693  11.611  17.299  0.00  0.00    +0.000 HD
ENDBRANCH  25  31
ENDBRANCH  24  29
ENDBRANCH   1  24
TORSDOF 6
ENDMDL
MODEL 9
REMARK VINA RESULT:      -7.8      1.510      2.136
REMARK  Name = 
REMARK  6 active torsions:
REMARK  status: ('A' for Active; 'I' for Inactive)
REMARK    1  A    between atoms: C_2  and  C_4
REMARK    2  A    between atoms: N_8  and  C_9
REMARK    3  A    between atoms: C_9  and  C_10
REMARK    4  A    between atoms: C_14  and  N_15
REMARK    5  A    between atoms: N_18  and  C_19
REMARK    6  A    between atoms: C_27  and  O_28
REMARK                            x       y       z     vdW  Elec       q    Type
REMARK                         _______ _______ _______ _____ _____    ______ ____
ROOT
ATOM      1  C   UNL     1       0.062  10.877  20.655  0.00  0.00    +0.000 A 
ATOM      2  C   UNL     1      -0.476  10.776  21.947  0.00  0.00    +0.000 A 
ATOM      3  C   UNL     1      -0.114   9.721  22.785  0.00  0.00    +0.000 A 
ATOM      4  C   UNL     1       0.740   8.722  22.331  0.00  0.00    +0.000 A 
ATOM      5  C   UNL     1       1.143   8.719  21.000  0.00  0.00    +0.000 A 
ATOM      6  C   UNL     1       0.823   9.796  20.164  0.00  0.00    +0.000 A 
ENDROOT
BRANCH   5   7
ATOM      7  N   UNL     1       1.840   7.618  20.463  0.00  0.00    +0.000 N 
ATOM      8  C   UNL     1       2.330   7.505  19.178  0.00  0.00    +0.000 C 
ATOM      9  O   UNL     1       2.175   8.291  18.253  0.00  0.00    +0.000 OA
ATOM     10  N   UNL     1       3.004   6.328  19.037  0.00  0.00    +0.000 N 
ATOM     11  H   UNL     1       1.883   6.800  21.062  0.00  0.00    +0.000 HD
ATOM     12  H   UNL     1       3.135   5.772  19.868  0.00  0.00    +0.000 HD
BRANCH  10  13
ATOM     13  C   UNL     1       3.609   5.806  17.803  0.00  0.00    +0.000 C 
ATOM     14  C   UNL     1       2.919   4.450  17.605  0.00  0.00    +0.000 A 
ATOM     15  C   UNL     1       1.546   4.272  17.742  0.00  0.00    +0.000 A 
ATOM     16  C   UNL     1       1.130   3.275  18.615  0.00  0.00    +0.000 A 
ATOM     17  C   UNL     1       2.080   2.460  19.254  0.00  0.00    +0.000 A 
ATOM     18  C   UNL     1       3.434   2.512  18.895  0.00  0.00    +0.000 A 
ATOM     19  C   UNL     1       3.833   3.468  17.983  0.00  0.00    +0.000 A 
ATOM     20  C   UNL     1       5.213   3.904  17.601  0.00  0.00    +0.000 C 
ATOM     21  C   UNL     1       5.120   5.386  17.997  0.00  0.00    +0.000 C 
BRANCH  21  22
ATOM     22  O   UNL     1       5.571   5.472  19.362  0.00  0.00    +0.000 OA
ATOM     23  H   UNL     1       5.196   6.294  19.721  0.00  0.00    +0.000 HD
ENDBRANCH  21  22
ENDBRANCH  10  13
ENDBRANCH   5   7
BRANCH   1  24
ATOM     24  C   UNL     1      -0.107  12.171  19.856  0.00  0.00    +0.000 C 
BRANCH  24  29
ATOM     25  C   UNL     1      -0.019  14.597  20.552  0.00  0.00    +0.000 C 
ATOM     26  C   UNL     1       0.090  15.193  19.164  0.00  0.00    +0.000 C 
ATOM     27  C   UNL     1       1.520  14.851  18.793  0.00  0.00    +0.000 C 
ATOM     28  C   UNL     1       1.856  13.600  19.607  0.00  0.00    +0.000 C 
ATOM     29  N   UNL     1       0.676  13.280  20.456  0.00  0.00    +0.000 NA
BRANCH  25  31
ATOM     30  N   UNL     1      -2.426  14.904  20.272  0.00  0.00    +0.000 N 
ATOM     31  C   UNL     1      -1.422  14.609  21.149  0.00  0.00    +0.000 C 
ATOM     32  O   UNL     1      -1.679  14.255  22.295  0.00  0.00    +0.000 OA
ATOM     33  H   UNL     1      -3.382  14.839  20.589  0.00  0.00    +0.000 HD
ATOM     34  H   UNL     1      -2.217  15.180  19.322  0.00  0.00    +0.000 HD
ENDBRANCH  25  31
ENDBRANCH  24  29
ENDBRANCH   1  24
TORSDOF 6
ENDMDL
