MODEL 1
REMARK VINA RESULT:      -9.1      0.000      0.000
REMARK  Name = 
REMARK  3 active torsions:
REMARK  status: ('A' for Active; 'I' for Inactive)
REMARK    1  A    between atoms: C_1  and  C_2
REMARK    2  A    between atoms: C_6  and  C_8
REMARK    3  A    between atoms: C_19  and  C_20
REMARK                            x       y       z     vdW  Elec       q    Type
REMARK                         _______ _______ _______ _____ _____    ______ ____
ROOT
ATOM      1  C   UNL     1       3.931   2.919  19.678  0.00  0.00    +0.000 C 
ATOM      2  C   UNL     1       3.480   4.335  19.587  0.00  0.00    +0.000 A 
ATOM      3  S   UNL     1       2.377   4.950  20.767  0.00  0.00    +0.000 S 
ATOM      4  C   UNL     1       2.414   6.468  20.003  0.00  0.00    +0.000 A 
ATOM      5  N   UNL     1       1.634   7.423  20.589  0.00  0.00    +0.000 N 
ATOM      6  C   UNL     1       1.450   8.670  20.043  0.00  0.00    +0.000 C 
ATOM      7  O   UNL     1       1.888   9.071  18.964  0.00  0.00    +0.000 OA
ATOM      8  N   UNL     1       3.185   6.567  18.956  0.00  0.00    +0.000 NA
ATOM      9  C   UNL     1       3.817   5.361  18.712  0.00  0.00    +0.000 A 
ATOM     10  H   UNL     1       1.181   7.172  21.464  0.00  0.00    +0.000 HD
ENDROOT
BRANCH   6  11
ATOM     11  C   UNL     1       0.600   9.576  20.879  0.00  0.00    +0.000 A 
ATOM     12  C   UNL     1       0.705  10.912  20.706  0.00  0.00    +0.000 A 
ATOM     13  C   UNL     1      -0.104  11.786  21.504  0.00  0.00    +0.000 A 
ATOM     14  C   UNL     1      -0.726  11.337  22.599  0.00  0.00    +0.000 A 
ATOM     15  N   UNL     1      -0.843   9.994  22.818  0.00  0.00    +0.000 N 
ATOM     16  C   UNL     1      -0.374   9.072  21.902  0.00  0.00    +0.000 A 
ATOM     17  O   UNL     1      -0.752   7.900  21.912  0.00  0.00    +0.000 OA
ATOM     18  C   UNL     1      -1.615  12.367  23.198  0.00  0.00    +0.000 C 
ATOM     19  C   UNL     1      -2.012  13.054  21.894  0.00  0.00    +0.000 C 
ATOM     20  C   UNL     1      -0.691  13.099  21.092  0.00  0.00    +0.000 C 
ATOM     21  H   UNL     1      -1.536   9.653  23.471  0.00  0.00    +0.000 HD
ENDBRANCH   6  11
BRANCH   9  22
ATOM     22  C   UNL     1       4.793   5.293  17.625  0.00  0.00    +0.000 A 
ATOM     23  C   UNL     1       6.091   5.841  17.717  0.00  0.00    +0.000 A 
ATOM     24  C   UNL     1       7.004   5.733  16.657  0.00  0.00    +0.000 A 
ATOM     25  C   UNL     1       6.609   5.074  15.503  0.00  0.00    +0.000 A 
ATOM     26  C   UNL     1       5.336   4.517  15.402  0.00  0.00    +0.000 A 
ATOM     27  C   UNL     1       4.441   4.623  16.452  0.00  0.00    +0.000 A 
ATOM     28  C   UNL     1       5.130   3.820  14.104  0.00  0.00    +0.000 C 
ATOM     29  C   UNL     1       6.459   4.044  13.365  0.00  0.00    +0.000 C 
ATOM     30  C   UNL     1       7.423   4.815  14.281  0.00  0.00    +0.000 C 
ENDBRANCH   9  22
TORSDOF 2
ENDMDL
MODEL 2
REMARK VINA RESULT:      -8.7      1.353      1.570
REMARK  Name = 
REMARK  3 active torsions:
REMARK  status: ('A' for Active; 'I' for Inactive)
REMARK    1  A    between atoms: C_1  and  C_2
REMARK    2  A    between atoms: C_6  and  C_8
REMARK    3  A    between atoms: C_19  and  C_20
REMARK                            x       y       z     vdW  Elec       q    Type
REMARK                         _______ _______ _______ _____ _____    ______ ____
ROOT
ATOM      1  C   UNL     1       4.456   3.144  18.935  0.00  0.00    +0.000 C 
ATOM      2  C   UNL     1       3.947   4.517  18.671  0.00  0.00    +0.000 A 
ATOM      3  S   UNL     1       2.884   5.261  19.813  0.00  0.00    +0.000 S 
ATOM      4  C   UNL     1       2.823   6.655  18.841  0.00  0.00    +0.000 A 
ATOM      5  N   UNL     1       2.038   7.659  19.328  0.00  0.00    +0.000 N 
ATOM      6  C   UNL     1       1.779   8.809  18.624  0.00  0.00    +0.000 C 
ATOM      7  O   UNL     1       2.145   9.065  17.476  0.00  0.00    +0.000 OA
ATOM      8  N   UNL     1       3.534   6.626  17.748  0.00  0.00    +0.000 NA
ATOM      9  C   UNL     1       4.198   5.417  17.641  0.00  0.00    +0.000 A 
ATOM     10  H   UNL     1       1.641   7.523  20.255  0.00  0.00    +0.000 HD
ENDROOT
BRANCH   6  11
ATOM     11  C   UNL     1       0.939   9.800  19.370  0.00  0.00    +0.000 A 
ATOM     12  C   UNL     1       0.204  10.691  18.669  0.00  0.00    +0.000 A 
ATOM     13  C   UNL     1      -0.600  11.644  19.375  0.00  0.00    +0.000 A 
ATOM     14  C   UNL     1      -0.416  11.863  20.681  0.00  0.00    +0.000 A 
ATOM     15  N   UNL     1       0.330  10.993  21.424  0.00  0.00    +0.000 N 
ATOM     16  C   UNL     1       0.866   9.848  20.866  0.00  0.00    +0.000 A 
ATOM     17  O   UNL     1       1.246   8.906  21.563  0.00  0.00    +0.000 OA
ATOM     18  C   UNL     1      -1.440  12.784  21.243  0.00  0.00    +0.000 C 
ATOM     19  C   UNL     1      -2.592  12.358  20.336  0.00  0.00    +0.000 C 
ATOM     20  C   UNL     1      -1.923  12.199  18.951  0.00  0.00    +0.000 C 
ATOM     21  H   UNL     1       0.241  10.993  22.432  0.00  0.00    +0.000 HD
ENDBRANCH   6  11
BRANCH   9  22
ATOM     22  C   UNL     1       5.119   5.224  16.521  0.00  0.00    +0.000 A 
ATOM     23  C   UNL     1       6.462   5.660  16.541  0.00  0.00    +0.000 A 
ATOM     24  C   UNL     1       7.317   5.434  15.452  0.00  0.00    +0.000 A 
ATOM     25  C   UNL     1       6.819   4.769  14.342  0.00  0.00    +0.000 A 
ATOM     26  C   UNL     1       5.500   4.321  14.313  0.00  0.00    +0.000 A 
ATOM     27  C   UNL     1       4.662   4.544  15.391  0.00  0.00    +0.000 A 
ATOM     28  C   UNL     1       5.181   3.597  13.053  0.00  0.00    +0.000 C 
ATOM     29  C   UNL     1       6.492   3.677  12.255  0.00  0.00    +0.000 C 
ATOM     30  C   UNL     1       7.556   4.394  13.101  0.00  0.00    +0.000 C 
ENDBRANCH   9  22
TORSDOF 2
ENDMDL
MODEL 3
REMARK VINA RESULT:      -8.6      1.643      2.063
REMARK  Name = 
REMARK  3 active torsions:
REMARK  status: ('A' for Active; 'I' for Inactive)
REMARK    1  A    between atoms: C_1  and  C_2
REMARK    2  A    between atoms: C_6  and  C_8
REMARK    3  A    between atoms: C_19  and  C_20
REMARK                            x       y       z     vdW  Elec       q    Type
REMARK                         _______ _______ _______ _____ _____    ______ ____
ROOT
ATOM      1  C   UNL     1       4.295   3.252  18.952  0.00  0.00    +0.000 C 
ATOM      2  C   UNL     1       3.833   4.641  18.685  0.00  0.00    +0.000 A 
ATOM      3  S   UNL     1       2.784   5.418  19.819  0.00  0.00    +0.000 S 
ATOM      4  C   UNL     1       2.777   6.814  18.849  0.00  0.00    +0.000 A 
ATOM      5  N   UNL     1       2.022   7.843  19.331  0.00  0.00    +0.000 N 
ATOM      6  C   UNL     1       1.806   9.002  18.626  0.00  0.00    +0.000 C 
ATOM      7  O   UNL     1       2.191   9.247  17.482  0.00  0.00    +0.000 OA
ATOM      8  N   UNL     1       3.498   6.764  17.763  0.00  0.00    +0.000 NA
ATOM      9  C   UNL     1       4.123   5.534  17.660  0.00  0.00    +0.000 A 
ATOM     10  H   UNL     1       1.611   7.719  20.254  0.00  0.00    +0.000 HD
ENDROOT
BRANCH   6  11
ATOM     11  C   UNL     1       0.992  10.018  19.366  0.00  0.00    +0.000 A 
ATOM     12  C   UNL     1       0.201   9.605  20.381  0.00  0.00    +0.000 A 
ATOM     13  C   UNL     1      -0.584  10.571  21.093  0.00  0.00    +0.000 A 
ATOM     14  C   UNL     1      -0.778  11.797  20.596  0.00  0.00    +0.000 A 
ATOM     15  N   UNL     1      -0.008  12.248  19.562  0.00  0.00    +0.000 N 
ATOM     16  C   UNL     1       1.014  11.480  19.039  0.00  0.00    +0.000 A 
ATOM     17  O   UNL     1       1.910  11.976  18.356  0.00  0.00    +0.000 OA
ATOM     18  C   UNL     1      -1.502  12.678  21.551  0.00  0.00    +0.000 C 
ATOM     19  C   UNL     1      -0.935  12.071  22.833  0.00  0.00    +0.000 C 
ATOM     20  C   UNL     1      -0.939  10.551  22.545  0.00  0.00    +0.000 C 
ATOM     21  H   UNL     1       0.046  13.241  19.376  0.00  0.00    +0.000 HD
ENDBRANCH   6  11
BRANCH   9  22
ATOM     22  C   UNL     1       5.048   5.313  16.548  0.00  0.00    +0.000 A 
ATOM     23  C   UNL     1       6.386   5.762  16.555  0.00  0.00    +0.000 A 
ATOM     24  C   UNL     1       7.245   5.508  15.475  0.00  0.00    +0.000 A 
ATOM     25  C   UNL     1       6.755   4.802  14.388  0.00  0.00    +0.000 A 
ATOM     26  C   UNL     1       5.441   4.341  14.371  0.00  0.00    +0.000 A 
ATOM     27  C   UNL     1       4.599   4.591  15.441  0.00  0.00    +0.000 A 
ATOM     28  C   UNL     1       5.131   3.572  13.136  0.00  0.00    +0.000 C 
ATOM     29  C   UNL     1       6.443   3.638  12.338  0.00  0.00    +0.000 C 
ATOM     30  C   UNL     1       7.498   4.393  13.160  0.00  0.00    +0.000 C 
ENDBRANCH   9  22
TORSDOF 2
ENDMDL
MODEL 4
REMARK VINA RESULT:      -8.5      1.372      1.599
REMARK  Name = 
REMARK  3 active torsions:
REMARK  status: ('A' for Active; 'I' for Inactive)
REMARK    1  A    between atoms: C_1  and  C_2
REMARK    2  A    between atoms: C_6  and  C_8
REMARK    3  A    between atoms: C_19  and  C_20
REMARK                            x       y       z     vdW  Elec       q    Type
REMARK                         _______ _______ _______ _____ _____    ______ ____
ROOT
ATOM      1  C   UNL     1       3.772   3.762  19.768  0.00  0.00    +0.000 C 
ATOM      2  C   UNL     1       3.334   5.141  19.423  0.00  0.00    +0.000 A 
ATOM      3  S   UNL     1       2.147   5.925  20.406  0.00  0.00    +0.000 S 
ATOM      4  C   UNL     1       2.246   7.304  19.418  0.00  0.00    +0.000 A 
ATOM      5  N   UNL     1       1.428   8.332  19.786  0.00  0.00    +0.000 N 
ATOM      6  C   UNL     1       1.289   9.477  19.039  0.00  0.00    +0.000 C 
ATOM      7  O   UNL     1       1.808   9.707  17.946  0.00  0.00    +0.000 OA
ATOM      8  N   UNL     1       3.093   7.244  18.429  0.00  0.00    +0.000 NA
ATOM      9  C   UNL     1       3.738   6.020  18.424  0.00  0.00    +0.000 A 
ATOM     10  H   UNL     1       0.909   8.219  20.654  0.00  0.00    +0.000 HD
ENDROOT
BRANCH   6  11
ATOM     11  C   UNL     1       0.381  10.496  19.657  0.00  0.00    +0.000 A 
ATOM     12  C   UNL     1      -0.639  10.991  18.922  0.00  0.00    +0.000 A 
ATOM     13  C   UNL     1      -1.511  11.968  19.505  0.00  0.00    +0.000 A 
ATOM     14  C   UNL     1      -1.170  12.609  20.627  0.00  0.00    +0.000 A 
ATOM     15  N   UNL     1      -0.137  12.149  21.393  0.00  0.00    +0.000 N 
ATOM     16  C   UNL     1       0.545  10.994  21.061  0.00  0.00    +0.000 A 
ATOM     17  O   UNL     1       1.235  10.391  21.884  0.00  0.00    +0.000 OA
ATOM     18  C   UNL     1      -2.268  13.475  21.132  0.00  0.00    +0.000 C 
ATOM     19  C   UNL     1      -3.428  12.604  20.654  0.00  0.00    +0.000 C 
ATOM     20  C   UNL     1      -2.975  12.136  19.251  0.00  0.00    +0.000 C 
ATOM     21  H   UNL     1      -0.057  12.447  22.357  0.00  0.00    +0.000 HD
ENDBRANCH   6  11
BRANCH   9  22
ATOM     22  C   UNL     1       4.793   5.791  17.437  0.00  0.00    +0.000 A 
ATOM     23  C   UNL     1       6.125   6.222  17.616  0.00  0.00    +0.000 A 
ATOM     24  C   UNL     1       7.110   5.961  16.652  0.00  0.00    +0.000 A 
ATOM     25  C   UNL     1       6.753   5.266  15.507  0.00  0.00    +0.000 A 
ATOM     26  C   UNL     1       5.445   4.822  15.322  0.00  0.00    +0.000 A 
ATOM     27  C   UNL     1       4.478   5.080  16.278  0.00  0.00    +0.000 A 
ATOM     28  C   UNL     1       5.285   4.063  14.053  0.00  0.00    +0.000 C 
ATOM     29  C   UNL     1       6.688   4.114  13.427  0.00  0.00    +0.000 C 
ATOM     30  C   UNL     1       7.640   4.852  14.381  0.00  0.00    +0.000 C 
ENDBRANCH   9  22
TORSDOF 2
ENDMDL
MODEL 5
REMARK VINA RESULT:      -8.4      2.259      3.114
REMARK  Name = 
REMARK  3 active torsions:
REMARK  status: ('A' for Active; 'I' for Inactive)
REMARK    1  A    between atoms: C_1  and  C_2
REMARK    2  A    between atoms: C_6  and  C_8
REMARK    3  A    between atoms: C_19  and  C_20
REMARK                            x       y       z     vdW  Elec       q    Type
REMARK                         _______ _______ _______ _____ _____    ______ ____
ROOT
ATOM      1  C   UNL     1       2.206   4.756  21.080  0.00  0.00    +0.000 C 
ATOM      2  C   UNL     1       2.077   6.033  20.328  0.00  0.00    +0.000 A 
ATOM      3  S   UNL     1       1.264   7.370  21.063  0.00  0.00    +0.000 S 
ATOM      4  C   UNL     1       1.563   8.308  19.677  0.00  0.00    +0.000 A 
ATOM      5  N   UNL     1       1.080   9.583  19.733  0.00  0.00    +0.000 N 
ATOM      6  C   UNL     1       1.127  10.443  18.663  0.00  0.00    +0.000 C 
ATOM      7  O   UNL     1       1.533  10.184  17.529  0.00  0.00    +0.000 OA
ATOM      8  N   UNL     1       2.228   7.724  18.719  0.00  0.00    +0.000 NA
ATOM      9  C   UNL     1       2.546   6.426  19.080  0.00  0.00    +0.000 A 
ATOM     10  H   UNL     1       0.673   9.882  20.616  0.00  0.00    +0.000 HD
ENDROOT
BRANCH   6  11
ATOM     11  C   UNL     1       0.589  11.810  18.962  0.00  0.00    +0.000 A 
ATOM     12  C   UNL     1       1.429  12.866  18.909  0.00  0.00    +0.000 A 
ATOM     13  C   UNL     1       0.923  14.177  19.196  0.00  0.00    +0.000 A 
ATOM     14  C   UNL     1      -0.262  14.339  19.793  0.00  0.00    +0.000 A 
ATOM     15  N   UNL     1      -1.135  13.292  19.878  0.00  0.00    +0.000 N 
ATOM     16  C   UNL     1      -0.845  12.066  19.313  0.00  0.00    +0.000 A 
ATOM     17  O   UNL     1      -1.724  11.233  19.089  0.00  0.00    +0.000 OA
ATOM     18  C   UNL     1      -0.655  15.771  19.874  0.00  0.00    +0.000 C 
ATOM     19  C   UNL     1       0.009  16.221  18.575  0.00  0.00    +0.000 C 
ATOM     20  C   UNL     1       1.360  15.467  18.579  0.00  0.00    +0.000 C 
ATOM     21  H   UNL     1      -2.113  13.472  20.065  0.00  0.00    +0.000 HD
ENDBRANCH   6  11
BRANCH   9  22
ATOM     22  C   UNL     1       3.368   5.631  18.168  0.00  0.00    +0.000 A 
ATOM     23  C   UNL     1       2.981   4.361  17.688  0.00  0.00    +0.000 A 
ATOM     24  C   UNL     1       3.791   3.641  16.797  0.00  0.00    +0.000 A 
ATOM     25  C   UNL     1       4.992   4.200  16.390  0.00  0.00    +0.000 A 
ATOM     26  C   UNL     1       5.382   5.458  16.845  0.00  0.00    +0.000 A 
ATOM     27  C   UNL     1       4.577   6.165  17.721  0.00  0.00    +0.000 A 
ATOM     28  C   UNL     1       6.678   5.891  16.256  0.00  0.00    +0.000 C 
ATOM     29  C   UNL     1       7.083   4.699  15.374  0.00  0.00    +0.000 C 
ATOM     30  C   UNL     1       5.980   3.631  15.430  0.00  0.00    +0.000 C 
ENDBRANCH   9  22
TORSDOF 2
ENDMDL
MODEL 6
REMARK VINA RESULT:      -8.4      1.024      1.074
REMARK  Name = 
REMARK  3 active torsions:
REMARK  status: ('A' for Active; 'I' for Inactive)
REMARK    1  A    between atoms: C_1  and  C_2
REMARK    2  A    between atoms: C_6  and  C_8
REMARK    3  A    between atoms: C_19  and  C_20
REMARK                            x       y       z     vdW  Elec       q    Type
REMARK                         _______ _______ _______ _____ _____    ______ ____
ROOT
ATOM      1  C   UNL     1       3.235   3.186  20.120  0.00  0.00    +0.000 C 
ATOM      2  C   UNL     1       2.894   4.623  19.944  0.00  0.00    +0.000 A 
ATOM      3  S   UNL     1       1.670   5.331  20.939  0.00  0.00    +0.000 S 
ATOM      4  C   UNL     1       1.915   6.826  20.167  0.00  0.00    +0.000 A 
ATOM      5  N   UNL     1       1.120   7.840  20.618  0.00  0.00    +0.000 N 
ATOM      6  C   UNL     1       1.097   9.083  20.034  0.00  0.00    +0.000 C 
ATOM      7  O   UNL     1       1.714   9.432  19.026  0.00  0.00    +0.000 OA
ATOM      8  N   UNL     1       2.836   6.854  19.245  0.00  0.00    +0.000 NA
ATOM      9  C   UNL     1       3.420   5.607  19.114  0.00  0.00    +0.000 A 
ATOM     10  H   UNL     1       0.527   7.638  21.420  0.00  0.00    +0.000 HD
ENDROOT
BRANCH   6  11
ATOM     11  C   UNL     1       0.192  10.058  20.722  0.00  0.00    +0.000 A 
ATOM     12  C   UNL     1      -0.507  10.939  19.973  0.00  0.00    +0.000 A 
ATOM     13  C   UNL     1      -1.373  11.878  20.624  0.00  0.00    +0.000 A 
ATOM     14  C   UNL     1      -1.282  12.097  21.939  0.00  0.00    +0.000 A 
ATOM     15  N   UNL     1      -0.575  11.238  22.730  0.00  0.00    +0.000 N 
ATOM     16  C   UNL     1       0.017  10.103  22.210  0.00  0.00    +0.000 A 
ATOM     17  O   UNL     1       0.363   9.166  22.930  0.00  0.00    +0.000 OA
ATOM     18  C   UNL     1      -2.356  13.001  22.430  0.00  0.00    +0.000 C 
ATOM     19  C   UNL     1      -3.437  12.558  21.446  0.00  0.00    +0.000 C 
ATOM     20  C   UNL     1      -2.672  12.412  20.110  0.00  0.00    +0.000 C 
ATOM     21  H   UNL     1      -0.732  11.234  23.730  0.00  0.00    +0.000 HD
ENDBRANCH   6  11
BRANCH   9  22
ATOM     22  C   UNL     1       4.539   5.454  18.185  0.00  0.00    +0.000 A 
ATOM     23  C   UNL     1       5.887   5.639  18.562  0.00  0.00    +0.000 A 
ATOM     24  C   UNL     1       6.931   5.460  17.643  0.00  0.00    +0.000 A 
ATOM     25  C   UNL     1       6.618   5.098  16.342  0.00  0.00    +0.000 A 
ATOM     26  C   UNL     1       5.293   4.899  15.957  0.00  0.00    +0.000 A 
ATOM     27  C   UNL     1       4.267   5.073  16.870  0.00  0.00    +0.000 A 
ATOM     28  C   UNL     1       5.180   4.474  14.537  0.00  0.00    +0.000 C 
ATOM     29  C   UNL     1       6.638   4.461  14.051  0.00  0.00    +0.000 C 
ATOM     30  C   UNL     1       7.564   4.823  15.222  0.00  0.00    +0.000 C 
ENDBRANCH   9  22
TORSDOF 2
ENDMDL
MODEL 7
REMARK VINA RESULT:      -8.1      2.251      3.334
REMARK  Name = 
REMARK  3 active torsions:
REMARK  status: ('A' for Active; 'I' for Inactive)
REMARK    1  A    between atoms: C_1  and  C_2
REMARK    2  A    between atoms: C_6  and  C_8
REMARK    3  A    between atoms: C_19  and  C_20
REMARK                            x       y       z     vdW  Elec       q    Type
REMARK                         _______ _______ _______ _____ _____    ______ ____
ROOT
ATOM      1  C   UNL     1       2.062   4.854  21.013  0.00  0.00    +0.000 C 
ATOM      2  C   UNL     1       2.019   6.139  20.265  0.00  0.00    +0.000 A 
ATOM      3  S   UNL     1       1.233   7.506  20.974  0.00  0.00    +0.000 S 
ATOM      4  C   UNL     1       1.630   8.437  19.607  0.00  0.00    +0.000 A 
ATOM      5  N   UNL     1       1.199   9.731  19.652  0.00  0.00    +0.000 N 
ATOM      6  C   UNL     1       1.327  10.594  18.590  0.00  0.00    +0.000 C 
ATOM      7  O   UNL     1       1.769  10.322  17.473  0.00  0.00    +0.000 OA
ATOM      8  N   UNL     1       2.308   7.829  18.674  0.00  0.00    +0.000 NA
ATOM      9  C   UNL     1       2.555   6.518  19.039  0.00  0.00    +0.000 A 
ATOM     10  H   UNL     1       0.768  10.043  20.519  0.00  0.00    +0.000 HD
ENDROOT
BRANCH   6  11
ATOM     11  C   UNL     1       0.836  11.980  18.875  0.00  0.00    +0.000 A 
ATOM     12  C   UNL     1      -0.441  12.148  19.284  0.00  0.00    +0.000 A 
ATOM     13  C   UNL     1      -0.919  13.472  19.557  0.00  0.00    +0.000 A 
ATOM     14  C   UNL     1      -0.242  14.545  19.138  0.00  0.00    +0.000 A 
ATOM     15  N   UNL     1       1.047  14.417  18.705  0.00  0.00    +0.000 N 
ATOM     16  C   UNL     1       1.697  13.198  18.734  0.00  0.00    +0.000 A 
ATOM     17  O   UNL     1       2.925  13.119  18.668  0.00  0.00    +0.000 OA
ATOM     18  C   UNL     1      -0.837  15.812  19.641  0.00  0.00    +0.000 C 
ATOM     19  C   UNL     1      -1.346  15.264  20.972  0.00  0.00    +0.000 C 
ATOM     20  C   UNL     1      -1.913  13.875  20.599  0.00  0.00    +0.000 C 
ATOM     21  H   UNL     1       1.643  15.234  18.659  0.00  0.00    +0.000 HD
ENDBRANCH   6  11
BRANCH   9  22
ATOM     22  C   UNL     1       3.380   5.692  18.158  0.00  0.00    +0.000 A 
ATOM     23  C   UNL     1       2.988   4.413  17.707  0.00  0.00    +0.000 A 
ATOM     24  C   UNL     1       3.801   3.664  16.844  0.00  0.00    +0.000 A 
ATOM     25  C   UNL     1       5.010   4.203  16.435  0.00  0.00    +0.000 A 
ATOM     26  C   UNL     1       5.406   5.469  16.860  0.00  0.00    +0.000 A 
ATOM     27  C   UNL     1       4.598   6.205  17.709  0.00  0.00    +0.000 A 
ATOM     28  C   UNL     1       6.711   5.876  16.273  0.00  0.00    +0.000 C 
ATOM     29  C   UNL     1       7.116   4.658  15.427  0.00  0.00    +0.000 C 
ATOM     30  C   UNL     1       6.004   3.600  15.500  0.00  0.00    +0.000 C 
ENDBRANCH   9  22
TORSDOF 2
ENDMDL
MODEL 8
REMARK VINA RESULT:      -8.1      1.691      1.799
REMARK  Name = 
REMARK  3 active torsions:
REMARK  status: ('A' for Active; 'I' for Inactive)
REMARK    1  A    between atoms: C_1  and  C_2
REMARK    2  A    between atoms: C_6  and  C_8
REMARK    3  A    between atoms: C_19  and  C_20
REMARK                            x       y       z     vdW  Elec       q    Type
REMARK                         _______ _______ _______ _____ _____    ______ ____
ROOT
ATOM      1  C   UNL     1       4.311   3.541  19.241  0.00  0.00    +0.000 C 
ATOM      2  C   UNL     1       3.795   4.885  18.865  0.00  0.00    +0.000 A 
ATOM      3  S   UNL     1       2.666   5.680  19.906  0.00  0.00    +0.000 S 
ATOM      4  C   UNL     1       2.631   7.008  18.844  0.00  0.00    +0.000 A 
ATOM      5  N   UNL     1       1.809   8.027  19.229  0.00  0.00    +0.000 N 
ATOM      6  C   UNL     1       1.566   9.125  18.440  0.00  0.00    +0.000 C 
ATOM      7  O   UNL     1       1.983   9.314  17.297  0.00  0.00    +0.000 OA
ATOM      8  N   UNL     1       3.395   6.923  17.791  0.00  0.00    +0.000 NA
ATOM      9  C   UNL     1       4.082   5.722  17.793  0.00  0.00    +0.000 A 
ATOM     10  H   UNL     1       1.369   7.943  20.143  0.00  0.00    +0.000 HD
ENDROOT
BRANCH   6  11
ATOM     11  C   UNL     1       0.676  10.145  19.081  0.00  0.00    +0.000 A 
ATOM     12  C   UNL     1       1.172  10.909  20.078  0.00  0.00    +0.000 A 
ATOM     13  C   UNL     1       0.326  11.886  20.698  0.00  0.00    +0.000 A 
ATOM     14  C   UNL     1      -0.999  11.855  20.524  0.00  0.00    +0.000 A 
ATOM     15  N   UNL     1      -1.543  11.086  19.535  0.00  0.00    +0.000 N 
ATOM     16  C   UNL     1      -0.747  10.367  18.664  0.00  0.00    +0.000 A 
ATOM     17  O   UNL     1      -1.179   9.946  17.591  0.00  0.00    +0.000 OA
ATOM     18  C   UNL     1      -1.671  13.031  21.139  0.00  0.00    +0.000 C 
ATOM     19  C   UNL     1      -0.540  14.032  20.914  0.00  0.00    +0.000 C 
ATOM     20  C   UNL     1       0.734  13.218  21.242  0.00  0.00    +0.000 C 
ATOM     21  H   UNL     1      -2.486  11.271  19.219  0.00  0.00    +0.000 HD
ENDBRANCH   6  11
BRANCH   9  22
ATOM     22  C   UNL     1       5.058   5.475  16.733  0.00  0.00    +0.000 A 
ATOM     23  C   UNL     1       6.409   5.876  16.818  0.00  0.00    +0.000 A 
ATOM     24  C   UNL     1       7.318   5.598  15.785  0.00  0.00    +0.000 A 
ATOM     25  C   UNL     1       6.865   4.918  14.666  0.00  0.00    +0.000 A 
ATOM     26  C   UNL     1       5.538   4.504  14.573  0.00  0.00    +0.000 A 
ATOM     27  C   UNL     1       4.647   4.777  15.596  0.00  0.00    +0.000 A 
ATOM     28  C   UNL     1       5.270   3.755  13.316  0.00  0.00    +0.000 C 
ATOM     29  C   UNL     1       6.626   3.779  12.592  0.00  0.00    +0.000 C 
ATOM     30  C   UNL     1       7.660   4.491  13.479  0.00  0.00    +0.000 C 
ENDBRANCH   9  22
TORSDOF 2
ENDMDL
MODEL 9
REMARK VINA RESULT:      -8.0      2.348      2.989
REMARK  Name = 
REMARK  3 active torsions:
REMARK  status: ('A' for Active; 'I' for Inactive)
REMARK    1  A    between atoms: C_1  and  C_2
REMARK    2  A    between atoms: C_6  and  C_8
REMARK    3  A    between atoms: C_19  and  C_20
REMARK                            x       y       z     vdW  Elec       q    Type
REMARK                         _______ _______ _______ _____ _____    ______ ____
ROOT
ATOM      1  C   UNL     1       2.194   4.800  20.863  0.00  0.00    +0.000 C 
ATOM      2  C   UNL     1       2.176   6.130  20.195  0.00  0.00    +0.000 A 
ATOM      3  S   UNL     1       1.071   7.340  20.746  0.00  0.00    +0.000 S 
ATOM      4  C   UNL     1       1.675   8.416  19.577  0.00  0.00    +0.000 A 
ATOM      5  N   UNL     1       1.086   9.647  19.574  0.00  0.00    +0.000 N 
ATOM      6  C   UNL     1       1.364  10.603  18.627  0.00  0.00    +0.000 C 
ATOM      7  O   UNL     1       2.102  10.474  17.649  0.00  0.00    +0.000 OA
ATOM      8  N   UNL     1       2.637   7.965  18.821  0.00  0.00    +0.000 NA
ATOM      9  C   UNL     1       2.950   6.664  19.170  0.00  0.00    +0.000 A 
ATOM     10  H   UNL     1       0.415   9.838  20.315  0.00  0.00    +0.000 HD
ENDROOT
BRANCH   6  11
ATOM     11  C   UNL     1       0.645  11.899  18.845  0.00  0.00    +0.000 A 
ATOM     12  C   UNL     1       1.370  13.016  19.073  0.00  0.00    +0.000 A 
ATOM     13  C   UNL     1       0.689  14.259  19.286  0.00  0.00    +0.000 A 
ATOM     14  C   UNL     1      -0.620  14.287  19.556  0.00  0.00    +0.000 A 
ATOM     15  N   UNL     1      -1.386  13.176  19.351  0.00  0.00    +0.000 N 
ATOM     16  C   UNL     1      -0.849  12.020  18.818  0.00  0.00    +0.000 A 
ATOM     17  O   UNL     1      -1.560  11.144  18.325  0.00  0.00    +0.000 OA
ATOM     18  C   UNL     1      -1.150  15.676  19.606  0.00  0.00    +0.000 C 
ATOM     19  C   UNL     1      -0.216  16.271  18.555  0.00  0.00    +0.000 C 
ATOM     20  C   UNL     1       1.151  15.622  18.876  0.00  0.00    +0.000 C 
ATOM     21  H   UNL     1      -2.391  13.268  19.282  0.00  0.00    +0.000 HD
ENDBRANCH   6  11
BRANCH   9  22
ATOM     22  C   UNL     1       4.067   6.008  18.491  0.00  0.00    +0.000 A 
ATOM     23  C   UNL     1       5.015   5.205  19.161  0.00  0.00    +0.000 A 
ATOM     24  C   UNL     1       6.059   4.577  18.466  0.00  0.00    +0.000 A 
ATOM     25  C   UNL     1       6.149   4.758  17.095  0.00  0.00    +0.000 A 
ATOM     26  C   UNL     1       5.214   5.538  16.417  0.00  0.00    +0.000 A 
ATOM     27  C   UNL     1       4.183   6.152  17.107  0.00  0.00    +0.000 A 
ATOM     28  C   UNL     1       5.465   5.567  14.951  0.00  0.00    +0.000 C 
ATOM     29  C   UNL     1       6.732   4.713  14.790  0.00  0.00    +0.000 C 
ATOM     30  C   UNL     1       7.147   4.161  16.163  0.00  0.00    +0.000 C 
ENDBRANCH   9  22
TORSDOF 2
ENDMDL
