MODEL 1
REMARK VINA RESULT:      -9.0      0.000      0.000
REMARK  Name = 
REMARK  9 active torsions:
REMARK  status: ('A' for Active; 'I' for Inactive)
REMARK    1  A    between atoms: C_1  and  C_2
REMARK    2  A    between atoms: C_6  and  C_7
REMARK    3  A    between atoms: N_13  and  C_14
REMARK    4  A    between atoms: C_18  and  C_19
REMARK    5  A    between atoms: C_19  and  C_20
REMARK    6  A    between atoms: C_20  and  N_21
REMARK    7  A    between atoms: N_21  and  C_22
REMARK    8  A    between atoms: C_22  and  C_23
REMARK    9  A    between atoms: N_27  and  C_28
REMARK                            x       y       z     vdW  Elec       q    Type
REMARK                         _______ _______ _______ _____ _____    ______ ____
ROOT
ATOM      1  C   UNL     1       2.749   6.080  19.261  0.00  0.00    +0.000 A 
ATOM      2  C   UNL     1       1.980   4.909  19.318  0.00  0.00    +0.000 A 
ATOM      3  C   UNL     1       2.552   3.645  19.194  0.00  0.00    +0.000 A 
ATOM      4  C   UNL     1       3.922   3.525  19.033  0.00  0.00    +0.000 A 
ATOM      5  C   UNL     1       4.725   4.674  18.959  0.00  0.00    +0.000 A 
ATOM      6  C   UNL     1       4.123   5.951  19.005  0.00  0.00    +0.000 A 
ENDROOT
BRANCH   1  15
ATOM      7  C   UNL     1      -0.293  12.803  18.690  0.00  0.00    +0.000 C 
ATOM      8  C   UNL     1       0.134  11.506  19.313  0.00  0.00    +0.000 A 
ATOM      9  C   UNL     1       0.877  10.594  18.573  0.00  0.00    +0.000 A 
ATOM     10  C   UNL     1       1.244   9.414  19.188  0.00  0.00    +0.000 A 
ATOM     11  C   UNL     1       0.903   9.062  20.491  0.00  0.00    +0.000 A 
ATOM     12  C   UNL     1       0.182   9.971  21.262  0.00  0.00    +0.000 A 
ATOM     13  C   UNL     1      -0.197  11.197  20.652  0.00  0.00    +0.000 A 
ATOM     14  C   UNL     1       1.419   7.674  20.769  0.00  0.00    +0.000 C 
ATOM     15  N   UNL     1       2.143   7.333  19.548  0.00  0.00    +0.000 N 
ATOM     16  C   UNL     1       2.027   8.344  18.591  0.00  0.00    +0.000 C 
ATOM     17  O   UNL     1       2.414   8.415  17.443  0.00  0.00    +0.000 OA
BRANCH  12  18
ATOM     18  C   UNL     1      -0.191   9.723  22.700  0.00  0.00    +0.000 C 
ATOM     19  F   UNL     1       0.880   9.494  23.509  0.00  0.00    +0.000 F 
ATOM     20  F   UNL     1      -0.856  10.775  23.250  0.00  0.00    +0.000 F 
ATOM     21  F   UNL     1      -1.008   8.644  22.846  0.00  0.00    +0.000 F 
ENDBRANCH  12  18
ENDBRANCH   1  15
BRANCH   5  22
ATOM     22  C   UNL     1       6.229   4.498  18.910  0.00  0.00    +0.000 C 
BRANCH  22  23
ATOM     23  C   UNL     1       6.783   4.736  17.497  0.00  0.00    +0.000 C 
BRANCH  23  24
ATOM     24  N   UNL     1       6.353   3.690  16.558  0.00  0.00    +0.000 NA
ATOM     25  H   UNL     1       5.685   3.075  17.027  0.00  0.00    +0.000 HD
BRANCH  24  26
ATOM     26  C   UNL     1       5.662   4.316  15.420  0.00  0.00    +0.000 C 
BRANCH  26  27
ATOM     27  C   UNL     1       6.607   4.714  14.341  0.00  0.00    +0.000 A 
ATOM     28  N   UNL     1       7.618   5.555  14.465  0.00  0.00    +0.000 NA
ATOM     29  N   UNL     1       8.289   5.600  13.267  0.00  0.00    +0.000 NA
ATOM     30  C   UNL     1       7.670   4.795  12.435  0.00  0.00    +0.000 A 
ATOM     31  N   UNL     1       6.606   4.224  13.061  0.00  0.00    +0.000 N 
ATOM     32  C   UNL     1       5.679   3.293  12.477  0.00  0.00    +0.000 C 
ENDBRANCH  26  27
ENDBRANCH  24  26
ENDBRANCH  23  24
ENDBRANCH  22  23
ENDBRANCH   5  22
TORSDOF 7
ENDMDL
MODEL 2
REMARK VINA RESULT:      -8.6      1.776      2.737
REMARK  Name = 
REMARK  9 active torsions:
REMARK  status: ('A' for Active; 'I' for Inactive)
REMARK    1  A    between atoms: C_1  and  C_2
REMARK    2  A    between atoms: C_6  and  C_7
REMARK    3  A    between atoms: N_13  and  C_14
REMARK    4  A    between atoms: C_18  and  C_19
REMARK    5  A    between atoms: C_19  and  C_20
REMARK    6  A    between atoms: C_20  and  N_21
REMARK    7  A    between atoms: N_21  and  C_22
REMARK    8  A    between atoms: C_22  and  C_23
REMARK    9  A    between atoms: N_27  and  C_28
REMARK                            x       y       z     vdW  Elec       q    Type
REMARK                         _______ _______ _______ _____ _____    ______ ____
ROOT
ATOM      1  C   UNL     1       2.312   5.408  19.876  0.00  0.00    +0.000 A 
ATOM      2  C   UNL     1       2.082   4.516  20.935  0.00  0.00    +0.000 A 
ATOM      3  C   UNL     1       2.545   3.202  20.905  0.00  0.00    +0.000 A 
ATOM      4  C   UNL     1       3.274   2.757  19.815  0.00  0.00    +0.000 A 
ATOM      5  C   UNL     1       3.515   3.615  18.731  0.00  0.00    +0.000 A 
ATOM      6  C   UNL     1       2.972   4.919  18.739  0.00  0.00    +0.000 A 
ENDROOT
BRANCH   1  15
ATOM      7  C   UNL     1       0.798  12.535  18.582  0.00  0.00    +0.000 C 
ATOM      8  C   UNL     1       0.889  11.234  19.325  0.00  0.00    +0.000 A 
ATOM      9  C   UNL     1       1.488  10.135  18.722  0.00  0.00    +0.000 A 
ATOM     10  C   UNL     1       1.546   8.959  19.443  0.00  0.00    +0.000 A 
ATOM     11  C   UNL     1       1.027   8.791  20.724  0.00  0.00    +0.000 A 
ATOM     12  C   UNL     1       0.446   9.886  21.360  0.00  0.00    +0.000 A 
ATOM     13  C   UNL     1       0.386  11.109  20.640  0.00  0.00    +0.000 A 
ATOM     14  C   UNL     1       1.217   7.354  21.139  0.00  0.00    +0.000 C 
ATOM     15  N   UNL     1       1.957   6.776  20.022  0.00  0.00    +0.000 N 
ATOM     16  C   UNL     1       2.138   7.708  18.997  0.00  0.00    +0.000 C 
ATOM     17  O   UNL     1       2.630   7.605  17.892  0.00  0.00    +0.000 OA
BRANCH  12  18
ATOM     18  C   UNL     1      -0.094   9.836  22.764  0.00  0.00    +0.000 C 
ATOM     19  F   UNL     1      -1.112   8.946  22.925  0.00  0.00    +0.000 F 
ATOM     20  F   UNL     1       0.857   9.481  23.671  0.00  0.00    +0.000 F 
ATOM     21  F   UNL     1      -0.578  11.038  23.178  0.00  0.00    +0.000 F 
ENDBRANCH  12  18
ENDBRANCH   1  15
BRANCH   5  22
ATOM     22  C   UNL     1       4.423   3.131  17.619  0.00  0.00    +0.000 C 
BRANCH  22  23
ATOM     23  C   UNL     1       4.464   4.123  16.447  0.00  0.00    +0.000 C 
BRANCH  23  24
ATOM     24  N   UNL     1       5.837   4.358  15.977  0.00  0.00    +0.000 NA
ATOM     25  H   UNL     1       5.878   5.266  15.509  0.00  0.00    +0.000 HD
BRANCH  24  26
ATOM     26  C   UNL     1       6.743   4.410  17.134  0.00  0.00    +0.000 C 
BRANCH  26  27
ATOM     27  C   UNL     1       7.277   5.780  17.368  0.00  0.00    +0.000 A 
ATOM     28  N   UNL     1       7.329   6.755  16.479  0.00  0.00    +0.000 NA
ATOM     29  N   UNL     1       7.818   7.878  17.101  0.00  0.00    +0.000 NA
ATOM     30  C   UNL     1       8.062   7.565  18.351  0.00  0.00    +0.000 A 
ATOM     31  N   UNL     1       7.746   6.259  18.563  0.00  0.00    +0.000 N 
ATOM     32  C   UNL     1       7.883   5.544  19.803  0.00  0.00    +0.000 C 
ENDBRANCH  26  27
ENDBRANCH  24  26
ENDBRANCH  23  24
ENDBRANCH  22  23
ENDBRANCH   5  22
TORSDOF 7
ENDMDL
MODEL 3
REMARK VINA RESULT:      -8.5      4.021      8.885
REMARK  Name = 
REMARK  9 active torsions:
REMARK  status: ('A' for Active; 'I' for Inactive)
REMARK    1  A    between atoms: C_1  and  C_2
REMARK    2  A    between atoms: C_6  and  C_7
REMARK    3  A    between atoms: N_13  and  C_14
REMARK    4  A    between atoms: C_18  and  C_19
REMARK    5  A    between atoms: C_19  and  C_20
REMARK    6  A    between atoms: C_20  and  N_21
REMARK    7  A    between atoms: N_21  and  C_22
REMARK    8  A    between atoms: C_22  and  C_23
REMARK    9  A    between atoms: N_27  and  C_28
REMARK                            x       y       z     vdW  Elec       q    Type
REMARK                         _______ _______ _______ _____ _____    ______ ____
ROOT
ATOM      1  C   UNL     1       1.660   8.175  19.817  0.00  0.00    +0.000 A 
ATOM      2  C   UNL     1       1.191   8.033  21.131  0.00  0.00    +0.000 A 
ATOM      3  C   UNL     1       0.492   9.051  21.777  0.00  0.00    +0.000 A 
ATOM      4  C   UNL     1       0.226  10.234  21.107  0.00  0.00    +0.000 A 
ATOM      5  C   UNL     1       0.689  10.418  19.795  0.00  0.00    +0.000 A 
ATOM      6  C   UNL     1       1.466   9.409  19.180  0.00  0.00    +0.000 A 
ENDROOT
BRANCH   1  15
ATOM      7  C   UNL     1       5.845   3.816  15.545  0.00  0.00    +0.000 C 
ATOM      8  C   UNL     1       4.843   4.207  16.591  0.00  0.00    +0.000 A 
ATOM      9  C   UNL     1       4.529   5.548  16.780  0.00  0.00    +0.000 A 
ATOM     10  C   UNL     1       3.603   5.860  17.756  0.00  0.00    +0.000 A 
ATOM     11  C   UNL     1       2.978   4.928  18.578  0.00  0.00    +0.000 A 
ATOM     12  C   UNL     1       3.254   3.575  18.389  0.00  0.00    +0.000 A 
ATOM     13  C   UNL     1       4.196   3.231  17.383  0.00  0.00    +0.000 A 
ATOM     14  C   UNL     1       2.099   5.660  19.560  0.00  0.00    +0.000 C 
ATOM     15  N   UNL     1       2.227   7.055  19.151  0.00  0.00    +0.000 N 
ATOM     16  C   UNL     1       3.136   7.193  18.099  0.00  0.00    +0.000 C 
ATOM     17  O   UNL     1       3.567   8.175  17.530  0.00  0.00    +0.000 OA
BRANCH  12  18
ATOM     18  C   UNL     1       2.593   2.478  19.179  0.00  0.00    +0.000 C 
ATOM     19  F   UNL     1       2.882   2.513  20.510  0.00  0.00    +0.000 F 
ATOM     20  F   UNL     1       1.236   2.523  19.091  0.00  0.00    +0.000 F 
ATOM     21  F   UNL     1       2.956   1.238  18.751  0.00  0.00    +0.000 F 
ENDBRANCH  12  18
ENDBRANCH   1  15
BRANCH   5  22
ATOM     22  C   UNL     1       0.269  11.670  19.053  0.00  0.00    +0.000 C 
BRANCH  22  23
ATOM     23  C   UNL     1      -0.856  12.415  19.787  0.00  0.00    +0.000 C 
BRANCH  23  24
ATOM     24  N   UNL     1      -1.997  12.692  18.902  0.00  0.00    +0.000 NA
ATOM     25  H   UNL     1      -1.647  12.938  17.975  0.00  0.00    +0.000 HD
BRANCH  24  26
ATOM     26  C   UNL     1      -2.810  11.474  18.765  0.00  0.00    +0.000 C 
BRANCH  26  27
ATOM     27  C   UNL     1      -2.993  11.079  17.342  0.00  0.00    +0.000 A 
ATOM     28  N   UNL     1      -2.129  10.405  16.606  0.00  0.00    +0.000 NA
ATOM     29  N   UNL     1      -2.697  10.177  15.376  0.00  0.00    +0.000 NA
ATOM     30  C   UNL     1      -3.890  10.724  15.382  0.00  0.00    +0.000 A 
ATOM     31  N   UNL     1      -4.117  11.307  16.590  0.00  0.00    +0.000 N 
ATOM     32  C   UNL     1      -5.306  12.016  16.980  0.00  0.00    +0.000 C 
ENDBRANCH  26  27
ENDBRANCH  24  26
ENDBRANCH  23  24
ENDBRANCH  22  23
ENDBRANCH   5  22
TORSDOF 7
ENDMDL
MODEL 4
REMARK VINA RESULT:      -8.5      1.608      2.598
REMARK  Name = 
REMARK  9 active torsions:
REMARK  status: ('A' for Active; 'I' for Inactive)
REMARK    1  A    between atoms: C_1  and  C_2
REMARK    2  A    between atoms: C_6  and  C_7
REMARK    3  A    between atoms: N_13  and  C_14
REMARK    4  A    between atoms: C_18  and  C_19
REMARK    5  A    between atoms: C_19  and  C_20
REMARK    6  A    between atoms: C_20  and  N_21
REMARK    7  A    between atoms: N_21  and  C_22
REMARK    8  A    between atoms: C_22  and  C_23
REMARK    9  A    between atoms: N_27  and  C_28
REMARK                            x       y       z     vdW  Elec       q    Type
REMARK                         _______ _______ _______ _____ _____    ______ ____
ROOT
ATOM      1  C   UNL     1       2.199   5.713  19.720  0.00  0.00    +0.000 A 
ATOM      2  C   UNL     1       2.234   4.826  20.806  0.00  0.00    +0.000 A 
ATOM      3  C   UNL     1       2.723   3.527  20.680  0.00  0.00    +0.000 A 
ATOM      4  C   UNL     1       3.213   3.094  19.460  0.00  0.00    +0.000 A 
ATOM      5  C   UNL     1       3.185   3.948  18.347  0.00  0.00    +0.000 A 
ATOM      6  C   UNL     1       2.612   5.234  18.468  0.00  0.00    +0.000 A 
ENDROOT
BRANCH   1  15
ATOM      7  C   UNL     1       0.657  12.891  18.790  0.00  0.00    +0.000 C 
ATOM      8  C   UNL     1       0.752  11.554  19.465  0.00  0.00    +0.000 A 
ATOM      9  C   UNL     1       1.357  10.489  18.808  0.00  0.00    +0.000 A 
ATOM     10  C   UNL     1       1.419   9.278  19.468  0.00  0.00    +0.000 A 
ATOM     11  C   UNL     1       0.898   9.043  20.737  0.00  0.00    +0.000 A 
ATOM     12  C   UNL     1       0.311  10.101  21.427  0.00  0.00    +0.000 A 
ATOM     13  C   UNL     1       0.247  11.359  20.771  0.00  0.00    +0.000 A 
ATOM     14  C   UNL     1       1.092   7.587  21.078  0.00  0.00    +0.000 C 
ATOM     15  N   UNL     1       1.837   7.071  19.935  0.00  0.00    +0.000 N 
ATOM     16  C   UNL     1       2.016   8.054  18.959  0.00  0.00    +0.000 C 
ATOM     17  O   UNL     1       2.511   8.011  17.852  0.00  0.00    +0.000 OA
BRANCH  12  18
ATOM     18  C   UNL     1      -0.232   9.977  22.826  0.00  0.00    +0.000 C 
ATOM     19  F   UNL     1       0.706   9.614  23.744  0.00  0.00    +0.000 F 
ATOM     20  F   UNL     1      -0.764  11.145  23.279  0.00  0.00    +0.000 F 
ATOM     21  F   UNL     1      -1.224   9.051  22.918  0.00  0.00    +0.000 F 
ENDBRANCH  12  18
ENDBRANCH   1  15
BRANCH   5  22
ATOM     22  C   UNL     1       3.845   3.482  17.065  0.00  0.00    +0.000 C 
BRANCH  22  23
ATOM     23  C   UNL     1       4.815   4.536  16.510  0.00  0.00    +0.000 C 
BRANCH  23  24
ATOM     24  N   UNL     1       5.889   3.926  15.713  0.00  0.00    +0.000 NA
ATOM     25  H   UNL     1       5.599   3.891  14.734  0.00  0.00    +0.000 HD
BRANCH  24  26
ATOM     26  C   UNL     1       7.091   4.769  15.795  0.00  0.00    +0.000 C 
BRANCH  26  27
ATOM     27  C   UNL     1       7.435   5.120  17.199  0.00  0.00    +0.000 A 
ATOM     28  N   UNL     1       7.852   4.281  18.130  0.00  0.00    +0.000 NA
ATOM     29  N   UNL     1       8.132   5.002  19.265  0.00  0.00    +0.000 NA
ATOM     30  C   UNL     1       7.874   6.263  19.009  0.00  0.00    +0.000 A 
ATOM     31  N   UNL     1       7.428   6.385  17.729  0.00  0.00    +0.000 N 
ATOM     32  C   UNL     1       7.033   7.606  17.082  0.00  0.00    +0.000 C 
ENDBRANCH  26  27
ENDBRANCH  24  26
ENDBRANCH  23  24
ENDBRANCH  22  23
ENDBRANCH   5  22
TORSDOF 7
ENDMDL
MODEL 5
REMARK VINA RESULT:      -8.4      0.791      1.137
REMARK  Name = 
REMARK  9 active torsions:
REMARK  status: ('A' for Active; 'I' for Inactive)
REMARK    1  A    between atoms: C_1  and  C_2
REMARK    2  A    between atoms: C_6  and  C_7
REMARK    3  A    between atoms: N_13  and  C_14
REMARK    4  A    between atoms: C_18  and  C_19
REMARK    5  A    between atoms: C_19  and  C_20
REMARK    6  A    between atoms: C_20  and  N_21
REMARK    7  A    between atoms: N_21  and  C_22
REMARK    8  A    between atoms: C_22  and  C_23
REMARK    9  A    between atoms: N_27  and  C_28
REMARK                            x       y       z     vdW  Elec       q    Type
REMARK                         _______ _______ _______ _____ _____    ______ ____
ROOT
ATOM      1  C   UNL     1       2.147   5.503  19.896  0.00  0.00    +0.000 A 
ATOM      2  C   UNL     1       1.505   4.530  20.676  0.00  0.00    +0.000 A 
ATOM      3  C   UNL     1       1.900   3.194  20.660  0.00  0.00    +0.000 A 
ATOM      4  C   UNL     1       2.972   2.805  19.874  0.00  0.00    +0.000 A 
ATOM      5  C   UNL     1       3.633   3.747  19.070  0.00  0.00    +0.000 A 
ATOM      6  C   UNL     1       3.171   5.082  19.034  0.00  0.00    +0.000 A 
ENDROOT
BRANCH   1  15
ATOM      7  C   UNL     1       0.714  12.668  18.720  0.00  0.00    +0.000 C 
ATOM      8  C   UNL     1       0.793  11.354  19.443  0.00  0.00    +0.000 A 
ATOM      9  C   UNL     1       1.375  10.257  18.819  0.00  0.00    +0.000 A 
ATOM     10  C   UNL     1       1.423   9.069  19.522  0.00  0.00    +0.000 A 
ATOM     11  C   UNL     1       0.908   8.888  20.802  0.00  0.00    +0.000 A 
ATOM     12  C   UNL     1       0.344   9.979  21.459  0.00  0.00    +0.000 A 
ATOM     13  C   UNL     1       0.295  11.214  20.758  0.00  0.00    +0.000 A 
ATOM     14  C   UNL     1       1.082   7.442  21.194  0.00  0.00    +0.000 C 
ATOM     15  N   UNL     1       1.810   6.873  20.064  0.00  0.00    +0.000 N 
ATOM     16  C   UNL     1       1.997   7.819  19.053  0.00  0.00    +0.000 C 
ATOM     17  O   UNL     1       2.482   7.727  17.944  0.00  0.00    +0.000 OA
BRANCH  12  18
ATOM     18  C   UNL     1      -0.189   9.914  22.865  0.00  0.00    +0.000 C 
ATOM     19  F   UNL     1      -1.191   9.005  23.027  0.00  0.00    +0.000 F 
ATOM     20  F   UNL     1       0.772   9.573  23.767  0.00  0.00    +0.000 F 
ATOM     21  F   UNL     1      -0.693  11.105  23.286  0.00  0.00    +0.000 F 
ENDBRANCH  12  18
ENDBRANCH   1  15
BRANCH   5  22
ATOM     22  C   UNL     1       4.877   3.308  18.324  0.00  0.00    +0.000 C 
BRANCH  22  23
ATOM     23  C   UNL     1       5.704   4.510  17.843  0.00  0.00    +0.000 C 
BRANCH  23  24
ATOM     24  N   UNL     1       5.401   4.860  16.448  0.00  0.00    +0.000 NA
ATOM     25  H   UNL     1       5.809   5.773  16.238  0.00  0.00    +0.000 HD
BRANCH  24  26
ATOM     26  C   UNL     1       6.027   3.874  15.555  0.00  0.00    +0.000 C 
BRANCH  26  27
ATOM     27  C   UNL     1       6.816   4.520  14.470  0.00  0.00    +0.000 A 
ATOM     28  N   UNL     1       7.766   5.423  14.633  0.00  0.00    +0.000 NA
ATOM     29  N   UNL     1       8.298   5.714  13.401  0.00  0.00    +0.000 NA
ATOM     30  C   UNL     1       7.658   4.992  12.511  0.00  0.00    +0.000 A 
ATOM     31  N   UNL     1       6.716   4.233  13.134  0.00  0.00    +0.000 N 
ATOM     32  C   UNL     1       5.807   3.320  12.496  0.00  0.00    +0.000 C 
ENDBRANCH  26  27
ENDBRANCH  24  26
ENDBRANCH  23  24
ENDBRANCH  22  23
ENDBRANCH   5  22
TORSDOF 7
ENDMDL
MODEL 6
REMARK VINA RESULT:      -8.4      4.448      9.162
REMARK  Name = 
REMARK  9 active torsions:
REMARK  status: ('A' for Active; 'I' for Inactive)
REMARK    1  A    between atoms: C_1  and  C_2
REMARK    2  A    between atoms: C_6  and  C_7
REMARK    3  A    between atoms: N_13  and  C_14
REMARK    4  A    between atoms: C_18  and  C_19
REMARK    5  A    between atoms: C_19  and  C_20
REMARK    6  A    between atoms: C_20  and  N_21
REMARK    7  A    between atoms: N_21  and  C_22
REMARK    8  A    between atoms: C_22  and  C_23
REMARK    9  A    between atoms: N_27  and  C_28
REMARK                            x       y       z     vdW  Elec       q    Type
REMARK                         _______ _______ _______ _____ _____    ______ ____
ROOT
ATOM      1  C   UNL     1       1.726   8.351  19.886  0.00  0.00    +0.000 A 
ATOM      2  C   UNL     1       1.259   8.300  21.208  0.00  0.00    +0.000 A 
ATOM      3  C   UNL     1       0.483   9.319  21.755  0.00  0.00    +0.000 A 
ATOM      4  C   UNL     1       0.135  10.410  20.976  0.00  0.00    +0.000 A 
ATOM      5  C   UNL     1       0.592  10.504  19.653  0.00  0.00    +0.000 A 
ATOM      6  C   UNL     1       1.445   9.503  19.135  0.00  0.00    +0.000 A 
ENDROOT
BRANCH   1  15
ATOM      7  C   UNL     1       3.679   1.446  18.076  0.00  0.00    +0.000 C 
ATOM      8  C   UNL     1       3.640   2.946  18.042  0.00  0.00    +0.000 A 
ATOM      9  C   UNL     1       2.865   3.639  18.964  0.00  0.00    +0.000 A 
ATOM     10  C   UNL     1       2.858   5.018  18.892  0.00  0.00    +0.000 A 
ATOM     11  C   UNL     1       3.555   5.763  17.946  0.00  0.00    +0.000 A 
ATOM     12  C   UNL     1       4.362   5.093  17.028  0.00  0.00    +0.000 A 
ATOM     13  C   UNL     1       4.392   3.674  17.092  0.00  0.00    +0.000 A 
ATOM     14  C   UNL     1       3.235   7.222  18.145  0.00  0.00    +0.000 C 
ATOM     15  N   UNL     1       2.379   7.219  19.328  0.00  0.00    +0.000 N 
ATOM     16  C   UNL     1       2.125   5.918  19.767  0.00  0.00    +0.000 C 
ATOM     17  O   UNL     1       1.417   5.491  20.656  0.00  0.00    +0.000 OA
BRANCH  12  18
ATOM     18  C   UNL     1       5.206   5.797  15.999  0.00  0.00    +0.000 C 
ATOM     19  F   UNL     1       5.397   5.073  14.862  0.00  0.00    +0.000 F 
ATOM     20  F   UNL     1       4.657   6.978  15.601  0.00  0.00    +0.000 F 
ATOM     21  F   UNL     1       6.448   6.099  16.464  0.00  0.00    +0.000 F 
ENDBRANCH  12  18
ENDBRANCH   1  15
BRANCH   5  22
ATOM     22  C   UNL     1       0.086  11.647  18.796  0.00  0.00    +0.000 C 
BRANCH  22  23
ATOM     23  C   UNL     1      -0.925  12.520  19.555  0.00  0.00    +0.000 C 
BRANCH  23  24
ATOM     24  N   UNL     1      -2.216  12.597  18.855  0.00  0.00    +0.000 NA
ATOM     25  H   UNL     1      -2.066  12.987  17.922  0.00  0.00    +0.000 HD
BRANCH  24  26
ATOM     26  C   UNL     1      -2.758  11.240  18.690  0.00  0.00    +0.000 C 
BRANCH  26  27
ATOM     27  C   UNL     1      -2.974  10.892  17.260  0.00  0.00    +0.000 A 
ATOM     28  N   UNL     1      -2.169  10.164  16.507  0.00  0.00    +0.000 NA
ATOM     29  N   UNL     1      -2.755  10.010  15.274  0.00  0.00    +0.000 NA
ATOM     30  C   UNL     1      -3.899  10.653  15.295  0.00  0.00    +0.000 A 
ATOM     31  N   UNL     1      -4.076  11.227  16.516  0.00  0.00    +0.000 N 
ATOM     32  C   UNL     1      -5.203  12.022  16.923  0.00  0.00    +0.000 C 
ENDBRANCH  26  27
ENDBRANCH  24  26
ENDBRANCH  23  24
ENDBRANCH  22  23
ENDBRANCH   5  22
TORSDOF 7
ENDMDL
MODEL 7
REMARK VINA RESULT:      -8.3      0.784      1.177
REMARK  Name = 
REMARK  9 active torsions:
REMARK  status: ('A' for Active; 'I' for Inactive)
REMARK    1  A    between atoms: C_1  and  C_2
REMARK    2  A    between atoms: C_6  and  C_7
REMARK    3  A    between atoms: N_13  and  C_14
REMARK    4  A    between atoms: C_18  and  C_19
REMARK    5  A    between atoms: C_19  and  C_20
REMARK    6  A    between atoms: C_20  and  N_21
REMARK    7  A    between atoms: N_21  and  C_22
REMARK    8  A    between atoms: C_22  and  C_23
REMARK    9  A    between atoms: N_27  and  C_28
REMARK                            x       y       z     vdW  Elec       q    Type
REMARK                         _______ _______ _______ _____ _____    ______ ____
ROOT
ATOM      1  C   UNL     1       2.894   6.368  18.895  0.00  0.00    +0.000 A 
ATOM      2  C   UNL     1       2.156   5.284  18.397  0.00  0.00    +0.000 A 
ATOM      3  C   UNL     1       2.742   4.043  18.153  0.00  0.00    +0.000 A 
ATOM      4  C   UNL     1       4.086   3.854  18.428  0.00  0.00    +0.000 A 
ATOM      5  C   UNL     1       4.861   4.917  18.916  0.00  0.00    +0.000 A 
ATOM      6  C   UNL     1       4.274   6.191  19.082  0.00  0.00    +0.000 A 
ENDROOT
BRANCH   1  15
ATOM      7  C   UNL     1      -0.556  12.914  18.812  0.00  0.00    +0.000 C 
ATOM      8  C   UNL     1      -0.039  11.609  19.343  0.00  0.00    +0.000 A 
ATOM      9  C   UNL     1       0.740  10.793  18.532  0.00  0.00    +0.000 A 
ATOM     10  C   UNL     1       1.192   9.601  19.063  0.00  0.00    +0.000 A 
ATOM     11  C   UNL     1       0.903   9.149  20.348  0.00  0.00    +0.000 A 
ATOM     12  C   UNL     1       0.147   9.962  21.190  0.00  0.00    +0.000 A 
ATOM     13  C   UNL     1      -0.318  11.199  20.667  0.00  0.00    +0.000 A 
ATOM     14  C   UNL     1       1.507   7.780  20.527  0.00  0.00    +0.000 C 
ATOM     15  N   UNL     1       2.221   7.561  19.273  0.00  0.00    +0.000 N 
ATOM     16  C   UNL     1       2.022   8.620  18.384  0.00  0.00    +0.000 C 
ATOM     17  O   UNL     1       2.377   8.785  17.235  0.00  0.00    +0.000 OA
BRANCH  12  18
ATOM     18  C   UNL     1      -0.176   9.603  22.616  0.00  0.00    +0.000 C 
ATOM     19  F   UNL     1      -0.943   8.484  22.735  0.00  0.00    +0.000 F 
ATOM     20  F   UNL     1       0.942   9.369  23.355  0.00  0.00    +0.000 F 
ATOM     21  F   UNL     1      -0.852  10.591  23.260  0.00  0.00    +0.000 F 
ENDBRANCH  12  18
ENDBRANCH   1  15
BRANCH   5  22
ATOM     22  C   UNL     1       6.293   4.635  19.323  0.00  0.00    +0.000 C 
BRANCH  22  23
ATOM     23  C   UNL     1       7.291   5.471  18.506  0.00  0.00    +0.000 C 
BRANCH  23  24
ATOM     24  N   UNL     1       7.525   4.895  17.174  0.00  0.00    +0.000 NA
ATOM     25  H   UNL     1       7.004   4.020  17.093  0.00  0.00    +0.000 HD
BRANCH  24  26
ATOM     26  C   UNL     1       7.012   5.819  16.151  0.00  0.00    +0.000 C 
BRANCH  26  27
ATOM     27  C   UNL     1       6.996   5.202  14.797  0.00  0.00    +0.000 A 
ATOM     28  N   UNL     1       7.789   5.520  13.789  0.00  0.00    +0.000 NA
ATOM     29  N   UNL     1       7.511   4.678  12.741  0.00  0.00    +0.000 NA
ATOM     30  C   UNL     1       6.550   3.870  13.124  0.00  0.00    +0.000 A 
ATOM     31  N   UNL     1       6.191   4.166  14.402  0.00  0.00    +0.000 N 
ATOM     32  C   UNL     1       5.167   3.509  15.168  0.00  0.00    +0.000 C 
ENDBRANCH  26  27
ENDBRANCH  24  26
ENDBRANCH  23  24
ENDBRANCH  22  23
ENDBRANCH   5  22
TORSDOF 7
ENDMDL
MODEL 8
REMARK VINA RESULT:      -8.3      2.932      4.430
REMARK  Name = 
REMARK  9 active torsions:
REMARK  status: ('A' for Active; 'I' for Inactive)
REMARK    1  A    between atoms: C_1  and  C_2
REMARK    2  A    between atoms: C_6  and  C_7
REMARK    3  A    between atoms: N_13  and  C_14
REMARK    4  A    between atoms: C_18  and  C_19
REMARK    5  A    between atoms: C_19  and  C_20
REMARK    6  A    between atoms: C_20  and  N_21
REMARK    7  A    between atoms: N_21  and  C_22
REMARK    8  A    between atoms: C_22  and  C_23
REMARK    9  A    between atoms: N_27  and  C_28
REMARK                            x       y       z     vdW  Elec       q    Type
REMARK                         _______ _______ _______ _____ _____    ______ ____
ROOT
ATOM      1  C   UNL     1       1.385   8.918  19.168  0.00  0.00    +0.000 A 
ATOM      2  C   UNL     1       2.093   9.106  17.971  0.00  0.00    +0.000 A 
ATOM      3  C   UNL     1       3.027   8.177  17.515  0.00  0.00    +0.000 A 
ATOM      4  C   UNL     1       3.256   7.021  18.242  0.00  0.00    +0.000 A 
ATOM      5  C   UNL     1       2.576   6.802  19.449  0.00  0.00    +0.000 A 
ATOM      6  C   UNL     1       1.692   7.789  19.942  0.00  0.00    +0.000 A 
ENDROOT
BRANCH   1  15
ATOM      7  C   UNL     1      -2.635  14.319  22.240  0.00  0.00    +0.000 C 
ATOM      8  C   UNL     1      -2.255  13.223  21.287  0.00  0.00    +0.000 A 
ATOM      9  C   UNL     1      -1.077  12.513  21.485  0.00  0.00    +0.000 A 
ATOM     10  C   UNL     1      -0.768  11.516  20.581  0.00  0.00    +0.000 A 
ATOM     11  C   UNL     1      -1.543  11.186  19.473  0.00  0.00    +0.000 A 
ATOM     12  C   UNL     1      -2.743  11.865  19.269  0.00  0.00    +0.000 A 
ATOM     13  C   UNL     1      -3.086  12.887  20.194  0.00  0.00    +0.000 A 
ATOM     14  C   UNL     1      -0.838  10.106  18.692  0.00  0.00    +0.000 C 
ATOM     15  N   UNL     1       0.335   9.813  19.509  0.00  0.00    +0.000 N 
ATOM     16  C   UNL     1       0.405  10.658  20.619  0.00  0.00    +0.000 C 
ATOM     17  O   UNL     1       1.246  10.783  21.485  0.00  0.00    +0.000 OA
BRANCH  12  18
ATOM     18  C   UNL     1      -3.688  11.552  18.140  0.00  0.00    +0.000 C 
ATOM     19  F   UNL     1      -4.819  12.312  18.149  0.00  0.00    +0.000 F 
ATOM     20  F   UNL     1      -3.118  11.748  16.919  0.00  0.00    +0.000 F 
ATOM     21  F   UNL     1      -4.107  10.258  18.155  0.00  0.00    +0.000 F 
ENDBRANCH  12  18
ENDBRANCH   1  15
BRANCH   5  22
ATOM     22  C   UNL     1       2.759   5.470  20.147  0.00  0.00    +0.000 C 
BRANCH  22  23
ATOM     23  C   UNL     1       2.337   4.296  19.251  0.00  0.00    +0.000 C 
BRANCH  23  24
ATOM     24  N   UNL     1       3.413   3.305  19.103  0.00  0.00    +0.000 NA
ATOM     25  H   UNL     1       3.010   2.367  19.153  0.00  0.00    +0.000 HD
BRANCH  24  26
ATOM     26  C   UNL     1       4.031   3.458  17.777  0.00  0.00    +0.000 C 
BRANCH  26  27
ATOM     27  C   UNL     1       5.407   4.018  17.861  0.00  0.00    +0.000 A 
ATOM     28  N   UNL     1       6.041   4.357  18.969  0.00  0.00    +0.000 NA
ATOM     29  N   UNL     1       7.310   4.761  18.632  0.00  0.00    +0.000 NA
ATOM     30  C   UNL     1       7.422   4.670  17.328  0.00  0.00    +0.000 A 
ATOM     31  N   UNL     1       6.253   4.216  16.801  0.00  0.00    +0.000 N 
ATOM     32  C   UNL     1       5.981   3.993  15.407  0.00  0.00    +0.000 C 
ENDBRANCH  26  27
ENDBRANCH  24  26
ENDBRANCH  23  24
ENDBRANCH  22  23
ENDBRANCH   5  22
TORSDOF 7
ENDMDL
MODEL 9
REMARK VINA RESULT:      -8.3      4.657     10.185
REMARK  Name = 
REMARK  9 active torsions:
REMARK  status: ('A' for Active; 'I' for Inactive)
REMARK    1  A    between atoms: C_1  and  C_2
REMARK    2  A    between atoms: C_6  and  C_7
REMARK    3  A    between atoms: N_13  and  C_14
REMARK    4  A    between atoms: C_18  and  C_19
REMARK    5  A    between atoms: C_19  and  C_20
REMARK    6  A    between atoms: C_20  and  N_21
REMARK    7  A    between atoms: N_21  and  C_22
REMARK    8  A    between atoms: C_22  and  C_23
REMARK    9  A    between atoms: N_27  and  C_28
REMARK                            x       y       z     vdW  Elec       q    Type
REMARK                         _______ _______ _______ _____ _____    ______ ____
ROOT
ATOM      1  C   UNL     1       1.047   8.898  20.582  0.00  0.00    +0.000 A 
ATOM      2  C   UNL     1       0.934   8.979  21.978  0.00  0.00    +0.000 A 
ATOM      3  C   UNL     1       0.280  10.038  22.604  0.00  0.00    +0.000 A 
ATOM      4  C   UNL     1      -0.300  11.035  21.837  0.00  0.00    +0.000 A 
ATOM      5  C   UNL     1      -0.199  10.996  20.438  0.00  0.00    +0.000 A 
ATOM      6  C   UNL     1       0.536   9.959  19.820  0.00  0.00    +0.000 A 
ENDROOT
BRANCH   1  15
ATOM      7  C   UNL     1       4.923   4.183  16.397  0.00  0.00    +0.000 C 
ATOM      8  C   UNL     1       4.022   4.667  17.496  0.00  0.00    +0.000 A 
ATOM      9  C   UNL     1       3.678   6.012  17.565  0.00  0.00    +0.000 A 
ATOM     10  C   UNL     1       2.850   6.411  18.595  0.00  0.00    +0.000 A 
ATOM     11  C   UNL     1       2.353   5.565  19.582  0.00  0.00    +0.000 A 
ATOM     12  C   UNL     1       2.661   4.207  19.518  0.00  0.00    +0.000 A 
ATOM     13  C   UNL     1       3.503   3.773  18.460  0.00  0.00    +0.000 A 
ATOM     14  C   UNL     1       1.555   6.383  20.565  0.00  0.00    +0.000 C 
ATOM     15  N   UNL     1       1.584   7.723  19.988  0.00  0.00    +0.000 N 
ATOM     16  C   UNL     1       2.369   7.762  18.834  0.00  0.00    +0.000 C 
ATOM     17  O   UNL     1       2.698   8.682  18.114  0.00  0.00    +0.000 OA
BRANCH  12  18
ATOM     18  C   UNL     1       2.131   3.192  20.496  0.00  0.00    +0.000 C 
ATOM     19  F   UNL     1       2.660   3.312  21.746  0.00  0.00    +0.000 F 
ATOM     20  F   UNL     1       0.782   3.280  20.652  0.00  0.00    +0.000 F 
ATOM     21  F   UNL     1       2.382   1.914  20.105  0.00  0.00    +0.000 F 
ENDBRANCH  12  18
ENDBRANCH   1  15
BRANCH   5  22
ATOM     22  C   UNL     1      -0.954  12.033  19.633  0.00  0.00    +0.000 C 
BRANCH  22  23
ATOM     23  C   UNL     1      -2.276  12.426  20.309  0.00  0.00    +0.000 C 
BRANCH  23  24
ATOM     24  N   UNL     1      -3.442  12.024  19.508  0.00  0.00    +0.000 NA
ATOM     25  H   UNL     1      -3.712  11.074  19.767  0.00  0.00    +0.000 HD
BRANCH  24  26
ATOM     26  C   UNL     1      -4.572  12.912  19.819  0.00  0.00    +0.000 C 
BRANCH  26  27
ATOM     27  C   UNL     1      -5.726  12.170  20.395  0.00  0.00    +0.000 A 
ATOM     28  N   UNL     1      -6.019  12.063  21.678  0.00  0.00    +0.000 NA
ATOM     29  N   UNL     1      -7.195  11.364  21.794  0.00  0.00    +0.000 NA
ATOM     30  C   UNL     1      -7.592  11.050  20.583  0.00  0.00    +0.000 A 
ATOM     31  N   UNL     1      -6.700  11.528  19.674  0.00  0.00    +0.000 N 
ATOM     32  C   UNL     1      -6.781  11.377  18.247  0.00  0.00    +0.000 C 
ENDBRANCH  26  27
ENDBRANCH  24  26
ENDBRANCH  23  24
ENDBRANCH  22  23
ENDBRANCH   5  22
TORSDOF 7
ENDMDL
