MODEL 1
REMARK VINA RESULT:      -8.8      0.000      0.000
REMARK  Name = 
REMARK  4 active torsions:
REMARK  status: ('A' for Active; 'I' for Inactive)
REMARK    1  A    between atoms: C_1  and  C_2
REMARK    2  A    between atoms: C_5  and  N_6
REMARK    3  A    between atoms: C_8  and  C_9
REMARK    4  A    between atoms: N_11  and  C_12
REMARK                            x       y       z     vdW  Elec       q    Type
REMARK                         _______ _______ _______ _____ _____    ______ ____
ROOT
ATOM      1  N   UNL     1       5.222   4.962  16.801  0.00  0.00    +0.000 N 
ATOM      2  N   UNL     1       5.893   5.918  17.597  0.00  0.00    +0.000 NA
ATOM      3  C   UNL     1       7.023   6.365  17.130  0.00  0.00    +0.000 C 
ATOM      4  N   UNL     1       7.596   5.972  15.945  0.00  0.00    +0.000 N 
ATOM      5  C   UNL     1       6.761   5.441  14.909  0.00  0.00    +0.000 C 
ATOM      6  C   UNL     1       5.570   4.692  15.457  0.00  0.00    +0.000 C 
ATOM      7  O   UNL     1       4.945   3.971  14.671  0.00  0.00    +0.000 OA
ATOM      8  H   UNL     1       8.335   6.607  15.631  0.00  0.00    +0.000 HD
ENDROOT
BRANCH   1  13
ATOM      9  C   UNL     1       0.521   2.335  18.895  0.00  0.00    +0.000 C 
ATOM     10  C   UNL     1       1.758   3.038  18.424  0.00  0.00    +0.000 A 
ATOM     11  C   UNL     1       2.931   2.322  18.204  0.00  0.00    +0.000 A 
ATOM     12  C   UNL     1       4.069   2.967  17.712  0.00  0.00    +0.000 A 
ATOM     13  C   UNL     1       4.076   4.338  17.407  0.00  0.00    +0.000 A 
ATOM     14  C   UNL     1       2.909   5.062  17.690  0.00  0.00    +0.000 A 
ATOM     15  C   UNL     1       1.760   4.417  18.178  0.00  0.00    +0.000 A 
ENDBRANCH   1  13
BRANCH   3  16
ATOM     16  C   UNL     1       7.845   7.427  17.889  0.00  0.00    +0.000 C 
ATOM     17  O   UNL     1       8.354   7.009  18.926  0.00  0.00    +0.000 OA
ATOM     18  N   UNL     1       7.858   8.718  17.400  0.00  0.00    +0.000 N 
ATOM     19  H   UNL     1       7.310   8.891  16.565  0.00  0.00    +0.000 HD
BRANCH  18  20
ATOM     20  C   UNL     1       8.446   9.822  18.076  0.00  0.00    +0.000 A 
ATOM     21  C   UNL     1       9.104   9.692  19.321  0.00  0.00    +0.000 A 
ATOM     22  C   UNL     1       9.585  10.802  20.026  0.00  0.00    +0.000 A 
ATOM     23  C   UNL     1       9.404  12.037  19.461  0.00  0.00    +0.000 A 
ATOM     24  C   UNL     1       8.804  12.182  18.235  0.00  0.00    +0.000 A 
ATOM     25  C   UNL     1       8.331  11.099  17.508  0.00  0.00    +0.000 A 
ATOM     26  O   UNL     1       8.718  13.492  17.865  0.00  0.00    +0.000 OA
ATOM     27  C   UNL     1       9.263  14.144  19.034  0.00  0.00    +0.000 C 
ATOM     28  O   UNL     1       9.766  13.221  20.019  0.00  0.00    +0.000 OA
ENDBRANCH  18  20
ENDBRANCH   3  16
TORSDOF 3
ENDMDL
MODEL 2
REMARK VINA RESULT:      -8.7      0.824      1.208
REMARK  Name = 
REMARK  4 active torsions:
REMARK  status: ('A' for Active; 'I' for Inactive)
REMARK    1  A    between atoms: C_1  and  C_2
REMARK    2  A    between atoms: C_5  and  N_6
REMARK    3  A    between atoms: C_8  and  C_9
REMARK    4  A    between atoms: N_11  and  C_12
REMARK                            x       y       z     vdW  Elec       q    Type
REMARK                         _______ _______ _______ _____ _____    ______ ____
ROOT
ATOM      1  N   UNL     1       5.231   5.076  17.440  0.00  0.00    +0.000 N 
ATOM      2  N   UNL     1       5.988   6.067  18.104  0.00  0.00    +0.000 NA
ATOM      3  C   UNL     1       7.034   6.514  17.470  0.00  0.00    +0.000 C 
ATOM      4  N   UNL     1       7.444   6.089  16.229  0.00  0.00    +0.000 N 
ATOM      5  C   UNL     1       6.483   5.510  15.338  0.00  0.00    +0.000 C 
ATOM      6  C   UNL     1       5.394   4.763  16.071  0.00  0.00    +0.000 C 
ATOM      7  O   UNL     1       4.680   4.006  15.404  0.00  0.00    +0.000 OA
ATOM      8  H   UNL     1       8.120   6.723  15.796  0.00  0.00    +0.000 HD
ENDROOT
BRANCH   1  13
ATOM      9  C   UNL     1       1.095   2.868  20.818  0.00  0.00    +0.000 C 
ATOM     10  C   UNL     1       2.155   3.382  19.892  0.00  0.00    +0.000 A 
ATOM     11  C   UNL     1       1.863   4.397  18.985  0.00  0.00    +0.000 A 
ATOM     12  C   UNL     1       2.865   4.915  18.160  0.00  0.00    +0.000 A 
ATOM     13  C   UNL     1       4.192   4.457  18.220  0.00  0.00    +0.000 A 
ATOM     14  C   UNL     1       4.462   3.393  19.093  0.00  0.00    +0.000 A 
ATOM     15  C   UNL     1       3.460   2.873  19.929  0.00  0.00    +0.000 A 
ENDBRANCH   1  13
BRANCH   3  16
ATOM     16  C   UNL     1       7.932   7.614  18.072  0.00  0.00    +0.000 C 
ATOM     17  O   UNL     1       8.591   7.238  19.038  0.00  0.00    +0.000 OA
ATOM     18  N   UNL     1       7.849   8.888  17.547  0.00  0.00    +0.000 N 
ATOM     19  H   UNL     1       7.184   9.025  16.794  0.00  0.00    +0.000 HD
BRANCH  18  20
ATOM     20  C   UNL     1       8.503  10.023  18.099  0.00  0.00    +0.000 A 
ATOM     21  C   UNL     1       9.320   9.948  19.252  0.00  0.00    +0.000 A 
ATOM     22  C   UNL     1       9.872  11.089  19.847  0.00  0.00    +0.000 A 
ATOM     23  C   UNL     1       9.601  12.300  19.265  0.00  0.00    +0.000 A 
ATOM     24  C   UNL     1       8.844  12.391  18.122  0.00  0.00    +0.000 A 
ATOM     25  C   UNL     1       8.297  11.276  17.504  0.00  0.00    +0.000 A 
ATOM     26  O   UNL     1       8.692  13.685  17.718  0.00  0.00    +0.000 OA
ATOM     27  C   UNL     1       9.375  14.387  18.781  0.00  0.00    +0.000 C 
ATOM     28  O   UNL     1      10.015  13.508  19.726  0.00  0.00    +0.000 OA
ENDBRANCH  18  20
ENDBRANCH   3  16
TORSDOF 3
ENDMDL
MODEL 3
REMARK VINA RESULT:      -8.6      1.127      1.878
REMARK  Name = 
REMARK  4 active torsions:
REMARK  status: ('A' for Active; 'I' for Inactive)
REMARK    1  A    between atoms: C_1  and  C_2
REMARK    2  A    between atoms: C_5  and  N_6
REMARK    3  A    between atoms: C_8  and  C_9
REMARK    4  A    between atoms: N_11  and  C_12
REMARK                            x       y       z     vdW  Elec       q    Type
REMARK                         _______ _______ _______ _____ _____    ______ ____
ROOT
ATOM      1  N   UNL     1       5.253   5.032  17.520  0.00  0.00    +0.000 N 
ATOM      2  N   UNL     1       5.982   6.079  18.127  0.00  0.00    +0.000 NA
ATOM      3  C   UNL     1       7.022   6.512  17.474  0.00  0.00    +0.000 C 
ATOM      4  N   UNL     1       7.450   6.023  16.263  0.00  0.00    +0.000 N 
ATOM      5  C   UNL     1       6.510   5.370  15.403  0.00  0.00    +0.000 C 
ATOM      6  C   UNL     1       5.433   4.642  16.173  0.00  0.00    +0.000 C 
ATOM      7  O   UNL     1       4.741   3.831  15.548  0.00  0.00    +0.000 OA
ATOM      8  H   UNL     1       8.114   6.646  15.796  0.00  0.00    +0.000 HD
ENDROOT
BRANCH   1  13
ATOM      9  C   UNL     1       1.181   2.906  21.027  0.00  0.00    +0.000 C 
ATOM     10  C   UNL     1       2.220   3.402  20.065  0.00  0.00    +0.000 A 
ATOM     11  C   UNL     1       1.936   4.464  19.213  0.00  0.00    +0.000 A 
ATOM     12  C   UNL     1       2.921   4.963  18.356  0.00  0.00    +0.000 A 
ATOM     13  C   UNL     1       4.224   4.436  18.330  0.00  0.00    +0.000 A 
ATOM     14  C   UNL     1       4.481   3.327  19.148  0.00  0.00    +0.000 A 
ATOM     15  C   UNL     1       3.496   2.826  20.016  0.00  0.00    +0.000 A 
ENDBRANCH   1  13
BRANCH   3  16
ATOM     16  C   UNL     1       7.891   7.666  18.014  0.00  0.00    +0.000 C 
ATOM     17  O   UNL     1       8.621   7.340  18.947  0.00  0.00    +0.000 OA
ATOM     18  N   UNL     1       7.711   8.927  17.480  0.00  0.00    +0.000 N 
ATOM     19  H   UNL     1       7.001   9.017  16.763  0.00  0.00    +0.000 HD
BRANCH  18  20
ATOM     20  C   UNL     1       8.332  10.102  17.984  0.00  0.00    +0.000 A 
ATOM     21  C   UNL     1       8.107  11.383  17.426  0.00  0.00    +0.000 A 
ATOM     22  C   UNL     1       8.804  12.516  17.862  0.00  0.00    +0.000 A 
ATOM     23  C   UNL     1       9.720  12.347  18.868  0.00  0.00    +0.000 A 
ATOM     24  C   UNL     1       9.926  11.120  19.450  0.00  0.00    +0.000 A 
ATOM     25  C   UNL     1       9.238   9.984  19.047  0.00  0.00    +0.000 A 
ATOM     26  O   UNL     1      10.883  11.174  20.420  0.00  0.00    +0.000 OA
ATOM     27  C   UNL     1      11.300  12.554  20.318  0.00  0.00    +0.000 C 
ATOM     28  O   UNL     1      10.514  13.320  19.384  0.00  0.00    +0.000 OA
ENDBRANCH  18  20
ENDBRANCH   3  16
TORSDOF 3
ENDMDL
MODEL 4
REMARK VINA RESULT:      -8.4      1.486      1.872
REMARK  Name = 
REMARK  4 active torsions:
REMARK  status: ('A' for Active; 'I' for Inactive)
REMARK    1  A    between atoms: C_1  and  C_2
REMARK    2  A    between atoms: C_5  and  N_6
REMARK    3  A    between atoms: C_8  and  C_9
REMARK    4  A    between atoms: N_11  and  C_12
REMARK                            x       y       z     vdW  Elec       q    Type
REMARK                         _______ _______ _______ _____ _____    ______ ____
ROOT
ATOM      1  N   UNL     1       5.291   5.196  17.982  0.00  0.00    +0.000 N 
ATOM      2  N   UNL     1       6.075   6.261  18.478  0.00  0.00    +0.000 NA
ATOM      3  C   UNL     1       7.027   6.688  17.699  0.00  0.00    +0.000 C 
ATOM      4  N   UNL     1       7.315   6.177  16.456  0.00  0.00    +0.000 N 
ATOM      5  C   UNL     1       6.287   5.499  15.725  0.00  0.00    +0.000 C 
ATOM      6  C   UNL     1       5.316   4.779  16.630  0.00  0.00    +0.000 C 
ATOM      7  O   UNL     1       4.564   3.949  16.107  0.00  0.00    +0.000 OA
ATOM      8  H   UNL     1       7.913   6.796  15.902  0.00  0.00    +0.000 HD
ENDROOT
BRANCH   1  13
ATOM      9  C   UNL     1       1.434   2.658  21.456  0.00  0.00    +0.000 C 
ATOM     10  C   UNL     1       2.466   3.350  20.618  0.00  0.00    +0.000 A 
ATOM     11  C   UNL     1       3.629   2.684  20.244  0.00  0.00    +0.000 A 
ATOM     12  C   UNL     1       4.565   3.309  19.416  0.00  0.00    +0.000 A 
ATOM     13  C   UNL     1       4.370   4.609  18.918  0.00  0.00    +0.000 A 
ATOM     14  C   UNL     1       3.225   5.294  19.350  0.00  0.00    +0.000 A 
ATOM     15  C   UNL     1       2.277   4.666  20.177  0.00  0.00    +0.000 A 
ENDBRANCH   1  13
BRANCH   3  16
ATOM     16  C   UNL     1       7.941   7.860  18.110  0.00  0.00    +0.000 C 
ATOM     17  O   UNL     1       8.721   7.583  19.018  0.00  0.00    +0.000 OA
ATOM     18  N   UNL     1       7.745   9.087  17.507  0.00  0.00    +0.000 N 
ATOM     19  H   UNL     1       6.994   9.143  16.829  0.00  0.00    +0.000 HD
BRANCH  18  20
ATOM     20  C   UNL     1       8.410  10.282  17.895  0.00  0.00    +0.000 A 
ATOM     21  C   UNL     1       8.023  11.558  17.423  0.00  0.00    +0.000 A 
ATOM     22  C   UNL     1       8.750  12.715  17.729  0.00  0.00    +0.000 A 
ATOM     23  C   UNL     1       9.861  12.574  18.519  0.00  0.00    +0.000 A 
ATOM     24  C   UNL     1      10.232  11.350  19.020  0.00  0.00    +0.000 A 
ATOM     25  C   UNL     1       9.521  10.190  18.746  0.00  0.00    +0.000 A 
ATOM     26  O   UNL     1      11.366  11.433  19.772  0.00  0.00    +0.000 OA
ATOM     27  C   UNL     1      11.698  12.831  19.614  0.00  0.00    +0.000 C 
ATOM     28  O   UNL     1      10.706  13.574  18.880  0.00  0.00    +0.000 OA
ENDBRANCH  18  20
ENDBRANCH   3  16
TORSDOF 3
ENDMDL
MODEL 5
REMARK VINA RESULT:      -8.3      6.425      9.561
REMARK  Name = 
REMARK  4 active torsions:
REMARK  status: ('A' for Active; 'I' for Inactive)
REMARK    1  A    between atoms: C_1  and  C_2
REMARK    2  A    between atoms: C_5  and  N_6
REMARK    3  A    between atoms: C_8  and  C_9
REMARK    4  A    between atoms: N_11  and  C_12
REMARK                            x       y       z     vdW  Elec       q    Type
REMARK                         _______ _______ _______ _____ _____    ______ ____
ROOT
ATOM      1  N   UNL     1       0.431  11.441  19.827  0.00  0.00    +0.000 N 
ATOM      2  N   UNL     1       0.886  10.119  19.629  0.00  0.00    +0.000 NA
ATOM      3  C   UNL     1       1.699   9.933  18.628  0.00  0.00    +0.000 C 
ATOM      4  N   UNL     1       2.127  10.916  17.769  0.00  0.00    +0.000 N 
ATOM      5  C   UNL     1       2.123  12.278  18.211  0.00  0.00    +0.000 C 
ATOM      6  C   UNL     1       1.008  12.564  19.189  0.00  0.00    +0.000 C 
ATOM      7  O   UNL     1       0.747  13.750  19.419  0.00  0.00    +0.000 OA
ATOM      8  H   UNL     1       2.943  10.635  17.219  0.00  0.00    +0.000 HD
ENDROOT
BRANCH   1  13
ATOM      9  C   UNL     1      -3.615  12.447  23.829  0.00  0.00    +0.000 C 
ATOM     10  C   UNL     1      -2.594  12.114  22.782  0.00  0.00    +0.000 A 
ATOM     11  C   UNL     1      -2.798  12.492  21.458  0.00  0.00    +0.000 A 
ATOM     12  C   UNL     1      -1.822  12.232  20.493  0.00  0.00    +0.000 A 
ATOM     13  C   UNL     1      -0.606  11.604  20.812  0.00  0.00    +0.000 A 
ATOM     14  C   UNL     1      -0.436  11.173  22.135  0.00  0.00    +0.000 A 
ATOM     15  C   UNL     1      -1.413  11.438  23.111  0.00  0.00    +0.000 A 
ENDBRANCH   1  13
BRANCH   3  16
ATOM     16  C   UNL     1       2.287   8.542  18.315  0.00  0.00    +0.000 C 
ATOM     17  O   UNL     1       2.554   8.375  17.127  0.00  0.00    +0.000 OA
ATOM     18  N   UNL     1       2.372   7.620  19.339  0.00  0.00    +0.000 N 
ATOM     19  H   UNL     1       2.028   7.918  20.245  0.00  0.00    +0.000 HD
BRANCH  18  20
ATOM     20  C   UNL     1       2.751   6.262  19.162  0.00  0.00    +0.000 A 
ATOM     21  C   UNL     1       4.053   5.788  19.450  0.00  0.00    +0.000 A 
ATOM     22  C   UNL     1       4.443   4.473  19.171  0.00  0.00    +0.000 A 
ATOM     23  C   UNL     1       3.509   3.641  18.609  0.00  0.00    +0.000 A 
ATOM     24  C   UNL     1       2.229   4.069  18.358  0.00  0.00    +0.000 A 
ATOM     25  C   UNL     1       1.811   5.363  18.639  0.00  0.00    +0.000 A 
ATOM     26  O   UNL     1       1.469   3.088  17.793  0.00  0.00    +0.000 OA
ATOM     27  C   UNL     1       2.445   2.032  17.651  0.00  0.00    +0.000 C 
ATOM     28  O   UNL     1       3.722   2.354  18.235  0.00  0.00    +0.000 OA
ENDBRANCH  18  20
ENDBRANCH   3  16
TORSDOF 3
ENDMDL
MODEL 6
REMARK VINA RESULT:      -8.3      6.937      9.686
REMARK  Name = 
REMARK  4 active torsions:
REMARK  status: ('A' for Active; 'I' for Inactive)
REMARK    1  A    between atoms: C_1  and  C_2
REMARK    2  A    between atoms: C_5  and  N_6
REMARK    3  A    between atoms: C_8  and  C_9
REMARK    4  A    between atoms: N_11  and  C_12
REMARK                            x       y       z     vdW  Elec       q    Type
REMARK                         _______ _______ _______ _____ _____    ______ ____
ROOT
ATOM      1  N   UNL     1      -0.806  11.564  18.326  0.00  0.00    +0.000 N 
ATOM      2  N   UNL     1      -0.212  10.282  18.362  0.00  0.00    +0.000 NA
ATOM      3  C   UNL     1       1.087  10.246  18.285  0.00  0.00    +0.000 C 
ATOM      4  N   UNL     1       1.899  11.348  18.167  0.00  0.00    +0.000 N 
ATOM      5  C   UNL     1       1.424  12.617  18.631  0.00  0.00    +0.000 C 
ATOM      6  C   UNL     1      -0.072  12.762  18.482  0.00  0.00    +0.000 C 
ATOM      7  O   UNL     1      -0.544  13.899  18.593  0.00  0.00    +0.000 OA
ATOM      8  H   UNL     1       2.880  11.143  18.376  0.00  0.00    +0.000 HD
ENDROOT
BRANCH   1  13
ATOM      9  C   UNL     1      -6.539  11.976  17.737  0.00  0.00    +0.000 C 
ATOM     10  C   UNL     1      -5.063  11.800  17.924  0.00  0.00    +0.000 A 
ATOM     11  C   UNL     1      -4.277  11.311  16.885  0.00  0.00    +0.000 A 
ATOM     12  C   UNL     1      -2.893  11.199  17.040  0.00  0.00    +0.000 A 
ATOM     13  C   UNL     1      -2.241  11.585  18.224  0.00  0.00    +0.000 A 
ATOM     14  C   UNL     1      -3.047  12.018  19.285  0.00  0.00    +0.000 A 
ATOM     15  C   UNL     1      -4.440  12.139  19.132  0.00  0.00    +0.000 A 
ENDBRANCH   1  13
BRANCH   3  16
ATOM     16  C   UNL     1       1.861   8.913  18.335  0.00  0.00    +0.000 C 
ATOM     17  O   UNL     1       2.373   8.599  17.264  0.00  0.00    +0.000 OA
ATOM     18  N   UNL     1       1.833   8.183  19.507  0.00  0.00    +0.000 N 
ATOM     19  H   UNL     1       1.288   8.571  20.269  0.00  0.00    +0.000 HD
BRANCH  18  20
ATOM     20  C   UNL     1       2.373   6.875  19.645  0.00  0.00    +0.000 A 
ATOM     21  C   UNL     1       3.364   6.362  18.775  0.00  0.00    +0.000 A 
ATOM     22  C   UNL     1       3.810   5.038  18.858  0.00  0.00    +0.000 A 
ATOM     23  C   UNL     1       3.257   4.242  19.827  0.00  0.00    +0.000 A 
ATOM     24  C   UNL     1       2.323   4.731  20.707  0.00  0.00    +0.000 A 
ATOM     25  C   UNL     1       1.874   6.044  20.658  0.00  0.00    +0.000 A 
ATOM     26  O   UNL     1       1.900   3.773  21.580  0.00  0.00    +0.000 OA
ATOM     27  C   UNL     1       2.619   2.619  21.091  0.00  0.00    +0.000 C 
ATOM     28  O   UNL     1       3.536   2.928  20.025  0.00  0.00    +0.000 OA
ENDBRANCH  18  20
ENDBRANCH   3  16
TORSDOF 3
ENDMDL
MODEL 7
REMARK VINA RESULT:      -8.3      1.442      1.480
REMARK  Name = 
REMARK  4 active torsions:
REMARK  status: ('A' for Active; 'I' for Inactive)
REMARK    1  A    between atoms: C_1  and  C_2
REMARK    2  A    between atoms: C_5  and  N_6
REMARK    3  A    between atoms: C_8  and  C_9
REMARK    4  A    between atoms: N_11  and  C_12
REMARK                            x       y       z     vdW  Elec       q    Type
REMARK                         _______ _______ _______ _____ _____    ______ ____
ROOT
ATOM      1  N   UNL     1       5.483   5.394  17.521  0.00  0.00    +0.000 N 
ATOM      2  N   UNL     1       5.874   6.694  17.913  0.00  0.00    +0.000 NA
ATOM      3  C   UNL     1       7.003   7.126  17.432  0.00  0.00    +0.000 C 
ATOM      4  N   UNL     1       7.825   6.414  16.591  0.00  0.00    +0.000 N 
ATOM      5  C   UNL     1       7.263   5.370  15.787  0.00  0.00    +0.000 C 
ATOM      6  C   UNL     1       6.097   4.687  16.461  0.00  0.00    +0.000 C 
ATOM      7  O   UNL     1       5.720   3.610  15.985  0.00  0.00    +0.000 OA
ATOM      8  H   UNL     1       8.521   7.001  16.125  0.00  0.00    +0.000 HD
ENDROOT
BRANCH   1  13
ATOM      9  C   UNL     1       0.910   2.920  20.043  0.00  0.00    +0.000 C 
ATOM     10  C   UNL     1       2.086   3.623  19.435  0.00  0.00    +0.000 A 
ATOM     11  C   UNL     1       3.377   3.337  19.871  0.00  0.00    +0.000 A 
ATOM     12  C   UNL     1       4.477   3.951  19.267  0.00  0.00    +0.000 A 
ATOM     13  C   UNL     1       4.335   4.855  18.200  0.00  0.00    +0.000 A 
ATOM     14  C   UNL     1       3.029   5.182  17.810  0.00  0.00    +0.000 A 
ATOM     15  C   UNL     1       1.919   4.563  18.410  0.00  0.00    +0.000 A 
ENDBRANCH   1  13
BRANCH   3  16
ATOM     16  C   UNL     1       7.534   8.535  17.763  0.00  0.00    +0.000 C 
ATOM     17  O   UNL     1       7.011   9.428  17.100  0.00  0.00    +0.000 OA
ATOM     18  N   UNL     1       8.568   8.650  18.671  0.00  0.00    +0.000 N 
ATOM     19  H   UNL     1       8.925   7.786  19.061  0.00  0.00    +0.000 HD
BRANCH  18  20
ATOM     20  C   UNL     1       9.250   9.864  18.955  0.00  0.00    +0.000 A 
ATOM     21  C   UNL     1       9.341  10.403  20.260  0.00  0.00    +0.000 A 
ATOM     22  C   UNL     1       9.924  11.651  20.510  0.00  0.00    +0.000 A 
ATOM     23  C   UNL     1      10.420  12.344  19.437  0.00  0.00    +0.000 A 
ATOM     24  C   UNL     1      10.379  11.822  18.167  0.00  0.00    +0.000 A 
ATOM     25  C   UNL     1       9.820  10.581  17.893  0.00  0.00    +0.000 A 
ATOM     26  O   UNL     1      10.917  12.677  17.251  0.00  0.00    +0.000 OA
ATOM     27  C   UNL     1      11.225  13.816  18.085  0.00  0.00    +0.000 C 
ATOM     28  O   UNL     1      10.978  13.581  19.485  0.00  0.00    +0.000 OA
ENDBRANCH  18  20
ENDBRANCH   3  16
TORSDOF 3
ENDMDL
MODEL 8
REMARK VINA RESULT:      -8.2      5.418      7.025
REMARK  Name = 
REMARK  4 active torsions:
REMARK  status: ('A' for Active; 'I' for Inactive)
REMARK    1  A    between atoms: C_1  and  C_2
REMARK    2  A    between atoms: C_5  and  N_6
REMARK    3  A    between atoms: C_8  and  C_9
REMARK    4  A    between atoms: N_11  and  C_12
REMARK                            x       y       z     vdW  Elec       q    Type
REMARK                         _______ _______ _______ _____ _____    ______ ____
ROOT
ATOM      1  N   UNL     1       3.728   5.306  18.833  0.00  0.00    +0.000 N 
ATOM      2  N   UNL     1       3.234   6.618  19.010  0.00  0.00    +0.000 NA
ATOM      3  C   UNL     1       2.298   6.766  19.903  0.00  0.00    +0.000 C 
ATOM      4  N   UNL     1       1.767   5.751  20.662  0.00  0.00    +0.000 N 
ATOM      5  C   UNL     1       2.546   4.571  20.891  0.00  0.00    +0.000 C 
ATOM      6  C   UNL     1       3.459   4.248  19.733  0.00  0.00    +0.000 C 
ATOM      7  O   UNL     1       3.965   3.121  19.707  0.00  0.00    +0.000 OA
ATOM      8  H   UNL     1       1.240   6.093  21.469  0.00  0.00    +0.000 HD
ENDROOT
BRANCH   1  13
ATOM      9  C   UNL     1       7.176   4.868  14.216  0.00  0.00    +0.000 C 
ATOM     10  C   UNL     1       6.316   4.918  15.443  0.00  0.00    +0.000 A 
ATOM     11  C   UNL     1       6.657   5.749  16.506  0.00  0.00    +0.000 A 
ATOM     12  C   UNL     1       5.826   5.838  17.626  0.00  0.00    +0.000 A 
ATOM     13  C   UNL     1       4.622   5.120  17.721  0.00  0.00    +0.000 A 
ATOM     14  C   UNL     1       4.319   4.239  16.673  0.00  0.00    +0.000 A 
ATOM     15  C   UNL     1       5.148   4.151  15.541  0.00  0.00    +0.000 A 
ENDBRANCH   1  13
BRANCH   3  16
ATOM     16  C   UNL     1       1.689   8.148  20.211  0.00  0.00    +0.000 C 
ATOM     17  O   UNL     1       1.452   8.329  21.403  0.00  0.00    +0.000 OA
ATOM     18  N   UNL     1       1.396   8.986  19.153  0.00  0.00    +0.000 N 
ATOM     19  H   UNL     1       1.594   8.629  18.225  0.00  0.00    +0.000 HD
BRANCH  18  20
ATOM     20  C   UNL     1       0.698  10.218  19.280  0.00  0.00    +0.000 A 
ATOM     21  C   UNL     1      -0.686  10.286  19.564  0.00  0.00    +0.000 A 
ATOM     22  C   UNL     1      -1.382  11.501  19.582  0.00  0.00    +0.000 A 
ATOM     23  C   UNL     1      -0.669  12.642  19.320  0.00  0.00    +0.000 A 
ATOM     24  C   UNL     1       0.683  12.603  19.081  0.00  0.00    +0.000 A 
ATOM     25  C   UNL     1       1.400  11.415  19.073  0.00  0.00    +0.000 A 
ATOM     26  O   UNL     1       1.190  13.845  18.838  0.00  0.00    +0.000 OA
ATOM     27  C   UNL     1      -0.012  14.645  18.875  0.00  0.00    +0.000 C 
ATOM     28  O   UNL     1      -1.184  13.897  19.254  0.00  0.00    +0.000 OA
ENDBRANCH  18  20
ENDBRANCH   3  16
TORSDOF 3
ENDMDL
MODEL 9
REMARK VINA RESULT:      -8.2      5.442      7.330
REMARK  Name = 
REMARK  4 active torsions:
REMARK  status: ('A' for Active; 'I' for Inactive)
REMARK    1  A    between atoms: C_1  and  C_2
REMARK    2  A    between atoms: C_5  and  N_6
REMARK    3  A    between atoms: C_8  and  C_9
REMARK    4  A    between atoms: N_11  and  C_12
REMARK                            x       y       z     vdW  Elec       q    Type
REMARK                         _______ _______ _______ _____ _____    ______ ____
ROOT
ATOM      1  N   UNL     1       4.193   4.140  18.937  0.00  0.00    +0.000 N 
ATOM      2  N   UNL     1       3.376   5.262  19.204  0.00  0.00    +0.000 NA
ATOM      3  C   UNL     1       2.487   5.117  20.144  0.00  0.00    +0.000 C 
ATOM      4  N   UNL     1       2.291   3.968  20.871  0.00  0.00    +0.000 N 
ATOM      5  C   UNL     1       3.370   3.034  21.004  0.00  0.00    +0.000 C 
ATOM      6  C   UNL     1       4.269   3.016  19.791  0.00  0.00    +0.000 C 
ATOM      7  O   UNL     1       5.056   2.069  19.684  0.00  0.00    +0.000 OA
ATOM      8  H   UNL     1       1.738   4.123  21.718  0.00  0.00    +0.000 HD
ENDROOT
BRANCH   1  13
ATOM      9  C   UNL     1       7.500   4.926  14.264  0.00  0.00    +0.000 C 
ATOM     10  C   UNL     1       6.667   4.648  15.478  0.00  0.00    +0.000 A 
ATOM     11  C   UNL     1       7.138   4.982  16.744  0.00  0.00    +0.000 A 
ATOM     12  C   UNL     1       6.339   4.775  17.872  0.00  0.00    +0.000 A 
ATOM     13  C   UNL     1       5.040   4.246  17.779  0.00  0.00    +0.000 A 
ATOM     14  C   UNL     1       4.598   3.857  16.506  0.00  0.00    +0.000 A 
ATOM     15  C   UNL     1       5.396   4.069  15.369  0.00  0.00    +0.000 A 
ENDBRANCH   1  13
BRANCH   3  16
ATOM     16  C   UNL     1       1.548   6.270  20.550  0.00  0.00    +0.000 C 
ATOM     17  O   UNL     1       0.420   5.900  20.867  0.00  0.00    +0.000 OA
ATOM     18  N   UNL     1       2.014   7.565  20.440  0.00  0.00    +0.000 N 
ATOM     19  H   UNL     1       2.956   7.678  20.083  0.00  0.00    +0.000 HD
BRANCH  18  20
ATOM     20  C   UNL     1       1.211   8.722  20.635  0.00  0.00    +0.000 A 
ATOM     21  C   UNL     1       0.928   9.639  19.596  0.00  0.00    +0.000 A 
ATOM     22  C   UNL     1       0.225  10.828  19.826  0.00  0.00    +0.000 A 
ATOM     23  C   UNL     1      -0.195  11.077  21.106  0.00  0.00    +0.000 A 
ATOM     24  C   UNL     1       0.034  10.182  22.122  0.00  0.00    +0.000 A 
ATOM     25  C   UNL     1       0.715   8.989  21.919  0.00  0.00    +0.000 A 
ATOM     26  O   UNL     1      -0.459  10.629  23.312  0.00  0.00    +0.000 OA
ATOM     27  C   UNL     1      -0.949  11.935  22.933  0.00  0.00    +0.000 C 
ATOM     28  O   UNL     1      -0.849  12.193  21.519  0.00  0.00    +0.000 OA
ENDBRANCH  18  20
ENDBRANCH   3  16
TORSDOF 3
ENDMDL
