MODEL 1
REMARK VINA RESULT:      -9.0      0.000      0.000
REMARK  Name = 
REMARK  7 active torsions:
REMARK  status: ('A' for Active; 'I' for Inactive)
REMARK    1  A    between atoms: C_1  and  C_2
REMARK    2  A    between atoms: C_2  and  C_3
REMARK    3  A    between atoms: C_6  and  C_7
REMARK    4  A    between atoms: C_11  and  N_12
REMARK    5  A    between atoms: C_17  and  N_18
REMARK    6  A    between atoms: C_22  and  C_23
REMARK    7  A    between atoms: N_30  and  C_31
REMARK                            x       y       z     vdW  Elec       q    Type
REMARK                         _______ _______ _______ _____ _____    ______ ____
ROOT
ATOM      1  N   UNL     1       3.751   4.647  19.484  0.00  0.00    +0.000 N 
ATOM      2  C   UNL     1       5.117   5.239  19.510  0.00  0.00    +0.000 C 
ATOM      3  C   UNL     1       5.619   4.929  18.130  0.00  0.00    +0.000 A 
ATOM      4  C   UNL     1       4.956   3.784  17.692  0.00  0.00    +0.000 A 
ATOM      5  C   UNL     1       5.023   3.310  16.390  0.00  0.00    +0.000 A 
ATOM      6  C   UNL     1       5.785   4.021  15.447  0.00  0.00    +0.000 A 
ATOM      7  C   UNL     1       6.472   5.179  15.918  0.00  0.00    +0.000 A 
ATOM      8  C   UNL     1       6.405   5.656  17.248  0.00  0.00    +0.000 A 
ATOM      9  C   UNL     1       3.870   3.494  18.661  0.00  0.00    +0.000 C 
ATOM     10  O   UNL     1       3.109   2.548  18.564  0.00  0.00    +0.000 OA
ENDROOT
BRANCH   1  15
ATOM     11  C   UNL     1       2.057   7.842  19.684  0.00  0.00    +0.000 A 
ATOM     12  C   UNL     1       2.592   8.318  18.481  0.00  0.00    +0.000 A 
ATOM     13  C   UNL     1       2.896   7.443  17.450  0.00  0.00    +0.000 A 
ATOM     14  C   UNL     1       2.873   6.080  17.691  0.00  0.00    +0.000 A 
ATOM     15  C   UNL     1       2.779   5.636  19.018  0.00  0.00    +0.000 A 
ATOM     16  C   UNL     1       2.184   6.478  19.965  0.00  0.00    +0.000 A 
BRANCH  11  20
ATOM     17  C   UNL     1       0.112  10.263  21.554  0.00  0.00    +0.000 A 
ATOM     18  N   UNL     1       0.772   9.666  22.522  0.00  0.00    +0.000 NA
ATOM     19  N   UNL     1       1.582   8.712  21.957  0.00  0.00    +0.000 NA
ATOM     20  C   UNL     1       1.432   8.748  20.647  0.00  0.00    +0.000 A 
ATOM     21  N   UNL     1       0.503   9.725  20.353  0.00  0.00    +0.000 N 
ATOM     22  C   UNL     1      -0.026  10.120  19.071  0.00  0.00    +0.000 C 
BRANCH  17  24
ATOM     23  C   UNL     1      -1.562  11.284  23.082  0.00  0.00    +0.000 C 
ATOM     24  C   UNL     1      -0.918  11.328  21.701  0.00  0.00    +0.000 C 
ENDBRANCH  17  24
ENDBRANCH  11  20
ENDBRANCH   1  15
BRANCH   8  25
ATOM     25  C   UNL     1       7.079   6.956  17.603  0.00  0.00    +0.000 C 
ATOM     26  F   UNL     1       7.986   7.377  16.682  0.00  0.00    +0.000 F 
ATOM     27  F   UNL     1       6.189   7.977  17.738  0.00  0.00    +0.000 F 
ATOM     28  F   UNL     1       7.752   6.886  18.785  0.00  0.00    +0.000 F 
ENDBRANCH   8  25
BRANCH   6  29
ATOM     29  N   UNL     1       5.920   3.765  14.086  0.00  0.00    +0.000 N 
ATOM     30  C   UNL     1       6.224   3.740  12.780  0.00  0.00    +0.000 C 
ATOM     31  C   UNL     1       6.913   4.506  13.577  0.00  0.00    +0.000 C 
ENDBRANCH   6  29
TORSDOF 5
ENDMDL
MODEL 2
REMARK VINA RESULT:      -7.9      4.269      8.828
REMARK  Name = 
REMARK  7 active torsions:
REMARK  status: ('A' for Active; 'I' for Inactive)
REMARK    1  A    between atoms: C_1  and  C_2
REMARK    2  A    between atoms: C_2  and  C_3
REMARK    3  A    between atoms: C_6  and  C_7
REMARK    4  A    between atoms: C_11  and  N_12
REMARK    5  A    between atoms: C_17  and  N_18
REMARK    6  A    between atoms: C_22  and  C_23
REMARK    7  A    between atoms: N_30  and  C_31
REMARK                            x       y       z     vdW  Elec       q    Type
REMARK                         _______ _______ _______ _____ _____    ______ ____
ROOT
ATOM      1  N   UNL     1       0.094   9.113  20.907  0.00  0.00    +0.000 N 
ATOM      2  C   UNL     1      -1.078   9.092  19.989  0.00  0.00    +0.000 C 
ATOM      3  C   UNL     1      -1.201  10.537  19.605  0.00  0.00    +0.000 A 
ATOM      4  C   UNL     1      -0.671  11.293  20.650  0.00  0.00    +0.000 A 
ATOM      5  C   UNL     1      -0.441  12.659  20.569  0.00  0.00    +0.000 A 
ATOM      6  C   UNL     1      -0.739  13.327  19.368  0.00  0.00    +0.000 A 
ATOM      7  C   UNL     1      -1.298  12.541  18.317  0.00  0.00    +0.000 A 
ATOM      8  C   UNL     1      -1.535  11.149  18.407  0.00  0.00    +0.000 A 
ATOM      9  C   UNL     1       0.004  10.359  21.585  0.00  0.00    +0.000 C 
ATOM     10  O   UNL     1       0.562  10.709  22.609  0.00  0.00    +0.000 OA
ENDROOT
BRANCH   1  15
ATOM     11  C   UNL     1       2.545   7.038  19.231  0.00  0.00    +0.000 A 
ATOM     12  C   UNL     1       2.269   7.559  17.961  0.00  0.00    +0.000 A 
ATOM     13  C   UNL     1       1.842   8.870  17.813  0.00  0.00    +0.000 A 
ATOM     14  C   UNL     1       1.482   9.594  18.937  0.00  0.00    +0.000 A 
ATOM     15  C   UNL     1       1.332   8.912  20.154  0.00  0.00    +0.000 A 
ATOM     16  C   UNL     1       2.037   7.717  20.343  0.00  0.00    +0.000 A 
BRANCH  11  20
ATOM     17  C   UNL     1       3.800   3.656  19.581  0.00  0.00    +0.000 A 
ATOM     18  N   UNL     1       4.920   4.327  19.430  0.00  0.00    +0.000 NA
ATOM     19  N   UNL     1       4.603   5.657  19.298  0.00  0.00    +0.000 NA
ATOM     20  C   UNL     1       3.295   5.794  19.394  0.00  0.00    +0.000 A 
ATOM     21  N   UNL     1       2.749   4.539  19.576  0.00  0.00    +0.000 N 
ATOM     22  C   UNL     1       1.363   4.159  19.699  0.00  0.00    +0.000 C 
BRANCH  17  24
ATOM     23  C   UNL     1       3.456   1.526  18.347  0.00  0.00    +0.000 C 
ATOM     24  C   UNL     1       3.655   2.180  19.709  0.00  0.00    +0.000 C 
ENDBRANCH  17  24
ENDBRANCH  11  20
ENDBRANCH   1  15
BRANCH   8  25
ATOM     25  C   UNL     1      -2.021  10.403  17.191  0.00  0.00    +0.000 C 
ATOM     26  F   UNL     1      -2.303  11.201  16.128  0.00  0.00    +0.000 F 
ATOM     27  F   UNL     1      -1.105   9.500  16.743  0.00  0.00    +0.000 F 
ATOM     28  F   UNL     1      -3.157   9.693  17.438  0.00  0.00    +0.000 F 
ENDBRANCH   8  25
BRANCH   6  29
ATOM     29  N   UNL     1      -0.513  14.664  19.053  0.00  0.00    +0.000 N 
ATOM     30  C   UNL     1      -0.023  15.883  18.787  0.00  0.00    +0.000 C 
ATOM     31  C   UNL     1       0.798  14.876  18.877  0.00  0.00    +0.000 C 
ENDBRANCH   6  29
TORSDOF 5
ENDMDL
MODEL 3
REMARK VINA RESULT:      -7.9      5.195      9.471
REMARK  Name = 
REMARK  7 active torsions:
REMARK  status: ('A' for Active; 'I' for Inactive)
REMARK    1  A    between atoms: C_1  and  C_2
REMARK    2  A    between atoms: C_2  and  C_3
REMARK    3  A    between atoms: C_6  and  C_7
REMARK    4  A    between atoms: C_11  and  N_12
REMARK    5  A    between atoms: C_17  and  N_18
REMARK    6  A    between atoms: C_22  and  C_23
REMARK    7  A    between atoms: N_30  and  C_31
REMARK                            x       y       z     vdW  Elec       q    Type
REMARK                         _______ _______ _______ _____ _____    ______ ____
ROOT
ATOM      1  N   UNL     1      -0.505  12.083  20.531  0.00  0.00    +0.000 N 
ATOM      2  C   UNL     1      -1.797  12.796  20.728  0.00  0.00    +0.000 C 
ATOM      3  C   UNL     1      -2.548  12.432  19.481  0.00  0.00    +0.000 A 
ATOM      4  C   UNL     1      -1.606  12.174  18.486  0.00  0.00    +0.000 A 
ATOM      5  C   UNL     1      -1.925  11.624  17.253  0.00  0.00    +0.000 A 
ATOM      6  C   UNL     1      -3.263  11.288  16.984  0.00  0.00    +0.000 A 
ATOM      7  C   UNL     1      -4.215  11.577  18.006  0.00  0.00    +0.000 A 
ATOM      8  C   UNL     1      -3.886  12.143  19.261  0.00  0.00    +0.000 A 
ATOM      9  C   UNL     1      -0.270  12.132  19.130  0.00  0.00    +0.000 C 
ATOM     10  O   UNL     1       0.768  11.934  18.526  0.00  0.00    +0.000 OA
ENDROOT
BRANCH   1  15
ATOM     11  C   UNL     1       0.808   8.758  21.116  0.00  0.00    +0.000 A 
ATOM     12  C   UNL     1       0.957   8.947  22.496  0.00  0.00    +0.000 A 
ATOM     13  C   UNL     1       0.100   9.789  23.188  0.00  0.00    +0.000 A 
ATOM     14  C   UNL     1      -0.763  10.608  22.480  0.00  0.00    +0.000 A 
ATOM     15  C   UNL     1      -0.580  10.735  21.094  0.00  0.00    +0.000 A 
ATOM     16  C   UNL     1       0.049   9.692  20.404  0.00  0.00    +0.000 A 
BRANCH  11  20
ATOM     17  C   UNL     1       2.673   6.492  18.988  0.00  0.00    +0.000 A 
ATOM     18  N   UNL     1       2.374   5.704  19.997  0.00  0.00    +0.000 NA
ATOM     19  N   UNL     1       1.637   6.431  20.900  0.00  0.00    +0.000 NA
ATOM     20  C   UNL     1       1.469   7.651  20.427  0.00  0.00    +0.000 A 
ATOM     21  N   UNL     1       2.115   7.727  19.209  0.00  0.00    +0.000 N 
ATOM     22  C   UNL     1       2.251   8.855  18.321  0.00  0.00    +0.000 C 
BRANCH  17  24
ATOM     23  C   UNL     1       4.943   5.854  18.203  0.00  0.00    +0.000 C 
ATOM     24  C   UNL     1       3.502   6.147  17.801  0.00  0.00    +0.000 C 
ENDBRANCH  17  24
ENDBRANCH  11  20
ENDBRANCH   1  15
BRANCH   8  25
ATOM     25  C   UNL     1      -4.960  12.296  20.307  0.00  0.00    +0.000 C 
ATOM     26  F   UNL     1      -4.508  12.177  21.584  0.00  0.00    +0.000 F 
ATOM     27  F   UNL     1      -5.570  13.511  20.244  0.00  0.00    +0.000 F 
ATOM     28  F   UNL     1      -5.950  11.371  20.173  0.00  0.00    +0.000 F 
ENDBRANCH   8  25
BRANCH   6  29
ATOM     29  N   UNL     1      -3.779  10.660  15.854  0.00  0.00    +0.000 N 
ATOM     30  C   UNL     1      -4.017  10.099  14.660  0.00  0.00    +0.000 C 
ATOM     31  C   UNL     1      -2.792  10.394  14.989  0.00  0.00    +0.000 C 
ENDBRANCH   6  29
TORSDOF 5
ENDMDL
MODEL 4
REMARK VINA RESULT:      -7.9      0.816      1.438
REMARK  Name = 
REMARK  7 active torsions:
REMARK  status: ('A' for Active; 'I' for Inactive)
REMARK    1  A    between atoms: C_1  and  C_2
REMARK    2  A    between atoms: C_2  and  C_3
REMARK    3  A    between atoms: C_6  and  C_7
REMARK    4  A    between atoms: C_11  and  N_12
REMARK    5  A    between atoms: C_17  and  N_18
REMARK    6  A    between atoms: C_22  and  C_23
REMARK    7  A    between atoms: N_30  and  C_31
REMARK                            x       y       z     vdW  Elec       q    Type
REMARK                         _______ _______ _______ _____ _____    ______ ____
ROOT
ATOM      1  N   UNL     1       3.381   5.427  19.254  0.00  0.00    +0.000 N 
ATOM      2  C   UNL     1       4.803   5.841  19.398  0.00  0.00    +0.000 C 
ATOM      3  C   UNL     1       5.410   5.324  18.126  0.00  0.00    +0.000 A 
ATOM      4  C   UNL     1       4.648   4.233  17.714  0.00  0.00    +0.000 A 
ATOM      5  C   UNL     1       4.795   3.617  16.479  0.00  0.00    +0.000 A 
ATOM      6  C   UNL     1       5.749   4.122  15.579  0.00  0.00    +0.000 A 
ATOM      7  C   UNL     1       6.533   5.228  16.025  0.00  0.00    +0.000 A 
ATOM      8  C   UNL     1       6.382   5.848  17.288  0.00  0.00    +0.000 A 
ATOM      9  C   UNL     1       3.430   4.187  18.561  0.00  0.00    +0.000 C 
ATOM     10  O   UNL     1       2.562   3.340  18.455  0.00  0.00    +0.000 OA
ENDROOT
BRANCH   1  15
ATOM     11  C   UNL     1       1.607   8.584  19.194  0.00  0.00    +0.000 A 
ATOM     12  C   UNL     1       2.532   9.206  18.347  0.00  0.00    +0.000 A 
ATOM     13  C   UNL     1       3.233   8.468  17.406  0.00  0.00    +0.000 A 
ATOM     14  C   UNL     1       3.177   7.085  17.452  0.00  0.00    +0.000 A 
ATOM     15  C   UNL     1       2.613   6.475  18.583  0.00  0.00    +0.000 A 
ATOM     16  C   UNL     1       1.675   7.194  19.333  0.00  0.00    +0.000 A 
BRANCH  11  20
ATOM     17  C   UNL     1      -0.398  10.404  21.604  0.00  0.00    +0.000 A 
ATOM     18  N   UNL     1      -0.978  10.753  20.477  0.00  0.00    +0.000 NA
ATOM     19  N   UNL     1      -0.326  10.117  19.450  0.00  0.00    +0.000 NA
ATOM     20  C   UNL     1       0.632   9.364  19.955  0.00  0.00    +0.000 A 
ATOM     21  N   UNL     1       0.615   9.521  21.327  0.00  0.00    +0.000 N 
ATOM     22  C   UNL     1       1.486   8.939  22.319  0.00  0.00    +0.000 C 
BRANCH  17  24
ATOM     23  C   UNL     1      -1.904  11.870  22.931  0.00  0.00    +0.000 C 
ATOM     24  C   UNL     1      -0.737  10.890  22.970  0.00  0.00    +0.000 C 
ENDBRANCH  17  24
ENDBRANCH  11  20
ENDBRANCH   1  15
BRANCH   8  25
ATOM     25  C   UNL     1       7.186   7.083  17.605  0.00  0.00    +0.000 C 
ATOM     26  F   UNL     1       6.434   8.199  17.792  0.00  0.00    +0.000 F 
ATOM     27  F   UNL     1       7.921   6.939  18.742  0.00  0.00    +0.000 F 
ATOM     28  F   UNL     1       8.075   7.391  16.620  0.00  0.00    +0.000 F 
ENDBRANCH   8  25
BRANCH   6  29
ATOM     29  N   UNL     1       5.999   3.708  14.274  0.00  0.00    +0.000 N 
ATOM     30  C   UNL     1       6.354   3.565  12.988  0.00  0.00    +0.000 C 
ATOM     31  C   UNL     1       6.795   4.591  13.658  0.00  0.00    +0.000 C 
ENDBRANCH   6  29
TORSDOF 5
ENDMDL
MODEL 5
REMARK VINA RESULT:      -7.8      5.299     10.601
REMARK  Name = 
REMARK  7 active torsions:
REMARK  status: ('A' for Active; 'I' for Inactive)
REMARK    1  A    between atoms: C_1  and  C_2
REMARK    2  A    between atoms: C_2  and  C_3
REMARK    3  A    between atoms: C_6  and  C_7
REMARK    4  A    between atoms: C_11  and  N_12
REMARK    5  A    between atoms: C_17  and  N_18
REMARK    6  A    between atoms: C_22  and  C_23
REMARK    7  A    between atoms: N_30  and  C_31
REMARK                            x       y       z     vdW  Elec       q    Type
REMARK                         _______ _______ _______ _____ _____    ______ ____
ROOT
ATOM      1  N   UNL     1      -0.427  12.123  20.615  0.00  0.00    +0.000 N 
ATOM      2  C   UNL     1      -1.046  12.839  21.765  0.00  0.00    +0.000 C 
ATOM      3  C   UNL     1      -2.498  12.839  21.388  0.00  0.00    +0.000 A 
ATOM      4  C   UNL     1      -2.569  12.782  19.997  0.00  0.00    +0.000 A 
ATOM      5  C   UNL     1      -3.749  12.574  19.297  0.00  0.00    +0.000 A 
ATOM      6  C   UNL     1      -4.942  12.394  20.017  0.00  0.00    +0.000 A 
ATOM      7  C   UNL     1      -4.854  12.475  21.438  0.00  0.00    +0.000 A 
ATOM      8  C   UNL     1      -3.649  12.693  22.148  0.00  0.00    +0.000 A 
ATOM      9  C   UNL     1      -1.203  12.504  19.487  0.00  0.00    +0.000 C 
ATOM     10  O   UNL     1      -0.928  12.403  18.306  0.00  0.00    +0.000 OA
ENDROOT
BRANCH   1  15
ATOM     11  C   UNL     1       1.155   8.867  20.490  0.00  0.00    +0.000 A 
ATOM     12  C   UNL     1       1.296   8.768  21.879  0.00  0.00    +0.000 A 
ATOM     13  C   UNL     1       0.379   9.370  22.727  0.00  0.00    +0.000 A 
ATOM     14  C   UNL     1      -0.552  10.249  22.200  0.00  0.00    +0.000 A 
ATOM     15  C   UNL     1      -0.389  10.684  20.876  0.00  0.00    +0.000 A 
ATOM     16  C   UNL     1       0.318   9.867  19.985  0.00  0.00    +0.000 A 
BRANCH  11  20
ATOM     17  C   UNL     1       2.745   6.194  18.629  0.00  0.00    +0.000 A 
ATOM     18  N   UNL     1       2.972   7.222  17.840  0.00  0.00    +0.000 NA
ATOM     19  N   UNL     1       2.430   8.337  18.431  0.00  0.00    +0.000 NA
ATOM     20  C   UNL     1       1.899   7.990  19.587  0.00  0.00    +0.000 A 
ATOM     21  N   UNL     1       2.082   6.631  19.748  0.00  0.00    +0.000 N 
ATOM     22  C   UNL     1       1.649   5.777  20.826  0.00  0.00    +0.000 C 
BRANCH  17  24
ATOM     23  C   UNL     1       2.026   4.069  17.559  0.00  0.00    +0.000 C 
ATOM     24  C   UNL     1       3.108   4.774  18.369  0.00  0.00    +0.000 C 
ENDBRANCH  17  24
ENDBRANCH  11  20
ENDBRANCH   1  15
BRANCH   8  25
ATOM     25  C   UNL     1      -3.658  12.643  23.653  0.00  0.00    +0.000 C 
ATOM     26  F   UNL     1      -4.903  12.648  24.199  0.00  0.00    +0.000 F 
ATOM     27  F   UNL     1      -3.050  11.524  24.134  0.00  0.00    +0.000 F 
ATOM     28  F   UNL     1      -3.001  13.697  24.212  0.00  0.00    +0.000 F 
ENDBRANCH   8  25
BRANCH   6  29
ATOM     29  N   UNL     1      -6.207  12.097  19.518  0.00  0.00    +0.000 N 
ATOM     30  C   UNL     1      -7.478  11.727  19.302  0.00  0.00    +0.000 C 
ATOM     31  C   UNL     1      -7.037  11.797  20.525  0.00  0.00    +0.000 C 
ENDBRANCH   6  29
TORSDOF 5
ENDMDL
MODEL 6
REMARK VINA RESULT:      -7.6      7.013      9.937
REMARK  Name = 
REMARK  7 active torsions:
REMARK  status: ('A' for Active; 'I' for Inactive)
REMARK    1  A    between atoms: C_1  and  C_2
REMARK    2  A    between atoms: C_2  and  C_3
REMARK    3  A    between atoms: C_6  and  C_7
REMARK    4  A    between atoms: C_11  and  N_12
REMARK    5  A    between atoms: C_17  and  N_18
REMARK    6  A    between atoms: C_22  and  C_23
REMARK    7  A    between atoms: N_30  and  C_31
REMARK                            x       y       z     vdW  Elec       q    Type
REMARK                         _______ _______ _______ _____ _____    ______ ____
ROOT
ATOM      1  N   UNL     1      -0.241  11.346  18.484  0.00  0.00    +0.000 N 
ATOM      2  C   UNL     1       0.499  10.619  19.552  0.00  0.00    +0.000 C 
ATOM      3  C   UNL     1       0.006  11.302  20.794  0.00  0.00    +0.000 A 
ATOM      4  C   UNL     1      -0.366  12.597  20.440  0.00  0.00    +0.000 A 
ATOM      5  C   UNL     1      -1.045  13.460  21.289  0.00  0.00    +0.000 A 
ATOM      6  C   UNL     1      -1.397  13.010  22.573  0.00  0.00    +0.000 A 
ATOM      7  C   UNL     1      -0.991  11.689  22.925  0.00  0.00    +0.000 A 
ATOM      8  C   UNL     1      -0.294  10.815  22.058  0.00  0.00    +0.000 A 
ATOM      9  C   UNL     1      -0.347  12.682  18.959  0.00  0.00    +0.000 C 
ATOM     10  O   UNL     1      -0.618  13.691  18.333  0.00  0.00    +0.000 OA
ENDROOT
BRANCH   1  15
ATOM     11  C   UNL     1      -3.773  11.371  17.681  0.00  0.00    +0.000 A 
ATOM     12  C   UNL     1      -3.599  10.769  16.430  0.00  0.00    +0.000 A 
ATOM     13  C   UNL     1      -2.560   9.875  16.216  0.00  0.00    +0.000 A 
ATOM     14  C   UNL     1      -1.571   9.747  17.176  0.00  0.00    +0.000 A 
ATOM     15  C   UNL     1      -1.520  10.687  18.216  0.00  0.00    +0.000 A 
ATOM     16  C   UNL     1      -2.698  11.353  18.575  0.00  0.00    +0.000 A 
BRANCH  11  20
ATOM     17  C   UNL     1      -6.527  13.263  19.088  0.00  0.00    +0.000 A 
ATOM     18  N   UNL     1      -6.993  12.990  17.890  0.00  0.00    +0.000 NA
ATOM     19  N   UNL     1      -6.048  12.247  17.226  0.00  0.00    +0.000 NA
ATOM     20  C   UNL     1      -5.021  12.049  18.030  0.00  0.00    +0.000 A 
ATOM     21  N   UNL     1      -5.291  12.681  19.227  0.00  0.00    +0.000 N 
ATOM     22  C   UNL     1      -4.468  12.785  20.406  0.00  0.00    +0.000 C 
BRANCH  17  24
ATOM     23  C   UNL     1      -7.916  13.213  21.148  0.00  0.00    +0.000 C 
ATOM     24  C   UNL     1      -7.188  14.089  20.136  0.00  0.00    +0.000 C 
ENDBRANCH  17  24
ENDBRANCH  11  20
ENDBRANCH   1  15
BRANCH   8  25
ATOM     25  C   UNL     1      -0.020   9.400  22.498  0.00  0.00    +0.000 C 
ATOM     26  F   UNL     1      -0.213   9.187  23.826  0.00  0.00    +0.000 F 
ATOM     27  F   UNL     1      -0.818   8.500  21.860  0.00  0.00    +0.000 F 
ATOM     28  F   UNL     1       1.261   9.015  22.240  0.00  0.00    +0.000 F 
ENDBRANCH   8  25
BRANCH   6  29
ATOM     29  N   UNL     1      -2.140  13.679  23.541  0.00  0.00    +0.000 N 
ATOM     30  C   UNL     1      -3.053  14.130  24.414  0.00  0.00    +0.000 C 
ATOM     31  C   UNL     1      -3.241  12.977  23.839  0.00  0.00    +0.000 C 
ENDBRANCH   6  29
TORSDOF 5
ENDMDL
MODEL 7
REMARK VINA RESULT:      -7.6      6.921      9.771
REMARK  Name = 
REMARK  7 active torsions:
REMARK  status: ('A' for Active; 'I' for Inactive)
REMARK    1  A    between atoms: C_1  and  C_2
REMARK    2  A    between atoms: C_2  and  C_3
REMARK    3  A    between atoms: C_6  and  C_7
REMARK    4  A    between atoms: C_11  and  N_12
REMARK    5  A    between atoms: C_17  and  N_18
REMARK    6  A    between atoms: C_22  and  C_23
REMARK    7  A    between atoms: N_30  and  C_31
REMARK                            x       y       z     vdW  Elec       q    Type
REMARK                         _______ _______ _______ _____ _____    ______ ____
ROOT
ATOM      1  N   UNL     1      -0.335  11.104  18.416  0.00  0.00    +0.000 N 
ATOM      2  C   UNL     1       0.423  10.412  19.494  0.00  0.00    +0.000 C 
ATOM      3  C   UNL     1      -0.139  11.049  20.731  0.00  0.00    +0.000 A 
ATOM      4  C   UNL     1      -0.582  12.323  20.380  0.00  0.00    +0.000 A 
ATOM      5  C   UNL     1      -1.333  13.133  21.221  0.00  0.00    +0.000 A 
ATOM      6  C   UNL     1      -1.687  12.648  22.492  0.00  0.00    +0.000 A 
ATOM      7  C   UNL     1      -1.208  11.350  22.841  0.00  0.00    +0.000 A 
ATOM      8  C   UNL     1      -0.439  10.531  21.982  0.00  0.00    +0.000 A 
ATOM      9  C   UNL     1      -0.534  12.425  18.901  0.00  0.00    +0.000 C 
ATOM     10  O   UNL     1      -0.852  13.423  18.279  0.00  0.00    +0.000 OA
ENDROOT
BRANCH   1  15
ATOM     11  C   UNL     1      -3.928  10.857  18.029  0.00  0.00    +0.000 A 
ATOM     12  C   UNL     1      -3.868  10.637  16.648  0.00  0.00    +0.000 A 
ATOM     13  C   UNL     1      -2.783   9.982  16.085  0.00  0.00    +0.000 A 
ATOM     14  C   UNL     1      -1.662   9.741  16.861  0.00  0.00    +0.000 A 
ATOM     15  C   UNL     1      -1.564  10.371  18.110  0.00  0.00    +0.000 A 
ATOM     16  C   UNL     1      -2.743  10.750  18.763  0.00  0.00    +0.000 A 
BRANCH  11  20
ATOM     17  C   UNL     1      -6.696  12.374  19.812  0.00  0.00    +0.000 A 
ATOM     18  N   UNL     1      -7.295  11.357  19.232  0.00  0.00    +0.000 NA
ATOM     19  N   UNL     1      -6.352  10.661  18.517  0.00  0.00    +0.000 NA
ATOM     20  C   UNL     1      -5.179  11.241  18.683  0.00  0.00    +0.000 A 
ATOM     21  N   UNL     1      -5.359  12.336  19.504  0.00  0.00    +0.000 N 
ATOM     22  C   UNL     1      -4.391  13.308  19.949  0.00  0.00    +0.000 C 
BRANCH  17  24
ATOM     23  C   UNL     1      -7.485  12.970  22.092  0.00  0.00    +0.000 C 
ATOM     24  C   UNL     1      -7.336  13.428  20.646  0.00  0.00    +0.000 C 
ENDBRANCH  17  24
ENDBRANCH  11  20
ENDBRANCH   1  15
BRANCH   8  25
ATOM     25  C   UNL     1      -0.089   9.130  22.415  0.00  0.00    +0.000 C 
ATOM     26  F   UNL     1       1.193   8.772  22.141  0.00  0.00    +0.000 F 
ATOM     27  F   UNL     1      -0.243   8.953  23.756  0.00  0.00    +0.000 F 
ATOM     28  F   UNL     1      -0.875   8.191  21.820  0.00  0.00    +0.000 F 
ENDBRANCH   8  25
BRANCH   6  29
ATOM     29  N   UNL     1      -2.492  13.260  23.448  0.00  0.00    +0.000 N 
ATOM     30  C   UNL     1      -3.441  13.631  24.320  0.00  0.00    +0.000 C 
ATOM     31  C   UNL     1      -3.498  12.444  23.788  0.00  0.00    +0.000 C 
ENDBRANCH   6  29
TORSDOF 5
ENDMDL
MODEL 8
REMARK VINA RESULT:      -7.6      5.567     10.975
REMARK  Name = 
REMARK  7 active torsions:
REMARK  status: ('A' for Active; 'I' for Inactive)
REMARK    1  A    between atoms: C_1  and  C_2
REMARK    2  A    between atoms: C_2  and  C_3
REMARK    3  A    between atoms: C_6  and  C_7
REMARK    4  A    between atoms: C_11  and  N_12
REMARK    5  A    between atoms: C_17  and  N_18
REMARK    6  A    between atoms: C_22  and  C_23
REMARK    7  A    between atoms: N_30  and  C_31
REMARK                            x       y       z     vdW  Elec       q    Type
REMARK                         _______ _______ _______ _____ _____    ______ ____
ROOT
ATOM      1  N   UNL     1      -0.729  12.573  21.450  0.00  0.00    +0.000 N 
ATOM      2  C   UNL     1      -1.463  13.078  22.642  0.00  0.00    +0.000 C 
ATOM      3  C   UNL     1      -2.879  13.111  22.148  0.00  0.00    +0.000 A 
ATOM      4  C   UNL     1      -2.835  13.282  20.766  0.00  0.00    +0.000 A 
ATOM      5  C   UNL     1      -3.947  13.168  19.943  0.00  0.00    +0.000 A 
ATOM      6  C   UNL     1      -5.188  12.849  20.519  0.00  0.00    +0.000 A 
ATOM      7  C   UNL     1      -5.218  12.697  21.937  0.00  0.00    +0.000 A 
ATOM      8  C   UNL     1      -4.082  12.819  22.773  0.00  0.00    +0.000 A 
ATOM      9  C   UNL     1      -1.424  13.119  20.336  0.00  0.00    +0.000 C 
ATOM     10  O   UNL     1      -1.051  13.218  19.181  0.00  0.00    +0.000 OA
ENDROOT
BRANCH   1  15
ATOM     11  C   UNL     1       0.877   9.406  20.735  0.00  0.00    +0.000 A 
ATOM     12  C   UNL     1       1.087   9.090  22.082  0.00  0.00    +0.000 A 
ATOM     13  C   UNL     1       0.205   9.535  23.056  0.00  0.00    +0.000 A 
ATOM     14  C   UNL     1      -0.759  10.470  22.720  0.00  0.00    +0.000 A 
ATOM     15  C   UNL     1      -0.664  11.112  21.476  0.00  0.00    +0.000 A 
ATOM     16  C   UNL     1       0.006  10.459  20.435  0.00  0.00    +0.000 A 
BRANCH  11  20
ATOM     17  C   UNL     1       2.490   7.094  18.456  0.00  0.00    +0.000 A 
ATOM     18  N   UNL     1       2.488   8.196  17.739  0.00  0.00    +0.000 NA
ATOM     19  N   UNL     1       1.910   9.190  18.491  0.00  0.00    +0.000 NA
ATOM     20  C   UNL     1       1.585   8.696  19.670  0.00  0.00    +0.000 A 
ATOM     21  N   UNL     1       1.941   7.363  19.685  0.00  0.00    +0.000 N 
ATOM     22  C   UNL     1       1.760   6.385  20.730  0.00  0.00    +0.000 C 
BRANCH  17  24
ATOM     23  C   UNL     1       4.481   5.754  17.809  0.00  0.00    +0.000 C 
ATOM     24  C   UNL     1       2.972   5.752  18.027  0.00  0.00    +0.000 C 
ENDBRANCH  17  24
ENDBRANCH  11  20
ENDBRANCH   1  15
BRANCH   8  25
ATOM     25  C   UNL     1      -4.212  12.522  24.244  0.00  0.00    +0.000 C 
ATOM     26  F   UNL     1      -3.700  13.489  25.050  0.00  0.00    +0.000 F 
ATOM     27  F   UNL     1      -5.511  12.374  24.626  0.00  0.00    +0.000 F 
ATOM     28  F   UNL     1      -3.583  11.367  24.599  0.00  0.00    +0.000 F 
ENDBRANCH   8  25
BRANCH   6  29
ATOM     29  N   UNL     1      -6.398  12.613  19.873  0.00  0.00    +0.000 N 
ATOM     30  C   UNL     1      -7.551  12.136  19.382  0.00  0.00    +0.000 C 
ATOM     31  C   UNL     1      -6.963  11.498  20.353  0.00  0.00    +0.000 C 
ENDBRANCH   6  29
TORSDOF 5
ENDMDL
MODEL 9
REMARK VINA RESULT:      -7.6      5.174     10.534
REMARK  Name = 
REMARK  7 active torsions:
REMARK  status: ('A' for Active; 'I' for Inactive)
REMARK    1  A    between atoms: C_1  and  C_2
REMARK    2  A    between atoms: C_2  and  C_3
REMARK    3  A    between atoms: C_6  and  C_7
REMARK    4  A    between atoms: C_11  and  N_12
REMARK    5  A    between atoms: C_17  and  N_18
REMARK    6  A    between atoms: C_22  and  C_23
REMARK    7  A    between atoms: N_30  and  C_31
REMARK                            x       y       z     vdW  Elec       q    Type
REMARK                         _______ _______ _______ _____ _____    ______ ____
ROOT
ATOM      1  N   UNL     1      -0.546  11.826  20.058  0.00  0.00    +0.000 N 
ATOM      2  C   UNL     1      -0.938  12.892  21.021  0.00  0.00    +0.000 C 
ATOM      3  C   UNL     1      -2.434  12.891  20.896  0.00  0.00    +0.000 A 
ATOM      4  C   UNL     1      -2.746  12.435  19.617  0.00  0.00    +0.000 A 
ATOM      5  C   UNL     1      -4.034  12.121  19.208  0.00  0.00    +0.000 A 
ATOM      6  C   UNL     1      -5.089  12.249  20.128  0.00  0.00    +0.000 A 
ATOM      7  C   UNL     1      -4.753  12.736  21.427  0.00  0.00    +0.000 A 
ATOM      8  C   UNL     1      -3.438  13.060  21.837  0.00  0.00    +0.000 A 
ATOM      9  C   UNL     1      -1.497  11.918  19.005  0.00  0.00    +0.000 C 
ATOM     10  O   UNL     1      -1.433  11.455  17.881  0.00  0.00    +0.000 OA
ENDROOT
BRANCH   1  15
ATOM     11  C   UNL     1       1.010   8.643  20.811  0.00  0.00    +0.000 A 
ATOM     12  C   UNL     1       1.237   8.955  22.156  0.00  0.00    +0.000 A 
ATOM     13  C   UNL     1       0.377   9.801  22.839  0.00  0.00    +0.000 A 
ATOM     14  C   UNL     1      -0.581  10.507  22.131  0.00  0.00    +0.000 A 
ATOM     15  C   UNL     1      -0.498  10.528  20.730  0.00  0.00    +0.000 A 
ATOM     16  C   UNL     1       0.148   9.469  20.082  0.00  0.00    +0.000 A 
BRANCH  11  20
ATOM     17  C   UNL     1       2.932   6.332  18.785  0.00  0.00    +0.000 A 
ATOM     18  N   UNL     1       2.619   5.571  19.810  0.00  0.00    +0.000 NA
ATOM     19  N   UNL     1       1.860   6.318  20.677  0.00  0.00    +0.000 NA
ATOM     20  C   UNL     1       1.692   7.522  20.166  0.00  0.00    +0.000 A 
ATOM     21  N   UNL     1       2.361   7.568  18.959  0.00  0.00    +0.000 N 
ATOM     22  C   UNL     1       2.506   8.671  18.042  0.00  0.00    +0.000 C 
BRANCH  17  24
ATOM     23  C   UNL     1       3.718   4.462  17.349  0.00  0.00    +0.000 C 
ATOM     24  C   UNL     1       3.787   5.959  17.624  0.00  0.00    +0.000 C 
ENDBRANCH  17  24
ENDBRANCH  11  20
ENDBRANCH   1  15
BRANCH   8  25
ATOM     25  C   UNL     1      -3.188  13.453  23.270  0.00  0.00    +0.000 C 
ATOM     26  F   UNL     1      -4.320  13.649  23.996  0.00  0.00    +0.000 F 
ATOM     27  F   UNL     1      -2.476  12.509  23.945  0.00  0.00    +0.000 F 
ATOM     28  F   UNL     1      -2.472  14.607  23.374  0.00  0.00    +0.000 F 
ENDBRANCH   8  25
BRANCH   6  29
ATOM     29  N   UNL     1      -6.428  11.915  19.949  0.00  0.00    +0.000 N 
ATOM     30  C   UNL     1      -7.719  11.572  20.057  0.00  0.00    +0.000 C 
ATOM     31  C   UNL     1      -7.054  11.886  21.132  0.00  0.00    +0.000 C 
ENDBRANCH   6  29
TORSDOF 5
ENDMDL
