MODEL 1
REMARK VINA RESULT:      -8.5      0.000      0.000
REMARK  Name = 
REMARK  6 active torsions:
REMARK  status: ('A' for Active; 'I' for Inactive)
REMARK    1  A    between atoms: C_1  and  C_2
REMARK    2  A    between atoms: C_4  and  C_5
REMARK    3  A    between atoms: C_9  and  N_10
REMARK    4  A    between atoms: C_11  and  C_13
REMARK    5  A    between atoms: C_17  and  N_18
REMARK    6  A    between atoms: C_19  and  C_21
REMARK                            x       y       z     vdW  Elec       q    Type
REMARK                         _______ _______ _______ _____ _____    ______ ____
ROOT
ATOM      1  N   UNL     1       1.515   8.601  19.474  0.00  0.00    +0.000 N 
ATOM      2  C   UNL     1       2.273   8.308  18.349  0.00  0.00    +0.000 C 
ATOM      3  O   UNL     1       2.324   8.982  17.322  0.00  0.00    +0.000 OA
ATOM      4  H   UNL     1       1.730   8.108  20.331  0.00  0.00    +0.000 HD
ENDROOT
BRANCH   1   9
ATOM      5  C   UNL     1      -1.352  10.883  18.766  0.00  0.00    +0.000 A 
ATOM      6  C   UNL     1      -1.266  11.759  19.857  0.00  0.00    +0.000 A 
ATOM      7  C   UNL     1      -0.228  11.644  20.775  0.00  0.00    +0.000 A 
ATOM      8  C   UNL     1       0.714  10.626  20.636  0.00  0.00    +0.000 A 
ATOM      9  C   UNL     1       0.625   9.700  19.592  0.00  0.00    +0.000 A 
ATOM     10  C   UNL     1      -0.392   9.859  18.636  0.00  0.00    +0.000 A 
BRANCH   5  14
ATOM     11  C   UNL     1      -3.759  10.250  14.478  0.00  0.00    +0.000 C 
ATOM     12  C   UNL     1      -3.485  10.693  15.872  0.00  0.00    +0.000 A 
ATOM     13  N   UNL     1      -2.357  10.486  16.521  0.00  0.00    +0.000 NA
ATOM     14  C   UNL     1      -2.445  11.010  17.804  0.00  0.00    +0.000 A 
ATOM     15  C   UNL     1      -3.641  11.645  18.083  0.00  0.00    +0.000 A 
ATOM     16  S   UNL     1      -4.694  11.552  16.738  0.00  0.00    +0.000 S 
ENDBRANCH   5  14
ENDBRANCH   1   9
BRANCH   2  17
ATOM     17  C   UNL     1       3.148   7.094  18.401  0.00  0.00    +0.000 A 
ATOM     18  C   UNL     1       3.271   6.317  19.554  0.00  0.00    +0.000 A 
ATOM     19  C   UNL     1       4.033   5.148  19.516  0.00  0.00    +0.000 A 
ATOM     20  C   UNL     1       4.627   4.728  18.324  0.00  0.00    +0.000 A 
ATOM     21  C   UNL     1       4.481   5.472  17.150  0.00  0.00    +0.000 A 
ATOM     22  C   UNL     1       3.768   6.676  17.208  0.00  0.00    +0.000 A 
BRANCH  21  23
ATOM     23  N   UNL     1       4.983   5.060  15.897  0.00  0.00    +0.000 N 
ATOM     24  C   UNL     1       6.268   5.255  15.403  0.00  0.00    +0.000 C 
ATOM     25  O   UNL     1       7.153   5.853  16.009  0.00  0.00    +0.000 OA
ATOM     26  H   UNL     1       4.397   4.440  15.350  0.00  0.00    +0.000 HD
BRANCH  24  27
ATOM     27  C   UNL     1       6.535   4.645  14.099  0.00  0.00    +0.000 A 
ATOM     28  C   UNL     1       5.758   3.688  13.467  0.00  0.00    +0.000 A 
ATOM     29  C   UNL     1       6.270   3.315  12.191  0.00  0.00    +0.000 A 
ATOM     30  C   UNL     1       7.431   3.990  11.890  0.00  0.00    +0.000 A 
ATOM     31  S   UNL     1       7.896   5.058  13.141  0.00  0.00    +0.000 S 
ENDBRANCH  24  27
ENDBRANCH  21  23
ENDBRANCH   2  17
TORSDOF 5
ENDMDL
MODEL 2
REMARK VINA RESULT:      -8.2      2.217     10.159
REMARK  Name = 
REMARK  6 active torsions:
REMARK  status: ('A' for Active; 'I' for Inactive)
REMARK    1  A    between atoms: C_1  and  C_2
REMARK    2  A    between atoms: C_4  and  C_5
REMARK    3  A    between atoms: C_9  and  N_10
REMARK    4  A    between atoms: C_11  and  C_13
REMARK    5  A    between atoms: C_17  and  N_18
REMARK    6  A    between atoms: C_19  and  C_21
REMARK                            x       y       z     vdW  Elec       q    Type
REMARK                         _______ _______ _______ _____ _____    ______ ____
ROOT
ATOM      1  N   UNL     1       1.695   8.411  19.638  0.00  0.00    +0.000 N 
ATOM      2  C   UNL     1       1.628   9.188  18.489  0.00  0.00    +0.000 C 
ATOM      3  O   UNL     1       1.933   8.822  17.356  0.00  0.00    +0.000 OA
ATOM      4  H   UNL     1       1.205   8.738  20.461  0.00  0.00    +0.000 HD
ENDROOT
BRANCH   1   9
ATOM      5  C   UNL     1       3.819   5.427  18.920  0.00  0.00    +0.000 A 
ATOM      6  C   UNL     1       3.322   4.517  19.864  0.00  0.00    +0.000 A 
ATOM      7  C   UNL     1       2.248   4.860  20.677  0.00  0.00    +0.000 A 
ATOM      8  C   UNL     1       1.682   6.131  20.584  0.00  0.00    +0.000 A 
ATOM      9  C   UNL     1       2.190   7.082  19.693  0.00  0.00    +0.000 A 
ATOM     10  C   UNL     1       3.236   6.708  18.834  0.00  0.00    +0.000 A 
BRANCH   5  14
ATOM     11  C   UNL     1       6.135   3.961  14.789  0.00  0.00    +0.000 C 
ATOM     12  C   UNL     1       5.939   4.411  16.193  0.00  0.00    +0.000 A 
ATOM     13  N   UNL     1       4.769   4.633  16.757  0.00  0.00    +0.000 NA
ATOM     14  C   UNL     1       4.947   5.060  18.066  0.00  0.00    +0.000 A 
ATOM     15  C   UNL     1       6.266   5.112  18.477  0.00  0.00    +0.000 A 
ATOM     16  S   UNL     1       7.309   4.662  17.198  0.00  0.00    +0.000 S 
ENDBRANCH   5  14
ENDBRANCH   1   9
BRANCH   2  17
ATOM     17  C   UNL     1       1.089  10.578  18.625  0.00  0.00    +0.000 A 
ATOM     18  C   UNL     1       1.892  11.706  18.449  0.00  0.00    +0.000 A 
ATOM     19  C   UNL     1       1.314  12.975  18.502  0.00  0.00    +0.000 A 
ATOM     20  C   UNL     1      -0.063  13.120  18.681  0.00  0.00    +0.000 A 
ATOM     21  C   UNL     1      -0.888  12.001  18.819  0.00  0.00    +0.000 A 
ATOM     22  C   UNL     1      -0.296  10.732  18.827  0.00  0.00    +0.000 A 
BRANCH  21  23
ATOM     23  N   UNL     1      -2.294  12.074  18.916  0.00  0.00    +0.000 N 
ATOM     24  C   UNL     1      -3.222  11.705  17.949  0.00  0.00    +0.000 C 
ATOM     25  O   UNL     1      -2.921  11.274  16.839  0.00  0.00    +0.000 OA
ATOM     26  H   UNL     1      -2.681  12.289  19.829  0.00  0.00    +0.000 HD
BRANCH  24  27
ATOM     27  C   UNL     1      -4.625  11.811  18.356  0.00  0.00    +0.000 A 
ATOM     28  C   UNL     1      -5.714  11.265  17.697  0.00  0.00    +0.000 A 
ATOM     29  C   UNL     1      -6.947  11.519  18.362  0.00  0.00    +0.000 A 
ATOM     30  C   UNL     1      -6.766  12.264  19.505  0.00  0.00    +0.000 A 
ATOM     31  S   UNL     1      -5.122  12.652  19.766  0.00  0.00    +0.000 S 
ENDBRANCH  24  27
ENDBRANCH  21  23
ENDBRANCH   2  17
TORSDOF 5
ENDMDL
MODEL 3
REMARK VINA RESULT:      -8.1      2.318     10.289
REMARK  Name = 
REMARK  6 active torsions:
REMARK  status: ('A' for Active; 'I' for Inactive)
REMARK    1  A    between atoms: C_1  and  C_2
REMARK    2  A    between atoms: C_4  and  C_5
REMARK    3  A    between atoms: C_9  and  N_10
REMARK    4  A    between atoms: C_11  and  C_13
REMARK    5  A    between atoms: C_17  and  N_18
REMARK    6  A    between atoms: C_19  and  C_21
REMARK                            x       y       z     vdW  Elec       q    Type
REMARK                         _______ _______ _______ _____ _____    ______ ____
ROOT
ATOM      1  N   UNL     1       1.547   8.394  19.583  0.00  0.00    +0.000 N 
ATOM      2  C   UNL     1       1.600   9.205  18.457  0.00  0.00    +0.000 C 
ATOM      3  O   UNL     1       2.073   8.889  17.367  0.00  0.00    +0.000 OA
ATOM      4  H   UNL     1       0.935   8.673  20.339  0.00  0.00    +0.000 HD
ENDROOT
BRANCH   1   9
ATOM      5  C   UNL     1       3.765   5.467  18.914  0.00  0.00    +0.000 A 
ATOM      6  C   UNL     1       3.322   4.572  19.897  0.00  0.00    +0.000 A 
ATOM      7  C   UNL     1       2.252   4.902  20.723  0.00  0.00    +0.000 A 
ATOM      8  C   UNL     1       1.638   6.147  20.602  0.00  0.00    +0.000 A 
ATOM      9  C   UNL     1       2.092   7.086  19.670  0.00  0.00    +0.000 A 
ATOM     10  C   UNL     1       3.133   6.723  18.800  0.00  0.00    +0.000 A 
BRANCH   5  14
ATOM     11  C   UNL     1       6.051   4.023  14.759  0.00  0.00    +0.000 C 
ATOM     12  C   UNL     1       5.866   4.474  16.164  0.00  0.00    +0.000 A 
ATOM     13  N   UNL     1       4.700   4.681  16.742  0.00  0.00    +0.000 NA
ATOM     14  C   UNL     1       4.888   5.114  18.048  0.00  0.00    +0.000 A 
ATOM     15  C   UNL     1       6.210   5.184  18.443  0.00  0.00    +0.000 A 
ATOM     16  S   UNL     1       7.244   4.745  17.153  0.00  0.00    +0.000 S 
ENDBRANCH   5  14
ENDBRANCH   1   9
BRANCH   2  17
ATOM     17  C   UNL     1       0.983  10.565  18.555  0.00  0.00    +0.000 A 
ATOM     18  C   UNL     1       1.750  11.731  18.533  0.00  0.00    +0.000 A 
ATOM     19  C   UNL     1       1.112  12.973  18.540  0.00  0.00    +0.000 A 
ATOM     20  C   UNL     1      -0.282  13.053  18.519  0.00  0.00    +0.000 A 
ATOM     21  C   UNL     1      -1.066  11.897  18.501  0.00  0.00    +0.000 A 
ATOM     22  C   UNL     1      -0.423  10.654  18.557  0.00  0.00    +0.000 A 
BRANCH  21  23
ATOM     23  N   UNL     1      -2.472  11.908  18.394  0.00  0.00    +0.000 N 
ATOM     24  C   UNL     1      -3.388  12.190  19.402  0.00  0.00    +0.000 C 
ATOM     25  O   UNL     1      -3.075  12.451  20.560  0.00  0.00    +0.000 OA
ATOM     26  H   UNL     1      -2.862  11.839  17.461  0.00  0.00    +0.000 HD
BRANCH  24  27
ATOM     27  C   UNL     1      -4.791  12.210  18.983  0.00  0.00    +0.000 A 
ATOM     28  C   UNL     1      -5.882  12.501  19.785  0.00  0.00    +0.000 A 
ATOM     29  C   UNL     1      -7.116  12.467  19.074  0.00  0.00    +0.000 A 
ATOM     30  C   UNL     1      -6.933  12.139  17.750  0.00  0.00    +0.000 A 
ATOM     31  S   UNL     1      -5.286  11.872  17.376  0.00  0.00    +0.000 S 
ENDBRANCH  24  27
ENDBRANCH  21  23
ENDBRANCH   2  17
TORSDOF 5
ENDMDL
MODEL 4
REMARK VINA RESULT:      -8.1      3.526      9.642
REMARK  Name = 
REMARK  6 active torsions:
REMARK  status: ('A' for Active; 'I' for Inactive)
REMARK    1  A    between atoms: C_1  and  C_2
REMARK    2  A    between atoms: C_4  and  C_5
REMARK    3  A    between atoms: C_9  and  N_10
REMARK    4  A    between atoms: C_11  and  C_13
REMARK    5  A    between atoms: C_17  and  N_18
REMARK    6  A    between atoms: C_19  and  C_21
REMARK                            x       y       z     vdW  Elec       q    Type
REMARK                         _______ _______ _______ _____ _____    ______ ____
ROOT
ATOM      1  N   UNL     1       1.625   6.640  20.946  0.00  0.00    +0.000 N 
ATOM      2  C   UNL     1       1.612   7.810  20.199  0.00  0.00    +0.000 C 
ATOM      3  O   UNL     1       2.089   7.949  19.074  0.00  0.00    +0.000 OA
ATOM      4  H   UNL     1       1.007   6.582  21.746  0.00  0.00    +0.000 HD
ENDROOT
BRANCH   1   9
ATOM      5  C   UNL     1       3.957   4.304  19.204  0.00  0.00    +0.000 A 
ATOM      6  C   UNL     1       3.641   3.095  19.839  0.00  0.00    +0.000 A 
ATOM      7  C   UNL     1       2.617   3.037  20.777  0.00  0.00    +0.000 A 
ATOM      8  C   UNL     1       1.923   4.196  21.123  0.00  0.00    +0.000 A 
ATOM      9  C   UNL     1       2.251   5.429  20.551  0.00  0.00    +0.000 A 
ATOM     10  C   UNL     1       3.246   5.468  19.560  0.00  0.00    +0.000 A 
BRANCH   5  14
ATOM     11  C   UNL     1       6.092   3.907  14.747  0.00  0.00    +0.000 C 
ATOM     12  C   UNL     1       5.941   4.175  16.202  0.00  0.00    +0.000 A 
ATOM     13  N   UNL     1       4.834   3.991  16.892  0.00  0.00    +0.000 NA
ATOM     14  C   UNL     1       5.033   4.359  18.216  0.00  0.00    +0.000 A 
ATOM     15  C   UNL     1       6.318   4.778  18.507  0.00  0.00    +0.000 A 
ATOM     16  S   UNL     1       7.287   4.757  17.097  0.00  0.00    +0.000 S 
ENDBRANCH   5  14
ENDBRANCH   1   9
BRANCH   2  17
ATOM     17  C   UNL     1       0.913   8.997  20.785  0.00  0.00    +0.000 A 
ATOM     18  C   UNL     1       0.182   8.917  21.971  0.00  0.00    +0.000 A 
ATOM     19  C   UNL     1      -0.374  10.076  22.514  0.00  0.00    +0.000 A 
ATOM     20  C   UNL     1      -0.163  11.316  21.906  0.00  0.00    +0.000 A 
ATOM     21  C   UNL     1       0.600  11.421  20.741  0.00  0.00    +0.000 A 
ATOM     22  C   UNL     1       1.104  10.248  20.165  0.00  0.00    +0.000 A 
BRANCH  21  23
ATOM     23  N   UNL     1       0.923  12.649  20.126  0.00  0.00    +0.000 N 
ATOM     24  C   UNL     1       1.966  13.505  20.461  0.00  0.00    +0.000 C 
ATOM     25  O   UNL     1       2.751  13.303  21.383  0.00  0.00    +0.000 OA
ATOM     26  H   UNL     1       0.436  12.874  19.266  0.00  0.00    +0.000 HD
BRANCH  24  27
ATOM     27  C   UNL     1       2.116  14.676  19.594  0.00  0.00    +0.000 A 
ATOM     28  C   UNL     1       2.987  14.799  18.524  0.00  0.00    +0.000 A 
ATOM     29  C   UNL     1       2.873  16.053  17.859  0.00  0.00    +0.000 A 
ATOM     30  C   UNL     1       1.925  16.858  18.448  0.00  0.00    +0.000 A 
ATOM     31  S   UNL     1       1.186  16.103  19.792  0.00  0.00    +0.000 S 
ENDBRANCH  24  27
ENDBRANCH  21  23
ENDBRANCH   2  17
TORSDOF 5
ENDMDL
MODEL 5
REMARK VINA RESULT:      -8.1      3.392      9.753
REMARK  Name = 
REMARK  6 active torsions:
REMARK  status: ('A' for Active; 'I' for Inactive)
REMARK    1  A    between atoms: C_1  and  C_2
REMARK    2  A    between atoms: C_4  and  C_5
REMARK    3  A    between atoms: C_9  and  N_10
REMARK    4  A    between atoms: C_11  and  C_13
REMARK    5  A    between atoms: C_17  and  N_18
REMARK    6  A    between atoms: C_19  and  C_21
REMARK                            x       y       z     vdW  Elec       q    Type
REMARK                         _______ _______ _______ _____ _____    ______ ____
ROOT
ATOM      1  N   UNL     1       1.585   6.540  21.050  0.00  0.00    +0.000 N 
ATOM      2  C   UNL     1       1.569   7.731  20.337  0.00  0.00    +0.000 C 
ATOM      3  O   UNL     1       2.065   7.910  19.226  0.00  0.00    +0.000 OA
ATOM      4  H   UNL     1       0.954   6.449  21.835  0.00  0.00    +0.000 HD
ENDROOT
BRANCH   1   9
ATOM      5  C   UNL     1       3.960   4.287  19.255  0.00  0.00    +0.000 A 
ATOM      6  C   UNL     1       3.674   3.061  19.871  0.00  0.00    +0.000 A 
ATOM      7  C   UNL     1       2.657   2.964  20.814  0.00  0.00    +0.000 A 
ATOM      8  C   UNL     1       1.939   4.100  21.182  0.00  0.00    +0.000 A 
ATOM      9  C   UNL     1       2.236   5.350  20.630  0.00  0.00    +0.000 A 
ATOM     10  C   UNL     1       3.225   5.429  19.635  0.00  0.00    +0.000 A 
BRANCH   5  14
ATOM     11  C   UNL     1       6.098   3.944  14.796  0.00  0.00    +0.000 C 
ATOM     12  C   UNL     1       5.939   4.221  16.249  0.00  0.00    +0.000 A 
ATOM     13  N   UNL     1       4.844   3.991  16.944  0.00  0.00    +0.000 NA
ATOM     14  C   UNL     1       5.029   4.383  18.263  0.00  0.00    +0.000 A 
ATOM     15  C   UNL     1       6.293   4.867  18.545  0.00  0.00    +0.000 A 
ATOM     16  S   UNL     1       7.258   4.878  17.132  0.00  0.00    +0.000 S 
ENDBRANCH   5  14
ENDBRANCH   1   9
BRANCH   2  17
ATOM     17  C   UNL     1       0.842   8.891  20.945  0.00  0.00    +0.000 A 
ATOM     18  C   UNL     1       0.109   8.770  22.126  0.00  0.00    +0.000 A 
ATOM     19  C   UNL     1      -0.475   9.905  22.691  0.00  0.00    +0.000 A 
ATOM     20  C   UNL     1      -0.288  11.161  22.110  0.00  0.00    +0.000 A 
ATOM     21  C   UNL     1       0.476  11.307  20.950  0.00  0.00    +0.000 A 
ATOM     22  C   UNL     1       1.008  10.157  20.352  0.00  0.00    +0.000 A 
BRANCH  21  23
ATOM     23  N   UNL     1       0.774  12.555  20.362  0.00  0.00    +0.000 N 
ATOM     24  C   UNL     1       0.139  13.142  19.273  0.00  0.00    +0.000 C 
ATOM     25  O   UNL     1      -0.779  12.616  18.649  0.00  0.00    +0.000 OA
ATOM     26  H   UNL     1       1.424  13.153  20.859  0.00  0.00    +0.000 HD
BRANCH  24  27
ATOM     27  C   UNL     1       0.604  14.487  18.929  0.00  0.00    +0.000 A 
ATOM     28  C   UNL     1      -0.186  15.615  18.781  0.00  0.00    +0.000 A 
ATOM     29  C   UNL     1       0.569  16.783  18.472  0.00  0.00    +0.000 A 
ATOM     30  C   UNL     1       1.915  16.510  18.383  0.00  0.00    +0.000 A 
ATOM     31  S   UNL     1       2.257  14.859  18.665  0.00  0.00    +0.000 S 
ENDBRANCH  24  27
ENDBRANCH  21  23
ENDBRANCH   2  17
TORSDOF 5
ENDMDL
MODEL 6
REMARK VINA RESULT:      -8.1      3.059     10.715
REMARK  Name = 
REMARK  6 active torsions:
REMARK  status: ('A' for Active; 'I' for Inactive)
REMARK    1  A    between atoms: C_1  and  C_2
REMARK    2  A    between atoms: C_4  and  C_5
REMARK    3  A    between atoms: C_9  and  N_10
REMARK    4  A    between atoms: C_11  and  C_13
REMARK    5  A    between atoms: C_17  and  N_18
REMARK    6  A    between atoms: C_19  and  C_21
REMARK                            x       y       z     vdW  Elec       q    Type
REMARK                         _______ _______ _______ _____ _____    ______ ____
ROOT
ATOM      1  N   UNL     1       1.807   8.310  19.946  0.00  0.00    +0.000 N 
ATOM      2  C   UNL     1       1.427   9.115  18.880  0.00  0.00    +0.000 C 
ATOM      3  O   UNL     1       1.329   8.756  17.708  0.00  0.00    +0.000 OA
ATOM      4  H   UNL     1       1.628   8.649  20.882  0.00  0.00    +0.000 HD
ENDROOT
BRANCH   1   9
ATOM      5  C   UNL     1       3.750   5.298  18.907  0.00  0.00    +0.000 A 
ATOM      6  C   UNL     1       3.149   4.311  19.701  0.00  0.00    +0.000 A 
ATOM      7  C   UNL     1       2.065   4.622  20.514  0.00  0.00    +0.000 A 
ATOM      8  C   UNL     1       1.593   5.932  20.573  0.00  0.00    +0.000 A 
ATOM      9  C   UNL     1       2.205   6.953  19.838  0.00  0.00    +0.000 A 
ATOM     10  C   UNL     1       3.262   6.619  18.974  0.00  0.00    +0.000 A 
BRANCH   5  14
ATOM     11  C   UNL     1       6.108   3.932  14.765  0.00  0.00    +0.000 C 
ATOM     12  C   UNL     1       5.898   4.359  16.175  0.00  0.00    +0.000 A 
ATOM     13  N   UNL     1       4.722   4.551  16.738  0.00  0.00    +0.000 NA
ATOM     14  C   UNL     1       4.888   4.964  18.053  0.00  0.00    +0.000 A 
ATOM     15  C   UNL     1       6.204   5.035  18.470  0.00  0.00    +0.000 A 
ATOM     16  S   UNL     1       7.260   4.622  17.188  0.00  0.00    +0.000 S 
ENDBRANCH   5  14
ENDBRANCH   1   9
BRANCH   2  17
ATOM     17  C   UNL     1       1.051  10.532  19.183  0.00  0.00    +0.000 A 
ATOM     18  C   UNL     1       1.710  11.615  18.598  0.00  0.00    +0.000 A 
ATOM     19  C   UNL     1       1.258  12.911  18.853  0.00  0.00    +0.000 A 
ATOM     20  C   UNL     1       0.128  13.125  19.644  0.00  0.00    +0.000 A 
ATOM     21  C   UNL     1      -0.568  12.051  20.204  0.00  0.00    +0.000 A 
ATOM     22  C   UNL     1      -0.075  10.757  19.998  0.00  0.00    +0.000 A 
BRANCH  21  23
ATOM     23  N   UNL     1      -1.763  12.193  20.940  0.00  0.00    +0.000 N 
ATOM     24  C   UNL     1      -1.900  12.201  22.324  0.00  0.00    +0.000 C 
ATOM     25  O   UNL     1      -0.965  12.056  23.107  0.00  0.00    +0.000 OA
ATOM     26  H   UNL     1      -2.594  12.453  20.421  0.00  0.00    +0.000 HD
BRANCH  24  27
ATOM     27  C   UNL     1      -3.257  12.451  22.816  0.00  0.00    +0.000 A 
ATOM     28  C   UNL     1      -3.673  12.398  24.136  0.00  0.00    +0.000 A 
ATOM     29  C   UNL     1      -5.052  12.721  24.295  0.00  0.00    +0.000 A 
ATOM     30  C   UNL     1      -5.652  13.000  23.088  0.00  0.00    +0.000 A 
ATOM     31  S   UNL     1      -4.558  12.869  21.781  0.00  0.00    +0.000 S 
ENDBRANCH  24  27
ENDBRANCH  21  23
ENDBRANCH   2  17
TORSDOF 5
ENDMDL
MODEL 7
REMARK VINA RESULT:      -8.0      0.998      1.349
REMARK  Name = 
REMARK  6 active torsions:
REMARK  status: ('A' for Active; 'I' for Inactive)
REMARK    1  A    between atoms: C_1  and  C_2
REMARK    2  A    between atoms: C_4  and  C_5
REMARK    3  A    between atoms: C_9  and  N_10
REMARK    4  A    between atoms: C_11  and  C_13
REMARK    5  A    between atoms: C_17  and  N_18
REMARK    6  A    between atoms: C_19  and  C_21
REMARK                            x       y       z     vdW  Elec       q    Type
REMARK                         _______ _______ _______ _____ _____    ______ ____
ROOT
ATOM      1  N   UNL     1       1.479   8.685  19.545  0.00  0.00    +0.000 N 
ATOM      2  C   UNL     1       2.233   8.393  18.416  0.00  0.00    +0.000 C 
ATOM      3  O   UNL     1       2.301   9.082  17.400  0.00  0.00    +0.000 OA
ATOM      4  H   UNL     1       1.681   8.174  20.394  0.00  0.00    +0.000 HD
ENDROOT
BRANCH   1   9
ATOM      5  C   UNL     1      -1.389  10.993  18.931  0.00  0.00    +0.000 A 
ATOM      6  C   UNL     1      -1.225  11.902  19.986  0.00  0.00    +0.000 A 
ATOM      7  C   UNL     1      -0.137  11.798  20.845  0.00  0.00    +0.000 A 
ATOM      8  C   UNL     1       0.780  10.760  20.685  0.00  0.00    +0.000 A 
ATOM      9  C   UNL     1       0.615   9.803  19.678  0.00  0.00    +0.000 A 
ATOM     10  C   UNL     1      -0.454   9.950  18.778  0.00  0.00    +0.000 A 
BRANCH   5  14
ATOM     11  C   UNL     1      -5.963  12.257  17.495  0.00  0.00    +0.000 C 
ATOM     12  C   UNL     1      -4.584  11.702  17.431  0.00  0.00    +0.000 A 
ATOM     13  N   UNL     1      -3.735  11.675  18.438  0.00  0.00    +0.000 NA
ATOM     14  C   UNL     1      -2.534  11.109  18.030  0.00  0.00    +0.000 A 
ATOM     15  C   UNL     1      -2.521  10.677  16.717  0.00  0.00    +0.000 A 
ATOM     16  S   UNL     1      -4.016  11.022  15.960  0.00  0.00    +0.000 S 
ENDBRANCH   5  14
ENDBRANCH   1   9
BRANCH   2  17
ATOM     17  C   UNL     1       3.079   7.158  18.450  0.00  0.00    +0.000 A 
ATOM     18  C   UNL     1       3.137   6.330  19.572  0.00  0.00    +0.000 A 
ATOM     19  C   UNL     1       3.876   5.146  19.513  0.00  0.00    +0.000 A 
ATOM     20  C   UNL     1       4.511   4.765  18.330  0.00  0.00    +0.000 A 
ATOM     21  C   UNL     1       4.430   5.562  17.185  0.00  0.00    +0.000 A 
ATOM     22  C   UNL     1       3.741   6.778  17.266  0.00  0.00    +0.000 A 
BRANCH  21  23
ATOM     23  N   UNL     1       4.975   5.194  15.937  0.00  0.00    +0.000 N 
ATOM     24  C   UNL     1       6.282   5.386  15.503  0.00  0.00    +0.000 C 
ATOM     25  O   UNL     1       7.151   5.943  16.168  0.00  0.00    +0.000 OA
ATOM     26  H   UNL     1       4.402   4.608  15.340  0.00  0.00    +0.000 HD
BRANCH  24  27
ATOM     27  C   UNL     1       6.592   4.825  14.186  0.00  0.00    +0.000 A 
ATOM     28  C   UNL     1       7.628   5.214  13.352  0.00  0.00    +0.000 A 
ATOM     29  C   UNL     1       7.683   4.454  12.148  0.00  0.00    +0.000 A 
ATOM     30  C   UNL     1       6.679   3.514  12.092  0.00  0.00    +0.000 A 
ATOM     31  S   UNL     1       5.681   3.556  13.479  0.00  0.00    +0.000 S 
ENDBRANCH  24  27
ENDBRANCH  21  23
ENDBRANCH   2  17
TORSDOF 5
ENDMDL
MODEL 8
REMARK VINA RESULT:      -7.9      1.493      1.896
REMARK  Name = 
REMARK  6 active torsions:
REMARK  status: ('A' for Active; 'I' for Inactive)
REMARK    1  A    between atoms: C_1  and  C_2
REMARK    2  A    between atoms: C_4  and  C_5
REMARK    3  A    between atoms: C_9  and  N_10
REMARK    4  A    between atoms: C_11  and  C_13
REMARK    5  A    between atoms: C_17  and  N_18
REMARK    6  A    between atoms: C_19  and  C_21
REMARK                            x       y       z     vdW  Elec       q    Type
REMARK                         _______ _______ _______ _____ _____    ______ ____
ROOT
ATOM      1  N   UNL     1       1.945   8.517  18.237  0.00  0.00    +0.000 N 
ATOM      2  C   UNL     1       2.128   7.706  19.349  0.00  0.00    +0.000 C 
ATOM      3  O   UNL     1       1.767   7.965  20.494  0.00  0.00    +0.000 OA
ATOM      4  H   UNL     1       2.072   8.104  17.322  0.00  0.00    +0.000 HD
ENDROOT
BRANCH   1   9
ATOM      5  C   UNL     1      -0.655  11.194  18.190  0.00  0.00    +0.000 A 
ATOM      6  C   UNL     1       0.127  12.325  18.462  0.00  0.00    +0.000 A 
ATOM      7  C   UNL     1       1.508  12.216  18.584  0.00  0.00    +0.000 A 
ATOM      8  C   UNL     1       2.119  10.968  18.476  0.00  0.00    +0.000 A 
ATOM      9  C   UNL     1       1.363   9.811  18.262  0.00  0.00    +0.000 A 
ATOM     10  C   UNL     1      -0.024   9.938  18.081  0.00  0.00    +0.000 A 
BRANCH   5  14
ATOM     11  C   UNL     1      -5.283  12.342  19.550  0.00  0.00    +0.000 C 
ATOM     12  C   UNL     1      -4.156  11.853  18.710  0.00  0.00    +0.000 A 
ATOM     13  N   UNL     1      -2.897  11.801  19.094  0.00  0.00    +0.000 NA
ATOM     14  C   UNL     1      -2.106  11.315  18.061  0.00  0.00    +0.000 A 
ATOM     15  C   UNL     1      -2.804  10.968  16.920  0.00  0.00    +0.000 A 
ATOM     16  S   UNL     1      -4.473  11.293  17.117  0.00  0.00    +0.000 S 
ENDBRANCH   5  14
ENDBRANCH   1   9
BRANCH   2  17
ATOM     17  C   UNL     1       2.776   6.373  19.133  0.00  0.00    +0.000 A 
ATOM     18  C   UNL     1       2.646   5.328  20.048  0.00  0.00    +0.000 A 
ATOM     19  C   UNL     1       3.200   4.082  19.750  0.00  0.00    +0.000 A 
ATOM     20  C   UNL     1       3.837   3.864  18.526  0.00  0.00    +0.000 A 
ATOM     21  C   UNL     1       3.941   4.887  17.581  0.00  0.00    +0.000 A 
ATOM     22  C   UNL     1       3.439   6.152  17.910  0.00  0.00    +0.000 A 
BRANCH  21  23
ATOM     23  N   UNL     1       4.494   4.709  16.296  0.00  0.00    +0.000 N 
ATOM     24  C   UNL     1       5.843   4.638  15.966  0.00  0.00    +0.000 C 
ATOM     25  O   UNL     1       6.756   4.748  16.780  0.00  0.00    +0.000 OA
ATOM     26  H   UNL     1       3.852   4.473  15.548  0.00  0.00    +0.000 HD
BRANCH  24  27
ATOM     27  C   UNL     1       6.128   4.363  14.556  0.00  0.00    +0.000 A 
ATOM     28  C   UNL     1       5.344   3.617  13.691  0.00  0.00    +0.000 A 
ATOM     29  C   UNL     1       5.878   3.559  12.371  0.00  0.00    +0.000 A 
ATOM     30  C   UNL     1       7.061   4.254  12.269  0.00  0.00    +0.000 A 
ATOM     31  S   UNL     1       7.520   4.964  13.755  0.00  0.00    +0.000 S 
ENDBRANCH  24  27
ENDBRANCH  21  23
ENDBRANCH   2  17
TORSDOF 5
ENDMDL
MODEL 9
REMARK VINA RESULT:      -7.8      3.940      9.960
REMARK  Name = 
REMARK  6 active torsions:
REMARK  status: ('A' for Active; 'I' for Inactive)
REMARK    1  A    between atoms: C_1  and  C_2
REMARK    2  A    between atoms: C_4  and  C_5
REMARK    3  A    between atoms: C_9  and  N_10
REMARK    4  A    between atoms: C_11  and  C_13
REMARK    5  A    between atoms: C_17  and  N_18
REMARK    6  A    between atoms: C_19  and  C_21
REMARK                            x       y       z     vdW  Elec       q    Type
REMARK                         _______ _______ _______ _____ _____    ______ ____
ROOT
ATOM      1  N   UNL     1       1.312   6.861  21.077  0.00  0.00    +0.000 N 
ATOM      2  C   UNL     1       1.276   8.126  20.504  0.00  0.00    +0.000 C 
ATOM      3  O   UNL     1       1.781   8.442  19.429  0.00  0.00    +0.000 OA
ATOM      4  H   UNL     1       0.673   6.667  21.837  0.00  0.00    +0.000 HD
ENDROOT
BRANCH   1   9
ATOM      5  C   UNL     1       3.856   4.880  19.197  0.00  0.00    +0.000 A 
ATOM      6  C   UNL     1       3.493   3.576  19.559  0.00  0.00    +0.000 A 
ATOM      7  C   UNL     1       2.374   3.349  20.354  0.00  0.00    +0.000 A 
ATOM      8  C   UNL     1       1.628   4.426  20.829  0.00  0.00    +0.000 A 
ATOM      9  C   UNL     1       1.996   5.743  20.535  0.00  0.00    +0.000 A 
ATOM     10  C   UNL     1       3.092   5.961  19.683  0.00  0.00    +0.000 A 
BRANCH   5  14
ATOM     11  C   UNL     1       7.708   7.376  17.324  0.00  0.00    +0.000 C 
ATOM     12  C   UNL     1       6.747   6.265  17.559  0.00  0.00    +0.000 A 
ATOM     13  N   UNL     1       5.702   6.329  18.358  0.00  0.00    +0.000 NA
ATOM     14  C   UNL     1       5.032   5.113  18.361  0.00  0.00    +0.000 A 
ATOM     15  C   UNL     1       5.573   4.159  17.519  0.00  0.00    +0.000 A 
ATOM     16  S   UNL     1       6.968   4.771  16.741  0.00  0.00    +0.000 S 
ENDBRANCH   5  14
ENDBRANCH   1   9
BRANCH   2  17
ATOM     17  C   UNL     1       0.513   9.192  21.229  0.00  0.00    +0.000 A 
ATOM     18  C   UNL     1      -0.009   8.991  22.508  0.00  0.00    +0.000 A 
ATOM     19  C   UNL     1      -0.634  10.050  23.167  0.00  0.00    +0.000 A 
ATOM     20  C   UNL     1      -0.696  11.315  22.577  0.00  0.00    +0.000 A 
ATOM     21  C   UNL     1      -0.144  11.544  21.315  0.00  0.00    +0.000 A 
ATOM     22  C   UNL     1       0.428  10.464  20.631  0.00  0.00    +0.000 A 
BRANCH  21  23
ATOM     23  N   UNL     1      -0.097  12.814  20.702  0.00  0.00    +0.000 N 
ATOM     24  C   UNL     1       0.916  13.760  20.810  0.00  0.00    +0.000 C 
ATOM     25  O   UNL     1       1.922  13.613  21.499  0.00  0.00    +0.000 OA
ATOM     26  H   UNL     1      -0.802  13.011  20.000  0.00  0.00    +0.000 HD
BRANCH  24  27
ATOM     27  C   UNL     1       0.738  14.962  19.993  0.00  0.00    +0.000 A 
ATOM     28  C   UNL     1      -0.366  15.269  19.215  0.00  0.00    +0.000 A 
ATOM     29  C   UNL     1      -0.249  16.529  18.560  0.00  0.00    +0.000 A 
ATOM     30  C   UNL     1       0.949  17.143  18.848  0.00  0.00    +0.000 A 
ATOM     31  S   UNL     1       1.918  16.202  19.895  0.00  0.00    +0.000 S 
ENDBRANCH  24  27
ENDBRANCH  21  23
ENDBRANCH   2  17
TORSDOF 5
ENDMDL
