MODEL 1
REMARK VINA RESULT:      -8.3      0.000      0.000
REMARK  Name = 
REMARK  7 active torsions:
REMARK  status: ('A' for Active; 'I' for Inactive)
REMARK    1  A    between atoms: C_1  and  C_2
REMARK    2  A    between atoms: C_2  and  C_3
REMARK    3  A    between atoms: C_7  and  C_8
REMARK    4  A    between atoms: N_10  and  C_11
REMARK    5  A    between atoms: C_14  and  N_15
REMARK    6  A    between atoms: C_17  and  C_18
REMARK    7  A    between atoms: C_23  and  C_24
REMARK                            x       y       z     vdW  Elec       q    Type
REMARK                         _______ _______ _______ _____ _____    ______ ____
ROOT
ATOM      1  C   UNL     1       0.971   9.146  19.218  0.00  0.00    +0.000 A 
ATOM      2  C   UNL     1       1.573   9.213  17.962  0.00  0.00    +0.000 A 
ATOM      3  C   UNL     1       2.526   8.281  17.575  0.00  0.00    +0.000 A 
ATOM      4  C   UNL     1       2.875   7.241  18.429  0.00  0.00    +0.000 A 
ATOM      5  C   UNL     1       2.407   7.261  19.750  0.00  0.00    +0.000 A 
ATOM      6  C   UNL     1       1.455   8.218  20.143  0.00  0.00    +0.000 A 
ENDROOT
BRANCH   4   7
ATOM      7  N   UNL     1       3.662   6.155  17.950  0.00  0.00    +0.000 N 
ATOM      8  N   UNL     1       5.007   6.290  17.800  0.00  0.00    +0.000 NA
ATOM      9  C   UNL     1       5.417   5.141  17.229  0.00  0.00    +0.000 A 
ATOM     10  C   UNL     1       4.342   4.228  17.090  0.00  0.00    +0.000 A 
ATOM     11  C   UNL     1       3.240   4.881  17.585  0.00  0.00    +0.000 A 
BRANCH   9  12
ATOM     12  C   UNL     1       6.846   4.871  16.841  0.00  0.00    +0.000 C 
ATOM     13  F   UNL     1       6.979   4.055  15.764  0.00  0.00    +0.000 F 
ATOM     14  F   UNL     1       7.513   6.022  16.549  0.00  0.00    +0.000 F 
ATOM     15  F   UNL     1       7.535   4.283  17.860  0.00  0.00    +0.000 F 
ENDBRANCH   9  12
BRANCH  11  16
ATOM     16  C   UNL     1       1.855   4.270  17.769  0.00  0.00    +0.000 C 
ATOM     17  C   UNL     1       1.300   3.891  19.119  0.00  0.00    +0.000 C 
ATOM     18  C   UNL     1       1.802   2.820  18.203  0.00  0.00    +0.000 C 
ENDBRANCH  11  16
ENDBRANCH   4   7
BRANCH   1  21
ATOM     19  C   UNL     1       0.036  11.260  20.072  0.00  0.00    +0.000 C 
ATOM     20  O   UNL     1       1.109  11.835  20.231  0.00  0.00    +0.000 OA
ATOM     21  N   UNL     1      -0.116   9.982  19.550  0.00  0.00    +0.000 N 
ATOM     22  H   UNL     1      -1.053   9.726  19.260  0.00  0.00    +0.000 HD
BRANCH  19  27
ATOM     23  C   UNL     1      -1.686  12.114  21.690  0.00  0.00    +0.000 A 
ATOM     24  O   UNL     1      -2.884  12.765  21.601  0.00  0.00    +0.000 OA
ATOM     25  C   UNL     1      -3.068  12.938  20.264  0.00  0.00    +0.000 A 
ATOM     26  N   UNL     1      -2.105  12.467  19.496  0.00  0.00    +0.000 NA
ATOM     27  C   UNL     1      -1.211  11.928  20.404  0.00  0.00    +0.000 A 
BRANCH  23  29
ATOM     28  C   UNL     1      -0.928  10.265  23.169  0.00  0.00    +0.000 C 
ATOM     29  C   UNL     1      -1.181  11.759  23.041  0.00  0.00    +0.000 C 
ENDBRANCH  23  29
ENDBRANCH  19  27
ENDBRANCH   1  21
TORSDOF 6
ENDMDL
MODEL 2
REMARK VINA RESULT:      -8.3      1.138      1.757
REMARK  Name = 
REMARK  7 active torsions:
REMARK  status: ('A' for Active; 'I' for Inactive)
REMARK    1  A    between atoms: C_1  and  C_2
REMARK    2  A    between atoms: C_2  and  C_3
REMARK    3  A    between atoms: C_7  and  C_8
REMARK    4  A    between atoms: N_10  and  C_11
REMARK    5  A    between atoms: C_14  and  N_15
REMARK    6  A    between atoms: C_17  and  C_18
REMARK    7  A    between atoms: C_23  and  C_24
REMARK                            x       y       z     vdW  Elec       q    Type
REMARK                         _______ _______ _______ _____ _____    ______ ____
ROOT
ATOM      1  C   UNL     1       0.983   8.780  19.968  0.00  0.00    +0.000 A 
ATOM      2  C   UNL     1       1.429   8.954  18.658  0.00  0.00    +0.000 A 
ATOM      3  C   UNL     1       2.285   8.035  18.068  0.00  0.00    +0.000 A 
ATOM      4  C   UNL     1       2.690   6.904  18.768  0.00  0.00    +0.000 A 
ATOM      5  C   UNL     1       2.388   6.806  20.134  0.00  0.00    +0.000 A 
ATOM      6  C   UNL     1       1.535   7.749  20.733  0.00  0.00    +0.000 A 
ENDROOT
BRANCH   4   7
ATOM      7  N   UNL     1       3.363   5.847  18.092  0.00  0.00    +0.000 N 
ATOM      8  N   UNL     1       4.673   5.971  17.749  0.00  0.00    +0.000 NA
ATOM      9  C   UNL     1       4.959   4.865  17.036  0.00  0.00    +0.000 A 
ATOM     10  C   UNL     1       3.850   3.984  16.992  0.00  0.00    +0.000 A 
ATOM     11  C   UNL     1       2.855   4.614  17.699  0.00  0.00    +0.000 A 
BRANCH   9  12
ATOM     12  C   UNL     1       6.305   4.602  16.415  0.00  0.00    +0.000 C 
ATOM     13  F   UNL     1       6.764   5.623  15.645  0.00  0.00    +0.000 F 
ATOM     14  F   UNL     1       7.256   4.362  17.360  0.00  0.00    +0.000 F 
ATOM     15  F   UNL     1       6.277   3.497  15.617  0.00  0.00    +0.000 F 
ENDBRANCH   9  12
BRANCH  11  16
ATOM     16  C   UNL     1       1.496   4.013  18.045  0.00  0.00    +0.000 C 
ATOM     17  C   UNL     1       1.116   3.597  19.444  0.00  0.00    +0.000 C 
ATOM     18  C   UNL     1       1.477   2.551  18.438  0.00  0.00    +0.000 C 
ENDBRANCH  11  16
ENDBRANCH   4   7
BRANCH   1  21
ATOM     19  C   UNL     1       0.260  10.769  21.232  0.00  0.00    +0.000 C 
ATOM     20  O   UNL     1       1.380  11.238  21.410  0.00  0.00    +0.000 OA
ATOM     21  N   UNL     1      -0.017   9.613  20.513  0.00  0.00    +0.000 N 
ATOM     22  H   UNL     1      -0.986   9.472  20.250  0.00  0.00    +0.000 HD
BRANCH  19  27
ATOM     23  C   UNL     1      -1.744  12.271  21.023  0.00  0.00    +0.000 A 
ATOM     24  O   UNL     1      -2.721  12.730  21.859  0.00  0.00    +0.000 OA
ATOM     25  C   UNL     1      -2.428  12.158  23.058  0.00  0.00    +0.000 A 
ATOM     26  N   UNL     1      -1.366  11.377  23.066  0.00  0.00    +0.000 NA
ATOM     27  C   UNL     1      -0.913  11.447  21.760  0.00  0.00    +0.000 A 
BRANCH  23  29
ATOM     28  C   UNL     1      -2.407  11.682  18.699  0.00  0.00    +0.000 C 
ATOM     29  C   UNL     1      -1.765  12.720  19.607  0.00  0.00    +0.000 C 
ENDBRANCH  23  29
ENDBRANCH  19  27
ENDBRANCH   1  21
TORSDOF 6
ENDMDL
MODEL 3
REMARK VINA RESULT:      -8.3      1.337      2.195
REMARK  Name = 
REMARK  7 active torsions:
REMARK  status: ('A' for Active; 'I' for Inactive)
REMARK    1  A    between atoms: C_1  and  C_2
REMARK    2  A    between atoms: C_2  and  C_3
REMARK    3  A    between atoms: C_7  and  C_8
REMARK    4  A    between atoms: N_10  and  C_11
REMARK    5  A    between atoms: C_14  and  N_15
REMARK    6  A    between atoms: C_17  and  C_18
REMARK    7  A    between atoms: C_23  and  C_24
REMARK                            x       y       z     vdW  Elec       q    Type
REMARK                         _______ _______ _______ _____ _____    ______ ____
ROOT
ATOM      1  C   UNL     1       1.380   8.788  19.677  0.00  0.00    +0.000 A 
ATOM      2  C   UNL     1       1.757   7.660  20.405  0.00  0.00    +0.000 A 
ATOM      3  C   UNL     1       2.479   6.635  19.811  0.00  0.00    +0.000 A 
ATOM      4  C   UNL     1       2.865   6.731  18.478  0.00  0.00    +0.000 A 
ATOM      5  C   UNL     1       2.349   7.773  17.695  0.00  0.00    +0.000 A 
ATOM      6  C   UNL     1       1.603   8.801  18.298  0.00  0.00    +0.000 A 
ENDROOT
BRANCH   4   7
ATOM      7  N   UNL     1       3.803   5.807  17.937  0.00  0.00    +0.000 N 
ATOM      8  N   UNL     1       5.126   6.118  17.881  0.00  0.00    +0.000 NA
ATOM      9  C   UNL     1       5.703   5.096  17.220  0.00  0.00    +0.000 A 
ATOM     10  C   UNL     1       4.759   4.081  16.924  0.00  0.00    +0.000 A 
ATOM     11  C   UNL     1       3.562   4.539  17.419  0.00  0.00    +0.000 A 
BRANCH   9  12
ATOM     12  C   UNL     1       7.171   5.044  16.891  0.00  0.00    +0.000 C 
ATOM     13  F   UNL     1       7.789   6.252  16.938  0.00  0.00    +0.000 F 
ATOM     14  F   UNL     1       7.846   4.221  17.741  0.00  0.00    +0.000 F 
ATOM     15  F   UNL     1       7.382   4.549  15.639  0.00  0.00    +0.000 F 
ENDBRANCH   9  12
BRANCH  11  16
ATOM     16  C   UNL     1       2.258   3.749  17.457  0.00  0.00    +0.000 C 
ATOM     17  C   UNL     1       1.614   3.293  18.742  0.00  0.00    +0.000 C 
ATOM     18  C   UNL     1       2.350   2.303  17.896  0.00  0.00    +0.000 C 
ENDBRANCH  11  16
ENDBRANCH   4   7
BRANCH   1  21
ATOM     19  C   UNL     1      -0.235   9.806  21.236  0.00  0.00    +0.000 C 
ATOM     20  O   UNL     1      -0.707   8.754  21.657  0.00  0.00    +0.000 OA
ATOM     21  N   UNL     1       0.799   9.905  20.314  0.00  0.00    +0.000 N 
ATOM     22  H   UNL     1       1.241  10.814  20.235  0.00  0.00    +0.000 HD
BRANCH  19  27
ATOM     23  C   UNL     1      -1.423  12.003  20.961  0.00  0.00    +0.000 A 
ATOM     24  O   UNL     1      -1.709  13.074  21.759  0.00  0.00    +0.000 OA
ATOM     25  C   UNL     1      -1.175  12.741  22.966  0.00  0.00    +0.000 A 
ATOM     26  N   UNL     1      -0.583  11.563  23.015  0.00  0.00    +0.000 NA
ATOM     27  C   UNL     1      -0.731  11.081  21.726  0.00  0.00    +0.000 A 
BRANCH  23  29
ATOM     28  C   UNL     1      -0.866  12.776  18.664  0.00  0.00    +0.000 C 
ATOM     29  C   UNL     1      -1.869  12.047  19.545  0.00  0.00    +0.000 C 
ENDBRANCH  23  29
ENDBRANCH  19  27
ENDBRANCH   1  21
TORSDOF 6
ENDMDL
MODEL 4
REMARK VINA RESULT:      -8.2      6.163      7.950
REMARK  Name = 
REMARK  7 active torsions:
REMARK  status: ('A' for Active; 'I' for Inactive)
REMARK    1  A    between atoms: C_1  and  C_2
REMARK    2  A    between atoms: C_2  and  C_3
REMARK    3  A    between atoms: C_7  and  C_8
REMARK    4  A    between atoms: N_10  and  C_11
REMARK    5  A    between atoms: C_14  and  N_15
REMARK    6  A    between atoms: C_17  and  C_18
REMARK    7  A    between atoms: C_23  and  C_24
REMARK                            x       y       z     vdW  Elec       q    Type
REMARK                         _______ _______ _______ _____ _____    ______ ____
ROOT
ATOM      1  C   UNL     1       8.225   7.841  18.539  0.00  0.00    +0.000 A 
ATOM      2  C   UNL     1       7.373   8.149  17.478  0.00  0.00    +0.000 A 
ATOM      3  C   UNL     1       6.427   7.237  17.034  0.00  0.00    +0.000 A 
ATOM      4  C   UNL     1       6.291   6.005  17.665  0.00  0.00    +0.000 A 
ATOM      5  C   UNL     1       7.248   5.619  18.614  0.00  0.00    +0.000 A 
ATOM      6  C   UNL     1       8.217   6.541  19.048  0.00  0.00    +0.000 A 
ENDROOT
BRANCH   4   7
ATOM      7  N   UNL     1       5.173   5.172  17.376  0.00  0.00    +0.000 N 
ATOM      8  N   UNL     1       3.989   5.359  18.019  0.00  0.00    +0.000 NA
ATOM      9  C   UNL     1       3.198   4.350  17.605  0.00  0.00    +0.000 A 
ATOM     10  C   UNL     1       3.849   3.560  16.625  0.00  0.00    +0.000 A 
ATOM     11  C   UNL     1       5.093   4.121  16.470  0.00  0.00    +0.000 A 
BRANCH   9  12
ATOM     12  C   UNL     1       1.793   4.139  18.102  0.00  0.00    +0.000 C 
ATOM     13  F   UNL     1       1.555   4.682  19.324  0.00  0.00    +0.000 F 
ATOM     14  F   UNL     1       0.874   4.670  17.248  0.00  0.00    +0.000 F 
ATOM     15  F   UNL     1       1.495   2.813  18.202  0.00  0.00    +0.000 F 
ENDBRANCH   9  12
BRANCH  11  16
ATOM     16  C   UNL     1       6.132   3.703  15.433  0.00  0.00    +0.000 C 
ATOM     17  C   UNL     1       6.963   4.696  14.661  0.00  0.00    +0.000 C 
ATOM     18  C   UNL     1       5.814   4.017  13.987  0.00  0.00    +0.000 C 
ENDBRANCH  11  16
ENDBRANCH   4   7
BRANCH   1  21
ATOM     19  C   UNL     1       9.063  10.153  18.706  0.00  0.00    +0.000 C 
ATOM     20  O   UNL     1       8.290  10.643  17.889  0.00  0.00    +0.000 OA
ATOM     21  N   UNL     1       9.067   8.822  19.104  0.00  0.00    +0.000 N 
ATOM     22  H   UNL     1       9.594   8.608  19.943  0.00  0.00    +0.000 HD
BRANCH  19  27
ATOM     23  C   UNL     1       9.891  11.556  20.619  0.00  0.00    +0.000 A 
ATOM     24  O   UNL     1      11.021  12.271  20.899  0.00  0.00    +0.000 OA
ATOM     25  C   UNL     1      11.807  12.091  19.803  0.00  0.00    +0.000 A 
ATOM     26  N   UNL     1      11.292  11.330  18.858  0.00  0.00    +0.000 NA
ATOM     27  C   UNL     1      10.054  10.984  19.371  0.00  0.00    +0.000 A 
BRANCH  23  29
ATOM     28  C   UNL     1       8.388  12.957  22.020  0.00  0.00    +0.000 C 
ATOM     29  C   UNL     1       8.801  11.547  21.628  0.00  0.00    +0.000 C 
ENDBRANCH  23  29
ENDBRANCH  19  27
ENDBRANCH   1  21
TORSDOF 6
ENDMDL
MODEL 5
REMARK VINA RESULT:      -8.2      6.189      8.374
REMARK  Name = 
REMARK  7 active torsions:
REMARK  status: ('A' for Active; 'I' for Inactive)
REMARK    1  A    between atoms: C_1  and  C_2
REMARK    2  A    between atoms: C_2  and  C_3
REMARK    3  A    between atoms: C_7  and  C_8
REMARK    4  A    between atoms: N_10  and  C_11
REMARK    5  A    between atoms: C_14  and  N_15
REMARK    6  A    between atoms: C_17  and  C_18
REMARK    7  A    between atoms: C_23  and  C_24
REMARK                            x       y       z     vdW  Elec       q    Type
REMARK                         _______ _______ _______ _____ _____    ______ ____
ROOT
ATOM      1  C   UNL     1       8.214   7.931  18.532  0.00  0.00    +0.000 A 
ATOM      2  C   UNL     1       7.379   8.205  17.449  0.00  0.00    +0.000 A 
ATOM      3  C   UNL     1       6.459   7.269  17.002  0.00  0.00    +0.000 A 
ATOM      4  C   UNL     1       6.334   6.044  17.650  0.00  0.00    +0.000 A 
ATOM      5  C   UNL     1       7.278   5.692  18.624  0.00  0.00    +0.000 A 
ATOM      6  C   UNL     1       8.221   6.639  19.063  0.00  0.00    +0.000 A 
ENDROOT
BRANCH   4   7
ATOM      7  N   UNL     1       5.237   5.186  17.352  0.00  0.00    +0.000 N 
ATOM      8  N   UNL     1       4.047   5.341  17.990  0.00  0.00    +0.000 NA
ATOM      9  C   UNL     1       3.283   4.315  17.568  0.00  0.00    +0.000 A 
ATOM     10  C   UNL     1       3.957   3.545  16.587  0.00  0.00    +0.000 A 
ATOM     11  C   UNL     1       5.188   4.137  16.440  0.00  0.00    +0.000 A 
BRANCH   9  12
ATOM     12  C   UNL     1       1.880   4.067  18.058  0.00  0.00    +0.000 C 
ATOM     13  F   UNL     1       0.917   4.569  17.242  0.00  0.00    +0.000 F 
ATOM     14  F   UNL     1       1.626   2.737  18.199  0.00  0.00    +0.000 F 
ATOM     15  F   UNL     1       1.678   4.624  19.285  0.00  0.00    +0.000 F 
ENDBRANCH   9  12
BRANCH  11  16
ATOM     16  C   UNL     1       6.240   3.751  15.406  0.00  0.00    +0.000 C 
ATOM     17  C   UNL     1       6.992   4.766  14.583  0.00  0.00    +0.000 C 
ATOM     18  C   UNL     1       5.885   3.983  13.953  0.00  0.00    +0.000 C 
ENDBRANCH  11  16
ENDBRANCH   4   7
BRANCH   1  21
ATOM     19  C   UNL     1       8.982  10.267  18.703  0.00  0.00    +0.000 C 
ATOM     20  O   UNL     1       8.193  10.734  17.886  0.00  0.00    +0.000 OA
ATOM     21  N   UNL     1       9.027   8.936  19.098  0.00  0.00    +0.000 N 
ATOM     22  H   UNL     1       9.560   8.738  19.937  0.00  0.00    +0.000 HD
BRANCH  19  27
ATOM     23  C   UNL     1      10.999  11.765  18.737  0.00  0.00    +0.000 A 
ATOM     24  O   UNL     1      11.688  12.468  19.684  0.00  0.00    +0.000 OA
ATOM     25  C   UNL     1      11.013  12.217  20.838  0.00  0.00    +0.000 A 
ATOM     26  N   UNL     1       9.962  11.429  20.718  0.00  0.00    +0.000 NA
ATOM     27  C   UNL     1       9.946  11.127  19.368  0.00  0.00    +0.000 A 
BRANCH  23  29
ATOM     28  C   UNL     1      11.614  13.250  16.839  0.00  0.00    +0.000 C 
ATOM     29  C   UNL     1      11.486  11.818  17.335  0.00  0.00    +0.000 C 
ENDBRANCH  23  29
ENDBRANCH  19  27
ENDBRANCH   1  21
TORSDOF 6
ENDMDL
MODEL 6
REMARK VINA RESULT:      -8.2      5.239      9.251
REMARK  Name = 
REMARK  7 active torsions:
REMARK  status: ('A' for Active; 'I' for Inactive)
REMARK    1  A    between atoms: C_1  and  C_2
REMARK    2  A    between atoms: C_2  and  C_3
REMARK    3  A    between atoms: C_7  and  C_8
REMARK    4  A    between atoms: N_10  and  C_11
REMARK    5  A    between atoms: C_14  and  N_15
REMARK    6  A    between atoms: C_17  and  C_18
REMARK    7  A    between atoms: C_23  and  C_24
REMARK                            x       y       z     vdW  Elec       q    Type
REMARK                         _______ _______ _______ _____ _____    ______ ____
ROOT
ATOM      1  C   UNL     1       2.312   7.448  19.629  0.00  0.00    +0.000 A 
ATOM      2  C   UNL     1       1.584   8.056  20.652  0.00  0.00    +0.000 A 
ATOM      3  C   UNL     1       0.766   9.146  20.396  0.00  0.00    +0.000 A 
ATOM      4  C   UNL     1       0.635   9.636  19.101  0.00  0.00    +0.000 A 
ATOM      5  C   UNL     1       1.486   9.146  18.101  0.00  0.00    +0.000 A 
ATOM      6  C   UNL     1       2.327   8.051  18.369  0.00  0.00    +0.000 A 
ENDROOT
BRANCH   4   7
ATOM      7  N   UNL     1      -0.378  10.588  18.795  0.00  0.00    +0.000 N 
ATOM      8  N   UNL     1      -1.630  10.180  18.457  0.00  0.00    +0.000 NA
ATOM      9  C   UNL     1      -2.292  11.305  18.123  0.00  0.00    +0.000 A 
ATOM     10  C   UNL     1      -1.486  12.452  18.330  0.00  0.00    +0.000 A 
ATOM     11  C   UNL     1      -0.282  11.975  18.790  0.00  0.00    +0.000 A 
BRANCH   9  12
ATOM     12  C   UNL     1      -3.717  11.317  17.639  0.00  0.00    +0.000 C 
ATOM     13  F   UNL     1      -4.504  12.228  18.267  0.00  0.00    +0.000 F 
ATOM     14  F   UNL     1      -3.791  11.583  16.305  0.00  0.00    +0.000 F 
ATOM     15  F   UNL     1      -4.312  10.103  17.816  0.00  0.00    +0.000 F 
ENDBRANCH   9  12
BRANCH  11  16
ATOM     16  C   UNL     1       0.883  12.831  19.277  0.00  0.00    +0.000 C 
ATOM     17  C   UNL     1       1.200  14.187  18.700  0.00  0.00    +0.000 C 
ATOM     18  C   UNL     1       2.042  13.011  18.320  0.00  0.00    +0.000 C 
ENDBRANCH  11  16
ENDBRANCH   4   7
BRANCH   1  21
ATOM     19  C   UNL     1       2.646   5.034  19.260  0.00  0.00    +0.000 C 
ATOM     20  O   UNL     1       1.747   4.891  18.436  0.00  0.00    +0.000 OA
ATOM     21  N   UNL     1       3.007   6.240  19.848  0.00  0.00    +0.000 N 
ATOM     22  H   UNL     1       3.902   6.255  20.323  0.00  0.00    +0.000 HD
BRANCH  19  27
ATOM     23  C   UNL     1       4.755   3.668  19.256  0.00  0.00    +0.000 A 
ATOM     24  O   UNL     1       5.175   2.504  19.835  0.00  0.00    +0.000 OA
ATOM     25  C   UNL     1       4.106   2.094  20.568  0.00  0.00    +0.000 A 
ATOM     26  N   UNL     1       3.050   2.882  20.517  0.00  0.00    +0.000 NA
ATOM     27  C   UNL     1       3.455   3.898  19.669  0.00  0.00    +0.000 A 
BRANCH  23  29
ATOM     28  C   UNL     1       6.529   5.406  19.132  0.00  0.00    +0.000 C 
ATOM     29  C   UNL     1       5.700   4.388  18.364  0.00  0.00    +0.000 C 
ENDBRANCH  23  29
ENDBRANCH  19  27
ENDBRANCH   1  21
TORSDOF 6
ENDMDL
MODEL 7
REMARK VINA RESULT:      -8.1      1.024      1.544
REMARK  Name = 
REMARK  7 active torsions:
REMARK  status: ('A' for Active; 'I' for Inactive)
REMARK    1  A    between atoms: C_1  and  C_2
REMARK    2  A    between atoms: C_2  and  C_3
REMARK    3  A    between atoms: C_7  and  C_8
REMARK    4  A    between atoms: N_10  and  C_11
REMARK    5  A    between atoms: C_14  and  N_15
REMARK    6  A    between atoms: C_17  and  C_18
REMARK    7  A    between atoms: C_23  and  C_24
REMARK                            x       y       z     vdW  Elec       q    Type
REMARK                         _______ _______ _______ _____ _____    ______ ____
ROOT
ATOM      1  C   UNL     1       1.457   9.058  19.658  0.00  0.00    +0.000 A 
ATOM      2  C   UNL     1       1.689   7.889  20.382  0.00  0.00    +0.000 A 
ATOM      3  C   UNL     1       2.341   6.809  19.805  0.00  0.00    +0.000 A 
ATOM      4  C   UNL     1       2.803   6.887  18.495  0.00  0.00    +0.000 A 
ATOM      5  C   UNL     1       2.428   7.985  17.708  0.00  0.00    +0.000 A 
ATOM      6  C   UNL     1       1.751   9.070  18.292  0.00  0.00    +0.000 A 
ENDROOT
BRANCH   4   7
ATOM      7  N   UNL     1       3.677   5.886  17.984  0.00  0.00    +0.000 N 
ATOM      8  N   UNL     1       5.017   6.108  17.917  0.00  0.00    +0.000 NA
ATOM      9  C   UNL     1       5.524   5.030  17.289  0.00  0.00    +0.000 A 
ATOM     10  C   UNL     1       4.515   4.070  17.027  0.00  0.00    +0.000 A 
ATOM     11  C   UNL     1       3.352   4.621  17.507  0.00  0.00    +0.000 A 
BRANCH   9  12
ATOM     12  C   UNL     1       6.985   4.870  16.962  0.00  0.00    +0.000 C 
ATOM     13  F   UNL     1       7.618   6.040  16.687  0.00  0.00    +0.000 F 
ATOM     14  F   UNL     1       7.667   4.283  17.984  0.00  0.00    +0.000 F 
ATOM     15  F   UNL     1       7.165   4.067  15.875  0.00  0.00    +0.000 F 
ENDBRANCH   9  12
BRANCH  11  16
ATOM     16  C   UNL     1       1.999   3.920  17.572  0.00  0.00    +0.000 C 
ATOM     17  C   UNL     1       1.316   3.575  18.871  0.00  0.00    +0.000 C 
ATOM     18  C   UNL     1       1.993   2.497  18.087  0.00  0.00    +0.000 C 
ENDBRANCH  11  16
ENDBRANCH   4   7
BRANCH   1  21
ATOM     19  C   UNL     1      -0.344  10.680  20.102  0.00  0.00    +0.000 C 
ATOM     20  O   UNL     1      -1.211  10.111  19.447  0.00  0.00    +0.000 OA
ATOM     21  N   UNL     1       0.952  10.215  20.287  0.00  0.00    +0.000 N 
ATOM     22  H   UNL     1       1.483  10.655  21.030  0.00  0.00    +0.000 HD
BRANCH  19  27
ATOM     23  C   UNL     1      -1.156  12.011  22.074  0.00  0.00    +0.000 A 
ATOM     24  O   UNL     1      -1.313  13.335  22.371  0.00  0.00    +0.000 OA
ATOM     25  C   UNL     1      -0.884  13.978  21.252  0.00  0.00    +0.000 A 
ATOM     26  N   UNL     1      -0.466  13.196  20.276  0.00  0.00    +0.000 NA
ATOM     27  C   UNL     1      -0.642  11.924  20.792  0.00  0.00    +0.000 A 
BRANCH  23  29
ATOM     28  C   UNL     1      -0.474   9.948  23.284  0.00  0.00    +0.000 C 
ATOM     29  C   UNL     1      -1.545  11.012  23.101  0.00  0.00    +0.000 C 
ENDBRANCH  23  29
ENDBRANCH  19  27
ENDBRANCH   1  21
TORSDOF 6
ENDMDL
MODEL 8
REMARK VINA RESULT:      -8.1      4.844      8.754
REMARK  Name = 
REMARK  7 active torsions:
REMARK  status: ('A' for Active; 'I' for Inactive)
REMARK    1  A    between atoms: C_1  and  C_2
REMARK    2  A    between atoms: C_2  and  C_3
REMARK    3  A    between atoms: C_7  and  C_8
REMARK    4  A    between atoms: N_10  and  C_11
REMARK    5  A    between atoms: C_14  and  N_15
REMARK    6  A    between atoms: C_17  and  C_18
REMARK    7  A    between atoms: C_23  and  C_24
REMARK                            x       y       z     vdW  Elec       q    Type
REMARK                         _______ _______ _______ _____ _____    ______ ____
ROOT
ATOM      1  C   UNL     1       2.252   7.427  19.417  0.00  0.00    +0.000 A 
ATOM      2  C   UNL     1       2.288   8.006  18.148  0.00  0.00    +0.000 A 
ATOM      3  C   UNL     1       1.723   9.251  17.915  0.00  0.00    +0.000 A 
ATOM      4  C   UNL     1       1.134   9.959  18.956  0.00  0.00    +0.000 A 
ATOM      5  C   UNL     1       0.940   9.320  20.189  0.00  0.00    +0.000 A 
ATOM      6  C   UNL     1       1.500   8.050  20.415  0.00  0.00    +0.000 A 
ENDROOT
BRANCH   4   7
ATOM      7  N   UNL     1       0.773  11.325  18.778  0.00  0.00    +0.000 N 
ATOM      8  N   UNL     1       1.725  12.296  18.780  0.00  0.00    +0.000 NA
ATOM      9  C   UNL     1       1.047  13.458  18.708  0.00  0.00    +0.000 A 
ATOM     10  C   UNL     1      -0.345  13.229  18.573  0.00  0.00    +0.000 A 
ATOM     11  C   UNL     1      -0.494  11.863  18.586  0.00  0.00    +0.000 A 
BRANCH   9  12
ATOM     12  C   UNL     1       1.711  14.809  18.725  0.00  0.00    +0.000 C 
ATOM     13  F   UNL     1       0.864  15.841  18.472  0.00  0.00    +0.000 F 
ATOM     14  F   UNL     1       2.296  15.065  19.928  0.00  0.00    +0.000 F 
ATOM     15  F   UNL     1       2.705  14.886  17.796  0.00  0.00    +0.000 F 
ENDBRANCH   9  12
BRANCH  11  16
ATOM     16  C   UNL     1      -1.799  11.111  18.345  0.00  0.00    +0.000 C 
ATOM     17  C   UNL     1      -1.913   9.954  17.386  0.00  0.00    +0.000 C 
ATOM     18  C   UNL     1      -2.450  11.293  16.990  0.00  0.00    +0.000 C 
ENDBRANCH  11  16
ENDBRANCH   4   7
BRANCH   1  21
ATOM     19  C   UNL     1       2.617   4.999  19.202  0.00  0.00    +0.000 C 
ATOM     20  O   UNL     1       1.702   4.788  18.412  0.00  0.00    +0.000 OA
ATOM     21  N   UNL     1       2.971   6.247  19.699  0.00  0.00    +0.000 N 
ATOM     22  H   UNL     1       3.877   6.306  20.151  0.00  0.00    +0.000 HD
BRANCH  19  27
ATOM     23  C   UNL     1       4.767   3.701  19.284  0.00  0.00    +0.000 A 
ATOM     24  O   UNL     1       5.213   2.573  19.912  0.00  0.00    +0.000 OA
ATOM     25  C   UNL     1       4.144   2.156  20.642  0.00  0.00    +0.000 A 
ATOM     26  N   UNL     1       3.065   2.908  20.544  0.00  0.00    +0.000 NA
ATOM     27  C   UNL     1       3.453   3.905  19.666  0.00  0.00    +0.000 A 
BRANCH  23  29
ATOM     28  C   UNL     1       6.552   5.427  19.143  0.00  0.00    +0.000 C 
ATOM     29  C   UNL     1       5.705   4.418  18.383  0.00  0.00    +0.000 C 
ENDBRANCH  23  29
ENDBRANCH  19  27
ENDBRANCH   1  21
TORSDOF 6
ENDMDL
MODEL 9
REMARK VINA RESULT:      -8.1      1.342      2.060
REMARK  Name = 
REMARK  7 active torsions:
REMARK  status: ('A' for Active; 'I' for Inactive)
REMARK    1  A    between atoms: C_1  and  C_2
REMARK    2  A    between atoms: C_2  and  C_3
REMARK    3  A    between atoms: C_7  and  C_8
REMARK    4  A    between atoms: N_10  and  C_11
REMARK    5  A    between atoms: C_14  and  N_15
REMARK    6  A    between atoms: C_17  and  C_18
REMARK    7  A    between atoms: C_23  and  C_24
REMARK                            x       y       z     vdW  Elec       q    Type
REMARK                         _______ _______ _______ _____ _____    ______ ____
ROOT
ATOM      1  C   UNL     1       1.482   8.787  19.913  0.00  0.00    +0.000 A 
ATOM      2  C   UNL     1       1.721   7.559  20.528  0.00  0.00    +0.000 A 
ATOM      3  C   UNL     1       2.389   6.544  19.860  0.00  0.00    +0.000 A 
ATOM      4  C   UNL     1       2.861   6.748  18.567  0.00  0.00    +0.000 A 
ATOM      5  C   UNL     1       2.480   7.909  17.881  0.00  0.00    +0.000 A 
ATOM      6  C   UNL     1       1.787   8.928  18.557  0.00  0.00    +0.000 A 
ENDROOT
BRANCH   4   7
ATOM      7  N   UNL     1       3.750   5.807  17.973  0.00  0.00    +0.000 N 
ATOM      8  N   UNL     1       5.079   6.078  17.878  0.00  0.00    +0.000 NA
ATOM      9  C   UNL     1       5.600   5.054  17.175  0.00  0.00    +0.000 A 
ATOM     10  C   UNL     1       4.615   4.077  16.890  0.00  0.00    +0.000 A 
ATOM     11  C   UNL     1       3.451   4.560  17.437  0.00  0.00    +0.000 A 
BRANCH   9  12
ATOM     12  C   UNL     1       7.054   4.964  16.794  0.00  0.00    +0.000 C 
ATOM     13  F   UNL     1       7.271   4.372  15.591  0.00  0.00    +0.000 F 
ATOM     14  F   UNL     1       7.636   6.194  16.740  0.00  0.00    +0.000 F 
ATOM     15  F   UNL     1       7.764   4.249  17.711  0.00  0.00    +0.000 F 
ENDBRANCH   9  12
BRANCH  11  16
ATOM     16  C   UNL     1       2.124   3.810  17.503  0.00  0.00    +0.000 C 
ATOM     17  C   UNL     1       1.511   3.343  18.799  0.00  0.00    +0.000 C 
ATOM     18  C   UNL     1       2.185   2.352  17.905  0.00  0.00    +0.000 C 
ENDBRANCH  11  16
ENDBRANCH   4   7
BRANCH   1  21
ATOM     19  C   UNL     1      -0.272  10.458  20.368  0.00  0.00    +0.000 C 
ATOM     20  O   UNL     1      -1.072  10.055  19.528  0.00  0.00    +0.000 OA
ATOM     21  N   UNL     1       0.959   9.877  20.642  0.00  0.00    +0.000 N 
ATOM     22  H   UNL     1       1.406  10.165  21.505  0.00  0.00    +0.000 HD
BRANCH  19  27
ATOM     23  C   UNL     1      -0.247  12.914  20.899  0.00  0.00    +0.000 A 
ATOM     24  O   UNL     1      -0.708  13.707  21.911  0.00  0.00    +0.000 OA
ATOM     25  C   UNL     1      -1.311  12.837  22.765  0.00  0.00    +0.000 A 
ATOM     26  N   UNL     1      -1.284  11.572  22.395  0.00  0.00    +0.000 NA
ATOM     27  C   UNL     1      -0.594  11.608  21.196  0.00  0.00    +0.000 A 
BRANCH  23  29
ATOM     28  C   UNL     1      -0.354  13.599  18.511  0.00  0.00    +0.000 C 
ATOM     29  C   UNL     1       0.484  13.561  19.780  0.00  0.00    +0.000 C 
ENDBRANCH  23  29
ENDBRANCH  19  27
ENDBRANCH   1  21
TORSDOF 6
ENDMDL
