MODEL 1
REMARK VINA RESULT:      -8.4      0.000      0.000
REMARK  Name = 
REMARK  6 active torsions:
REMARK  status: ('A' for Active; 'I' for Inactive)
REMARK    1  A    between atoms: C_1  and  C_2
REMARK    2  A    between atoms: C_4  and  C_5
REMARK    3  A    between atoms: C_7  and  C_8
REMARK    4  A    between atoms: C_10  and  N_11
REMARK    5  A    between atoms: C_12  and  C_14
REMARK    6  A    between atoms: C_18  and  C_19
REMARK                            x       y       z     vdW  Elec       q    Type
REMARK                         _______ _______ _______ _____ _____    ______ ____
ROOT
ATOM      1  C   UNL     1       7.307   7.074  17.766  0.00  0.00    +0.000 A 
ATOM      2  C   UNL     1       7.557   8.398  17.326  0.00  0.00    +0.000 A 
ATOM      3  C   UNL     1       8.507   8.918  18.172  0.00  0.00    +0.000 A 
ATOM      4  N   UNL     1       8.771   7.908  19.059  0.00  0.00    +0.000 N 
ATOM      5  N   UNL     1       8.046   6.796  18.853  0.00  0.00    +0.000 NA
ATOM      6  H   UNL     1       9.427   7.900  19.831  0.00  0.00    +0.000 HD
ENDROOT
BRANCH   1  13
ATOM      7  C   UNL     1       6.239   3.859  14.091  0.00  0.00    +0.000 C 
ATOM      8  C   UNL     1       5.854   4.538  15.371  0.00  0.00    +0.000 A 
ATOM      9  C   UNL     1       4.624   4.268  15.987  0.00  0.00    +0.000 A 
ATOM     10  C   UNL     1       4.266   4.906  17.180  0.00  0.00    +0.000 A 
ATOM     11  C   UNL     1       2.943   4.638  17.835  0.00  0.00    +0.000 C 
ATOM     12  C   UNL     1       5.159   5.818  17.757  0.00  0.00    +0.000 A 
ATOM     13  C   UNL     1       6.392   6.111  17.152  0.00  0.00    +0.000 A 
ATOM     14  C   UNL     1       6.730   5.464  15.959  0.00  0.00    +0.000 A 
ENDBRANCH   1  13
BRANCH   3  15
ATOM     15  N   UNL     1       9.101  10.178  18.146  0.00  0.00    +0.000 N 
ATOM     16  C   UNL     1       9.390  10.921  19.350  0.00  0.00    +0.000 C 
ATOM     17  O   UNL     1       9.168  10.431  20.443  0.00  0.00    +0.000 OA
ATOM     18  H   UNL     1       9.329  10.583  17.242  0.00  0.00    +0.000 HD
BRANCH  16  19
ATOM     19  C   UNL     1       9.936  12.285  19.230  0.00  0.00    +0.000 A 
ATOM     20  C   UNL     1      11.168  12.644  19.765  0.00  0.00    +0.000 A 
ATOM     21  F   UNL     1      11.899  11.749  20.447  0.00  0.00    +0.000 F 
ATOM     22  C   UNL     1      11.677  13.933  19.599  0.00  0.00    +0.000 A 
ATOM     23  C   UNL     1      10.942  14.886  18.883  0.00  0.00    +0.000 A 
ATOM     24  C   UNL     1       9.697  14.541  18.358  0.00  0.00    +0.000 A 
ATOM     25  C   UNL     1       9.205  13.252  18.537  0.00  0.00    +0.000 A 
ATOM     26  F   UNL     1       8.008  12.973  18.006  0.00  0.00    +0.000 F 
BRANCH  23  27
ATOM     27  C   UNL     1      11.464  16.202  18.676  0.00  0.00    +0.000 C 
ATOM     28  N   UNL     1      11.891  17.266  18.503  0.00  0.00    +0.000 NA
ENDBRANCH  23  27
ENDBRANCH  16  19
ENDBRANCH   3  15
TORSDOF 4
ENDMDL
MODEL 2
REMARK VINA RESULT:      -8.3      0.274      2.348
REMARK  Name = 
REMARK  6 active torsions:
REMARK  status: ('A' for Active; 'I' for Inactive)
REMARK    1  A    between atoms: C_1  and  C_2
REMARK    2  A    between atoms: C_4  and  C_5
REMARK    3  A    between atoms: C_7  and  C_8
REMARK    4  A    between atoms: C_10  and  N_11
REMARK    5  A    between atoms: C_12  and  C_14
REMARK    6  A    between atoms: C_18  and  C_19
REMARK                            x       y       z     vdW  Elec       q    Type
REMARK                         _______ _______ _______ _____ _____    ______ ____
ROOT
ATOM      1  C   UNL     1       7.325   6.942  17.758  0.00  0.00    +0.000 A 
ATOM      2  C   UNL     1       7.536   8.263  17.289  0.00  0.00    +0.000 A 
ATOM      3  C   UNL     1       8.454   8.836  18.137  0.00  0.00    +0.000 A 
ATOM      4  N   UNL     1       8.736   7.857  19.053  0.00  0.00    +0.000 N 
ATOM      5  N   UNL     1       8.054   6.716  18.862  0.00  0.00    +0.000 NA
ATOM      6  H   UNL     1       9.380   7.891  19.835  0.00  0.00    +0.000 HD
ENDROOT
BRANCH   1  13
ATOM      7  C   UNL     1       3.299   3.991  18.014  0.00  0.00    +0.000 C 
ATOM      8  C   UNL     1       4.495   4.489  17.259  0.00  0.00    +0.000 A 
ATOM      9  C   UNL     1       4.795   3.996  15.981  0.00  0.00    +0.000 A 
ATOM     10  C   UNL     1       5.912   4.460  15.280  0.00  0.00    +0.000 A 
ATOM     11  C   UNL     1       6.253   3.924  13.920  0.00  0.00    +0.000 C 
ATOM     12  C   UNL     1       6.730   5.433  15.871  0.00  0.00    +0.000 A 
ATOM     13  C   UNL     1       6.453   5.933  17.153  0.00  0.00    +0.000 A 
ATOM     14  C   UNL     1       5.332   5.454  17.838  0.00  0.00    +0.000 A 
ENDBRANCH   1  13
BRANCH   3  15
ATOM     15  N   UNL     1       9.004  10.115  18.089  0.00  0.00    +0.000 N 
ATOM     16  C   UNL     1       9.359  10.848  19.282  0.00  0.00    +0.000 C 
ATOM     17  O   UNL     1       9.235  10.334  20.379  0.00  0.00    +0.000 OA
ATOM     18  H   UNL     1       9.151  10.541  17.179  0.00  0.00    +0.000 HD
BRANCH  16  19
ATOM     19  C   UNL     1       9.852  12.231  19.146  0.00  0.00    +0.000 A 
ATOM     20  C   UNL     1       9.188  13.187  18.386  0.00  0.00    +0.000 A 
ATOM     21  F   UNL     1       8.072  12.866  17.714  0.00  0.00    +0.000 F 
ATOM     22  C   UNL     1       9.657  14.500  18.310  0.00  0.00    +0.000 A 
ATOM     23  C   UNL     1      10.814  14.868  19.008  0.00  0.00    +0.000 A 
ATOM     24  C   UNL     1      11.497  13.911  19.758  0.00  0.00    +0.000 A 
ATOM     25  C   UNL     1      11.016  12.607  19.818  0.00  0.00    +0.000 A 
ATOM     26  F   UNL     1      11.707  11.732  20.559  0.00  0.00    +0.000 F 
BRANCH  23  27
ATOM     27  C   UNL     1      11.290  16.216  18.966  0.00  0.00    +0.000 C 
ATOM     28  N   UNL     1      11.683  17.307  18.937  0.00  0.00    +0.000 NA
ENDBRANCH  23  27
ENDBRANCH  16  19
ENDBRANCH   3  15
TORSDOF 4
ENDMDL
MODEL 3
REMARK VINA RESULT:      -8.3      0.393      1.664
REMARK  Name = 
REMARK  6 active torsions:
REMARK  status: ('A' for Active; 'I' for Inactive)
REMARK    1  A    between atoms: C_1  and  C_2
REMARK    2  A    between atoms: C_4  and  C_5
REMARK    3  A    between atoms: C_7  and  C_8
REMARK    4  A    between atoms: C_10  and  N_11
REMARK    5  A    between atoms: C_12  and  C_14
REMARK    6  A    between atoms: C_18  and  C_19
REMARK                            x       y       z     vdW  Elec       q    Type
REMARK                         _______ _______ _______ _____ _____    ______ ____
ROOT
ATOM      1  C   UNL     1       7.323   6.852  17.779  0.00  0.00    +0.000 A 
ATOM      2  C   UNL     1       7.524   8.164  17.282  0.00  0.00    +0.000 A 
ATOM      3  C   UNL     1       8.428   8.766  18.122  0.00  0.00    +0.000 A 
ATOM      4  N   UNL     1       8.715   7.812  19.063  0.00  0.00    +0.000 N 
ATOM      5  N   UNL     1       8.047   6.660  18.894  0.00  0.00    +0.000 NA
ATOM      6  H   UNL     1       9.352   7.871  19.849  0.00  0.00    +0.000 HD
ENDROOT
BRANCH   1  13
ATOM      7  C   UNL     1       6.073   3.967  13.893  0.00  0.00    +0.000 C 
ATOM      8  C   UNL     1       5.844   4.404  15.310  0.00  0.00    +0.000 A 
ATOM      9  C   UNL     1       4.817   3.841  16.079  0.00  0.00    +0.000 A 
ATOM     10  C   UNL     1       4.604   4.252  17.399  0.00  0.00    +0.000 A 
ATOM     11  C   UNL     1       3.494   3.670  18.224  0.00  0.00    +0.000 C 
ATOM     12  C   UNL     1       5.439   5.235  17.947  0.00  0.00    +0.000 A 
ATOM     13  C   UNL     1       6.468   5.820  17.192  0.00  0.00    +0.000 A 
ATOM     14  C   UNL     1       6.662   5.395  15.873  0.00  0.00    +0.000 A 
ENDBRANCH   1  13
BRANCH   3  15
ATOM     15  N   UNL     1       8.965  10.050  18.049  0.00  0.00    +0.000 N 
ATOM     16  C   UNL     1       9.303  10.814  19.227  0.00  0.00    +0.000 C 
ATOM     17  O   UNL     1       9.176  10.324  20.335  0.00  0.00    +0.000 OA
ATOM     18  H   UNL     1       9.114  10.457  17.130  0.00  0.00    +0.000 HD
BRANCH  16  19
ATOM     19  C   UNL     1       9.781  12.199  19.063  0.00  0.00    +0.000 A 
ATOM     20  C   UNL     1       9.099  13.137  18.298  0.00  0.00    +0.000 A 
ATOM     21  F   UNL     1       7.976  12.796  17.646  0.00  0.00    +0.000 F 
ATOM     22  C   UNL     1       9.555  14.453  18.195  0.00  0.00    +0.000 A 
ATOM     23  C   UNL     1      10.718  14.842  18.871  0.00  0.00    +0.000 A 
ATOM     24  C   UNL     1      11.420  13.903  19.627  0.00  0.00    +0.000 A 
ATOM     25  C   UNL     1      10.951  12.596  19.714  0.00  0.00    +0.000 A 
ATOM     26  F   UNL     1      11.659  11.739  20.458  0.00  0.00    +0.000 F 
BRANCH  23  27
ATOM     27  C   UNL     1      11.181  16.193  18.802  0.00  0.00    +0.000 C 
ATOM     28  N   UNL     1      11.551  17.292  18.751  0.00  0.00    +0.000 NA
ENDBRANCH  23  27
ENDBRANCH  16  19
ENDBRANCH   3  15
TORSDOF 4
ENDMDL
MODEL 4
REMARK VINA RESULT:      -8.3      0.439      1.714
REMARK  Name = 
REMARK  6 active torsions:
REMARK  status: ('A' for Active; 'I' for Inactive)
REMARK    1  A    between atoms: C_1  and  C_2
REMARK    2  A    between atoms: C_4  and  C_5
REMARK    3  A    between atoms: C_7  and  C_8
REMARK    4  A    between atoms: C_10  and  N_11
REMARK    5  A    between atoms: C_12  and  C_14
REMARK    6  A    between atoms: C_18  and  C_19
REMARK                            x       y       z     vdW  Elec       q    Type
REMARK                         _______ _______ _______ _____ _____    ______ ____
ROOT
ATOM      1  C   UNL     1       7.316   6.804  17.755  0.00  0.00    +0.000 A 
ATOM      2  C   UNL     1       7.537   8.114  17.259  0.00  0.00    +0.000 A 
ATOM      3  C   UNL     1       8.434   8.709  18.113  0.00  0.00    +0.000 A 
ATOM      4  N   UNL     1       8.698   7.753  19.059  0.00  0.00    +0.000 N 
ATOM      5  N   UNL     1       8.021   6.607  18.881  0.00  0.00    +0.000 NA
ATOM      6  H   UNL     1       9.323   7.807  19.854  0.00  0.00    +0.000 HD
ENDROOT
BRANCH   1  13
ATOM      7  C   UNL     1       3.509   3.589  18.132  0.00  0.00    +0.000 C 
ATOM      8  C   UNL     1       4.607   4.208  17.319  0.00  0.00    +0.000 A 
ATOM      9  C   UNL     1       4.829   3.814  15.993  0.00  0.00    +0.000 A 
ATOM     10  C   UNL     1       5.856   4.391  15.238  0.00  0.00    +0.000 A 
ATOM     11  C   UNL     1       6.115   3.961  13.824  0.00  0.00    +0.000 C 
ATOM     12  C   UNL     1       6.659   5.377  15.825  0.00  0.00    +0.000 A 
ATOM     13  C   UNL     1       6.460   5.780  17.156  0.00  0.00    +0.000 A 
ATOM     14  C   UNL     1       5.429   5.188  17.894  0.00  0.00    +0.000 A 
ENDBRANCH   1  13
BRANCH   3  15
ATOM     15  N   UNL     1       8.984   9.988  18.047  0.00  0.00    +0.000 N 
ATOM     16  C   UNL     1       9.287  10.760  19.229  0.00  0.00    +0.000 C 
ATOM     17  O   UNL     1       9.119  10.281  20.336  0.00  0.00    +0.000 OA
ATOM     18  H   UNL     1       9.167  10.385  17.130  0.00  0.00    +0.000 HD
BRANCH  16  19
ATOM     19  C   UNL     1       9.783  12.139  19.069  0.00  0.00    +0.000 A 
ATOM     20  C   UNL     1      10.930  12.597  19.706  0.00  0.00    +0.000 A 
ATOM     21  F   UNL     1      11.619  11.790  20.528  0.00  0.00    +0.000 F 
ATOM     22  C   UNL     1      11.398  13.896  19.502  0.00  0.00    +0.000 A 
ATOM     23  C   UNL     1      10.707  14.759  18.643  0.00  0.00    +0.000 A 
ATOM     24  C   UNL     1       9.544  14.315  18.013  0.00  0.00    +0.000 A 
ATOM     25  C   UNL     1       9.092  13.017  18.232  0.00  0.00    +0.000 A 
ATOM     26  F   UNL     1       7.976  12.641  17.597  0.00  0.00    +0.000 F 
BRANCH  23  27
ATOM     27  C   UNL     1      11.189  16.083  18.398  0.00  0.00    +0.000 C 
ATOM     28  N   UNL     1      11.577  17.157  18.193  0.00  0.00    +0.000 NA
ENDBRANCH  23  27
ENDBRANCH  16  19
ENDBRANCH   3  15
TORSDOF 4
ENDMDL
MODEL 5
REMARK VINA RESULT:      -8.1      1.136      2.140
REMARK  Name = 
REMARK  6 active torsions:
REMARK  status: ('A' for Active; 'I' for Inactive)
REMARK    1  A    between atoms: C_1  and  C_2
REMARK    2  A    between atoms: C_4  and  C_5
REMARK    3  A    between atoms: C_7  and  C_8
REMARK    4  A    between atoms: C_10  and  N_11
REMARK    5  A    between atoms: C_12  and  C_14
REMARK    6  A    between atoms: C_18  and  C_19
REMARK                            x       y       z     vdW  Elec       q    Type
REMARK                         _______ _______ _______ _____ _____    ______ ____
ROOT
ATOM      1  C   UNL     1       7.350   6.920  17.822  0.00  0.00    +0.000 A 
ATOM      2  C   UNL     1       7.412   8.250  17.335  0.00  0.00    +0.000 A 
ATOM      3  C   UNL     1       8.316   8.914  18.127  0.00  0.00    +0.000 A 
ATOM      4  N   UNL     1       8.738   7.976  19.033  0.00  0.00    +0.000 N 
ATOM      5  N   UNL     1       8.156   6.775  18.886  0.00  0.00    +0.000 NA
ATOM      6  H   UNL     1       9.417   8.078  19.778  0.00  0.00    +0.000 HD
ENDROOT
BRANCH   1  13
ATOM      7  C   UNL     1       3.789   3.459  18.393  0.00  0.00    +0.000 C 
ATOM      8  C   UNL     1       4.812   4.136  17.530  0.00  0.00    +0.000 A 
ATOM      9  C   UNL     1       5.013   3.733  16.203  0.00  0.00    +0.000 A 
ATOM     10  C   UNL     1       5.970   4.364  15.401  0.00  0.00    +0.000 A 
ATOM     11  C   UNL     1       6.207   3.926  13.986  0.00  0.00    +0.000 C 
ATOM     12  C   UNL     1       6.724   5.414  15.942  0.00  0.00    +0.000 A 
ATOM     13  C   UNL     1       6.546   5.828  17.272  0.00  0.00    +0.000 A 
ATOM     14  C   UNL     1       5.585   5.181  18.057  0.00  0.00    +0.000 A 
ENDBRANCH   1  13
BRANCH   3  15
ATOM     15  N   UNL     1       8.742  10.238  18.042  0.00  0.00    +0.000 N 
ATOM     16  C   UNL     1       9.336  10.932  19.161  0.00  0.00    +0.000 C 
ATOM     17  O   UNL     1       9.535  10.348  20.211  0.00  0.00    +0.000 OA
ATOM     18  H   UNL     1       8.618  10.727  17.160  0.00  0.00    +0.000 HD
BRANCH  16  19
ATOM     19  C   UNL     1       9.675  12.359  19.013  0.00  0.00    +0.000 A 
ATOM     20  C   UNL     1       9.115  13.345  19.817  0.00  0.00    +0.000 A 
ATOM     21  F   UNL     1       8.207  13.025  20.751  0.00  0.00    +0.000 F 
ATOM     22  C   UNL     1       9.488  14.684  19.681  0.00  0.00    +0.000 A 
ATOM     23  C   UNL     1      10.441  15.048  18.721  0.00  0.00    +0.000 A 
ATOM     24  C   UNL     1      10.995  14.068  17.897  0.00  0.00    +0.000 A 
ATOM     25  C   UNL     1      10.608  12.740  18.046  0.00  0.00    +0.000 A 
ATOM     26  F   UNL     1      11.177  11.840  17.235  0.00  0.00    +0.000 F 
BRANCH  23  27
ATOM     27  C   UNL     1      10.857  16.409  18.590  0.00  0.00    +0.000 C 
ATOM     28  N   UNL     1      11.189  17.516  18.479  0.00  0.00    +0.000 NA
ENDBRANCH  23  27
ENDBRANCH  16  19
ENDBRANCH   3  15
TORSDOF 4
ENDMDL
MODEL 6
REMARK VINA RESULT:      -8.1      1.191      1.229
REMARK  Name = 
REMARK  6 active torsions:
REMARK  status: ('A' for Active; 'I' for Inactive)
REMARK    1  A    between atoms: C_1  and  C_2
REMARK    2  A    between atoms: C_4  and  C_5
REMARK    3  A    between atoms: C_7  and  C_8
REMARK    4  A    between atoms: C_10  and  N_11
REMARK    5  A    between atoms: C_12  and  C_14
REMARK    6  A    between atoms: C_18  and  C_19
REMARK                            x       y       z     vdW  Elec       q    Type
REMARK                         _______ _______ _______ _____ _____    ______ ____
ROOT
ATOM      1  C   UNL     1       7.350   6.937  17.831  0.00  0.00    +0.000 A 
ATOM      2  C   UNL     1       7.410   8.265  17.338  0.00  0.00    +0.000 A 
ATOM      3  C   UNL     1       8.319   8.933  18.122  0.00  0.00    +0.000 A 
ATOM      4  N   UNL     1       8.745   7.998  19.029  0.00  0.00    +0.000 N 
ATOM      5  N   UNL     1       8.162   6.797  18.891  0.00  0.00    +0.000 NA
ATOM      6  H   UNL     1       9.429   8.103  19.770  0.00  0.00    +0.000 HD
ENDROOT
BRANCH   1  13
ATOM      7  C   UNL     1       6.120   3.941  14.024  0.00  0.00    +0.000 C 
ATOM      8  C   UNL     1       5.930   4.372  15.448  0.00  0.00    +0.000 A 
ATOM      9  C   UNL     1       4.982   3.746  16.269  0.00  0.00    +0.000 A 
ATOM     10  C   UNL     1       4.804   4.152  17.596  0.00  0.00    +0.000 A 
ATOM     11  C   UNL     1       3.779   3.500  18.476  0.00  0.00    +0.000 C 
ATOM     12  C   UNL     1       5.594   5.195  18.098  0.00  0.00    +0.000 A 
ATOM     13  C   UNL     1       6.542   5.843  17.291  0.00  0.00    +0.000 A 
ATOM     14  C   UNL     1       6.702   5.423  15.966  0.00  0.00    +0.000 A 
ENDBRANCH   1  13
BRANCH   3  15
ATOM     15  N   UNL     1       8.744  10.256  18.029  0.00  0.00    +0.000 N 
ATOM     16  C   UNL     1       9.364  10.948  19.135  0.00  0.00    +0.000 C 
ATOM     17  O   UNL     1       9.585  10.363  20.180  0.00  0.00    +0.000 OA
ATOM     18  H   UNL     1       8.603  10.745  17.150  0.00  0.00    +0.000 HD
BRANCH  16  19
ATOM     19  C   UNL     1       9.702  12.375  18.980  0.00  0.00    +0.000 A 
ATOM     20  C   UNL     1      10.570  12.832  17.995  0.00  0.00    +0.000 A 
ATOM     21  F   UNL     1      11.161  11.968  17.156  0.00  0.00    +0.000 F 
ATOM     22  C   UNL     1      10.838  14.194  17.848  0.00  0.00    +0.000 A 
ATOM     23  C   UNL     1      10.228  15.122  18.702  0.00  0.00    +0.000 A 
ATOM     24  C   UNL     1       9.371  14.671  19.705  0.00  0.00    +0.000 A 
ATOM     25  C   UNL     1       9.119  13.309  19.838  0.00  0.00    +0.000 A 
ATOM     26  F   UNL     1       8.282  12.932  20.813  0.00  0.00    +0.000 F 
BRANCH  23  27
ATOM     27  C   UNL     1      10.468  16.522  18.544  0.00  0.00    +0.000 C 
ATOM     28  N   UNL     1      10.664  17.658  18.408  0.00  0.00    +0.000 NA
ENDBRANCH  23  27
ENDBRANCH  16  19
ENDBRANCH   3  15
TORSDOF 4
ENDMDL
MODEL 7
REMARK VINA RESULT:      -8.1      0.865      1.397
REMARK  Name = 
REMARK  6 active torsions:
REMARK  status: ('A' for Active; 'I' for Inactive)
REMARK    1  A    between atoms: C_1  and  C_2
REMARK    2  A    between atoms: C_4  and  C_5
REMARK    3  A    between atoms: C_7  and  C_8
REMARK    4  A    between atoms: C_10  and  N_11
REMARK    5  A    between atoms: C_12  and  C_14
REMARK    6  A    between atoms: C_18  and  C_19
REMARK                            x       y       z     vdW  Elec       q    Type
REMARK                         _______ _______ _______ _____ _____    ______ ____
ROOT
ATOM      1  C   UNL     1       7.309   7.152  17.784  0.00  0.00    +0.000 A 
ATOM      2  C   UNL     1       7.519   8.491  17.367  0.00  0.00    +0.000 A 
ATOM      3  C   UNL     1       8.485   9.011  18.194  0.00  0.00    +0.000 A 
ATOM      4  N   UNL     1       8.795   7.987  19.051  0.00  0.00    +0.000 N 
ATOM      5  N   UNL     1       8.086   6.866  18.841  0.00  0.00    +0.000 NA
ATOM      6  H   UNL     1       9.475   7.976  19.802  0.00  0.00    +0.000 HD
ENDROOT
BRANCH   1  13
ATOM      7  C   UNL     1       6.265   3.871  14.162  0.00  0.00    +0.000 C 
ATOM      8  C   UNL     1       5.867   4.580  15.422  0.00  0.00    +0.000 A 
ATOM      9  C   UNL     1       4.626   4.334  16.024  0.00  0.00    +0.000 A 
ATOM     10  C   UNL     1       4.256   5.000  17.198  0.00  0.00    +0.000 A 
ATOM     11  C   UNL     1       2.922   4.758  17.839  0.00  0.00    +0.000 C 
ATOM     12  C   UNL     1       5.149   5.916  17.769  0.00  0.00    +0.000 A 
ATOM     13  C   UNL     1       6.394   6.185  17.177  0.00  0.00    +0.000 A 
ATOM     14  C   UNL     1       6.743   5.510  16.003  0.00  0.00    +0.000 A 
ENDBRANCH   1  13
BRANCH   3  15
ATOM     15  N   UNL     1       9.053  10.283  18.179  0.00  0.00    +0.000 N 
ATOM     16  C   UNL     1       9.487  10.950  19.383  0.00  0.00    +0.000 C 
ATOM     17  O   UNL     1       9.417  10.383  20.459  0.00  0.00    +0.000 OA
ATOM     18  H   UNL     1       9.155  10.752  17.283  0.00  0.00    +0.000 HD
BRANCH  16  19
ATOM     19  C   UNL     1       9.995  12.331  19.288  0.00  0.00    +0.000 A 
ATOM     20  C   UNL     1       9.333  13.409  19.864  0.00  0.00    +0.000 A 
ATOM     21  F   UNL     1       8.172  13.226  20.513  0.00  0.00    +0.000 F 
ATOM     22  C   UNL     1       9.860  14.700  19.793  0.00  0.00    +0.000 A 
ATOM     23  C   UNL     1      11.075  14.921  19.131  0.00  0.00    +0.000 A 
ATOM     24  C   UNL     1      11.737  13.848  18.534  0.00  0.00    +0.000 A 
ATOM     25  C   UNL     1      11.193  12.570  18.613  0.00  0.00    +0.000 A 
ATOM     26  F   UNL     1      11.874  11.576  18.029  0.00  0.00    +0.000 F 
BRANCH  23  27
ATOM     27  C   UNL     1      11.644  16.231  19.076  0.00  0.00    +0.000 C 
ATOM     28  N   UNL     1      12.114  17.291  19.030  0.00  0.00    +0.000 NA
ENDBRANCH  23  27
ENDBRANCH  16  19
ENDBRANCH   3  15
TORSDOF 4
ENDMDL
MODEL 8
REMARK VINA RESULT:      -8.1      0.926      1.930
REMARK  Name = 
REMARK  6 active torsions:
REMARK  status: ('A' for Active; 'I' for Inactive)
REMARK    1  A    between atoms: C_1  and  C_2
REMARK    2  A    between atoms: C_4  and  C_5
REMARK    3  A    between atoms: C_7  and  C_8
REMARK    4  A    between atoms: C_10  and  N_11
REMARK    5  A    between atoms: C_12  and  C_14
REMARK    6  A    between atoms: C_18  and  C_19
REMARK                            x       y       z     vdW  Elec       q    Type
REMARK                         _______ _______ _______ _____ _____    ______ ____
ROOT
ATOM      1  C   UNL     1       7.290   7.064  17.779  0.00  0.00    +0.000 A 
ATOM      2  C   UNL     1       7.500   8.394  17.333  0.00  0.00    +0.000 A 
ATOM      3  C   UNL     1       8.448   8.940  18.163  0.00  0.00    +0.000 A 
ATOM      4  N   UNL     1       8.750   7.939  19.049  0.00  0.00    +0.000 N 
ATOM      5  N   UNL     1       8.052   6.808  18.855  0.00  0.00    +0.000 NA
ATOM      6  H   UNL     1       9.418   7.950  19.811  0.00  0.00    +0.000 HD
ENDROOT
BRANCH   1  13
ATOM      7  C   UNL     1       3.067   4.397  17.950  0.00  0.00    +0.000 C 
ATOM      8  C   UNL     1       4.337   4.769  17.245  0.00  0.00    +0.000 A 
ATOM      9  C   UNL     1       4.680   4.178  16.021  0.00  0.00    +0.000 A 
ATOM     10  C   UNL     1       5.867   4.525  15.367  0.00  0.00    +0.000 A 
ATOM     11  C   UNL     1       6.252   3.883  14.067  0.00  0.00    +0.000 C 
ATOM     12  C   UNL     1       6.711   5.479  15.951  0.00  0.00    +0.000 A 
ATOM     13  C   UNL     1       6.392   6.076  17.181  0.00  0.00    +0.000 A 
ATOM     14  C   UNL     1       5.201   5.714  17.819  0.00  0.00    +0.000 A 
ENDBRANCH   1  13
BRANCH   3  15
ATOM     15  N   UNL     1       9.009  10.215  18.126  0.00  0.00    +0.000 N 
ATOM     16  C   UNL     1       9.475  10.888  19.315  0.00  0.00    +0.000 C 
ATOM     17  O   UNL     1       9.441  10.325  20.395  0.00  0.00    +0.000 OA
ATOM     18  H   UNL     1       9.081  10.681  17.227  0.00  0.00    +0.000 HD
BRANCH  16  19
ATOM     19  C   UNL     1       9.972  12.271  19.200  0.00  0.00    +0.000 A 
ATOM     20  C   UNL     1      11.069  12.606  18.415  0.00  0.00    +0.000 A 
ATOM     21  F   UNL     1      11.743  11.656  17.748  0.00  0.00    +0.000 F 
ATOM     22  C   UNL     1      11.491  13.931  18.293  0.00  0.00    +0.000 A 
ATOM     23  C   UNL     1      10.803  14.947  18.968  0.00  0.00    +0.000 A 
ATOM     24  C   UNL     1       9.711  14.619  19.773  0.00  0.00    +0.000 A 
ATOM     25  C   UNL     1       9.309  13.292  19.885  0.00  0.00    +0.000 A 
ATOM     26  F   UNL     1       8.252  13.035  20.664  0.00  0.00    +0.000 F 
BRANCH  23  27
ATOM     27  C   UNL     1      11.201  16.313  18.829  0.00  0.00    +0.000 C 
ATOM     28  N   UNL     1      11.524  17.421  18.708  0.00  0.00    +0.000 NA
ENDBRANCH  23  27
ENDBRANCH  16  19
ENDBRANCH   3  15
TORSDOF 4
ENDMDL
MODEL 9
REMARK VINA RESULT:      -7.7      1.458      1.698
REMARK  Name = 
REMARK  6 active torsions:
REMARK  status: ('A' for Active; 'I' for Inactive)
REMARK    1  A    between atoms: C_1  and  C_2
REMARK    2  A    between atoms: C_4  and  C_5
REMARK    3  A    between atoms: C_7  and  C_8
REMARK    4  A    between atoms: C_10  and  N_11
REMARK    5  A    between atoms: C_12  and  C_14
REMARK    6  A    between atoms: C_18  and  C_19
REMARK                            x       y       z     vdW  Elec       q    Type
REMARK                         _______ _______ _______ _____ _____    ______ ____
ROOT
ATOM      1  C   UNL     1       7.556   7.313  17.956  0.00  0.00    +0.000 A 
ATOM      2  C   UNL     1       7.454   8.607  17.384  0.00  0.00    +0.000 A 
ATOM      3  C   UNL     1       8.343   9.405  18.062  0.00  0.00    +0.000 A 
ATOM      4  N   UNL     1       8.918   8.574  18.988  0.00  0.00    +0.000 N 
ATOM      5  N   UNL     1       8.446   7.317  18.962  0.00  0.00    +0.000 NA
ATOM      6  H   UNL     1       9.635   8.790  19.672  0.00  0.00    +0.000 HD
ENDROOT
BRANCH   1  13
ATOM      7  C   UNL     1       6.264   4.059  14.391  0.00  0.00    +0.000 C 
ATOM      8  C   UNL     1       6.184   4.519  15.816  0.00  0.00    +0.000 A 
ATOM      9  C   UNL     1       5.412   3.821  16.755  0.00  0.00    +0.000 A 
ATOM     10  C   UNL     1       5.338   4.255  18.083  0.00  0.00    +0.000 A 
ATOM     11  C   UNL     1       4.498   3.526  19.090  0.00  0.00    +0.000 C 
ATOM     12  C   UNL     1       6.052   5.397  18.466  0.00  0.00    +0.000 A 
ATOM     13  C   UNL     1       6.824   6.117  17.539  0.00  0.00    +0.000 A 
ATOM     14  C   UNL     1       6.883   5.667  16.216  0.00  0.00    +0.000 A 
ENDBRANCH   1  13
BRANCH   3  15
ATOM     15  N   UNL     1       8.632  10.753  17.862  0.00  0.00    +0.000 N 
ATOM     16  C   UNL     1       9.677  11.436  18.588  0.00  0.00    +0.000 C 
ATOM     17  O   UNL     1      10.385  10.823  19.368  0.00  0.00    +0.000 OA
ATOM     18  H   UNL     1       8.076  11.268  17.185  0.00  0.00    +0.000 HD
BRANCH  16  19
ATOM     19  C   UNL     1       9.856  12.884  18.382  0.00  0.00    +0.000 A 
ATOM     20  C   UNL     1       9.163  13.834  19.124  0.00  0.00    +0.000 A 
ATOM     21  F   UNL     1       8.268  13.452  20.049  0.00  0.00    +0.000 F 
ATOM     22  C   UNL     1       9.385  15.199  18.935  0.00  0.00    +0.000 A 
ATOM     23  C   UNL     1      10.320  15.628  17.985  0.00  0.00    +0.000 A 
ATOM     24  C   UNL     1      11.007  14.684  17.223  0.00  0.00    +0.000 A 
ATOM     25  C   UNL     1      10.769  13.328  17.423  0.00  0.00    +0.000 A 
ATOM     26  F   UNL     1      11.462  12.465  16.670  0.00  0.00    +0.000 F 
BRANCH  23  27
ATOM     27  C   UNL     1      10.582  17.021  17.801  0.00  0.00    +0.000 C 
ATOM     28  N   UNL     1      10.801  18.152  17.657  0.00  0.00    +0.000 NA
ENDBRANCH  23  27
ENDBRANCH  16  19
ENDBRANCH   3  15
TORSDOF 4
ENDMDL
