MODEL 1
REMARK VINA RESULT:      -7.9      0.000      0.000
REMARK  Name = 
REMARK  6 active torsions:
REMARK  status: ('A' for Active; 'I' for Inactive)
REMARK    1  A    between atoms: C_1  and  N_2
REMARK    2  A    between atoms: C_6  and  C_7
REMARK    3  A    between atoms: C_8  and  N_9
REMARK    4  A    between atoms: C_14  and  N_15
REMARK    5  A    between atoms: C_22  and  C_23
REMARK    6  A    between atoms: C_23  and  C_24
REMARK                            x       y       z     vdW  Elec       q    Type
REMARK                         _______ _______ _______ _____ _____    ______ ____
ROOT
ATOM      1  C   UNL     1       6.553   5.421  15.481  0.00  0.00    +0.000 A 
ATOM      2  C   UNL     1       7.314   5.135  14.317  0.00  0.00    +0.000 A 
ATOM      3  C   UNL     1       6.717   4.478  13.227  0.00  0.00    +0.000 A 
ATOM      4  C   UNL     1       5.436   3.959  13.332  0.00  0.00    +0.000 A 
ATOM      5  F   UNL     1       4.917   3.272  12.306  0.00  0.00    +0.000 F 
ATOM      6  C   UNL     1       4.702   4.121  14.490  0.00  0.00    +0.000 A 
ATOM      7  C   UNL     1       5.242   4.858  15.552  0.00  0.00    +0.000 A 
ENDROOT
BRANCH   7   8
ATOM      8  N   UNL     1       4.430   5.012  16.689  0.00  0.00    +0.000 N 
ATOM      9  C   UNL     1       4.292   3.963  17.679  0.00  0.00    +0.000 C 
ATOM     10  C   UNL     1       3.494   4.629  18.757  0.00  0.00    +0.000 A 
ATOM     11  C   UNL     1       3.290   5.970  18.427  0.00  0.00    +0.000 A 
ATOM     12  C   UNL     1       2.584   6.840  19.236  0.00  0.00    +0.000 A 
ATOM     13  C   UNL     1       2.065   6.332  20.427  0.00  0.00    +0.000 A 
ATOM     14  C   UNL     1       2.271   4.985  20.782  0.00  0.00    +0.000 A 
ATOM     15  C   UNL     1       2.998   4.109  19.951  0.00  0.00    +0.000 A 
ATOM     16  C   UNL     1       3.956   6.239  17.135  0.00  0.00    +0.000 C 
ATOM     17  O   UNL     1       4.079   7.347  16.646  0.00  0.00    +0.000 OA
BRANCH  15  18
ATOM     18  C   UNL     1       3.215   2.670  20.353  0.00  0.00    +0.000 C 
ATOM     19  C   UNL     1       2.523   2.340  21.666  0.00  0.00    +0.000 C 
ATOM     20  F   UNL     1       2.752   1.796  19.412  0.00  0.00    +0.000 F 
ATOM     21  F   UNL     1       4.540   2.368  20.496  0.00  0.00    +0.000 F 
ENDBRANCH  15  18
ENDBRANCH   7   8
BRANCH   1  27
ATOM     22  C   UNL     1       7.805   4.437  18.346  0.00  0.00    +0.000 C 
ATOM     23  N   UNL     1       7.570   5.766  17.849  0.00  0.00    +0.000 N 
ATOM     24  C   UNL     1       7.905   6.884  18.561  0.00  0.00    +0.000 A 
ATOM     25  N   UNL     1       7.723   7.948  17.825  0.00  0.00    +0.000 NA
ATOM     26  N   UNL     1       7.219   7.525  16.627  0.00  0.00    +0.000 NA
ATOM     27  C   UNL     1       7.089   6.203  16.628  0.00  0.00    +0.000 A 
ENDBRANCH   1  27
BRANCH   2  28
ATOM     28  N   UNL     1       8.653   5.555  14.151  0.00  0.00    +0.000 N 
ATOM     29  H   UNL     1       9.187   5.394  15.005  0.00  0.00    +0.000 HD
ATOM     30  H   UNL     1       9.119   5.117  13.360  0.00  0.00    +0.000 HD
ENDBRANCH   2  28
TORSDOF 4
ENDMDL
MODEL 2
REMARK VINA RESULT:      -7.5      2.165      2.991
REMARK  Name = 
REMARK  6 active torsions:
REMARK  status: ('A' for Active; 'I' for Inactive)
REMARK    1  A    between atoms: C_1  and  N_2
REMARK    2  A    between atoms: C_6  and  C_7
REMARK    3  A    between atoms: C_8  and  N_9
REMARK    4  A    between atoms: C_14  and  N_15
REMARK    5  A    between atoms: C_22  and  C_23
REMARK    6  A    between atoms: C_23  and  C_24
REMARK                            x       y       z     vdW  Elec       q    Type
REMARK                         _______ _______ _______ _____ _____    ______ ____
ROOT
ATOM      1  C   UNL     1       6.576   5.512  15.643  0.00  0.00    +0.000 A 
ATOM      2  C   UNL     1       7.264   5.187  14.444  0.00  0.00    +0.000 A 
ATOM      3  C   UNL     1       6.600   4.500  13.413  0.00  0.00    +0.000 A 
ATOM      4  C   UNL     1       5.326   3.991  13.611  0.00  0.00    +0.000 A 
ATOM      5  F   UNL     1       4.744   3.276  12.640  0.00  0.00    +0.000 F 
ATOM      6  C   UNL     1       4.664   4.192  14.806  0.00  0.00    +0.000 A 
ATOM      7  C   UNL     1       5.270   4.959  15.810  0.00  0.00    +0.000 A 
ENDROOT
BRANCH   7   8
ATOM      8  N   UNL     1       4.528   5.151  16.989  0.00  0.00    +0.000 N 
ATOM      9  C   UNL     1       3.781   6.367  17.234  0.00  0.00    +0.000 C 
ATOM     10  C   UNL     1       3.036   6.050  18.494  0.00  0.00    +0.000 A 
ATOM     11  C   UNL     1       3.284   4.727  18.862  0.00  0.00    +0.000 A 
ATOM     12  C   UNL     1       2.730   4.148  19.988  0.00  0.00    +0.000 A 
ATOM     13  C   UNL     1       1.891   4.942  20.772  0.00  0.00    +0.000 A 
ATOM     14  C   UNL     1       1.621   6.275  20.409  0.00  0.00    +0.000 A 
ATOM     15  C   UNL     1       2.187   6.852  19.255  0.00  0.00    +0.000 A 
ATOM     16  C   UNL     1       4.181   4.123  17.855  0.00  0.00    +0.000 C 
ATOM     17  O   UNL     1       4.470   2.940  17.817  0.00  0.00    +0.000 OA
BRANCH  15  18
ATOM     18  C   UNL     1       1.879   8.281  18.878  0.00  0.00    +0.000 C 
ATOM     19  C   UNL     1       1.177   9.023  20.004  0.00  0.00    +0.000 C 
ATOM     20  F   UNL     1       3.006   8.985  18.560  0.00  0.00    +0.000 F 
ATOM     21  F   UNL     1       1.085   8.363  17.770  0.00  0.00    +0.000 F 
ENDBRANCH  15  18
ENDBRANCH   7   8
BRANCH   1  27
ATOM     22  C   UNL     1       7.891   4.617  18.509  0.00  0.00    +0.000 C 
ATOM     23  N   UNL     1       7.690   5.929  17.955  0.00  0.00    +0.000 N 
ATOM     24  C   UNL     1       8.093   7.065  18.599  0.00  0.00    +0.000 A 
ATOM     25  N   UNL     1       7.926   8.099  17.818  0.00  0.00    +0.000 NA
ATOM     26  N   UNL     1       7.364   7.640  16.660  0.00  0.00    +0.000 NA
ATOM     27  C   UNL     1       7.182   6.326  16.731  0.00  0.00    +0.000 A 
ENDBRANCH   1  27
BRANCH   2  28
ATOM     28  N   UNL     1       8.591   5.596  14.185  0.00  0.00    +0.000 N 
ATOM     29  H   UNL     1       8.826   5.450  13.203  0.00  0.00    +0.000 HD
ATOM     30  H   UNL     1       8.776   6.561  14.449  0.00  0.00    +0.000 HD
ENDBRANCH   2  28
TORSDOF 4
ENDMDL
MODEL 3
REMARK VINA RESULT:      -7.5      3.736      5.830
REMARK  Name = 
REMARK  6 active torsions:
REMARK  status: ('A' for Active; 'I' for Inactive)
REMARK    1  A    between atoms: C_1  and  N_2
REMARK    2  A    between atoms: C_6  and  C_7
REMARK    3  A    between atoms: C_8  and  N_9
REMARK    4  A    between atoms: C_14  and  N_15
REMARK    5  A    between atoms: C_22  and  C_23
REMARK    6  A    between atoms: C_23  and  C_24
REMARK                            x       y       z     vdW  Elec       q    Type
REMARK                         _______ _______ _______ _____ _____    ______ ____
ROOT
ATOM      1  C   UNL     1       4.000   4.899  19.206  0.00  0.00    +0.000 A 
ATOM      2  C   UNL     1       5.151   4.089  19.010  0.00  0.00    +0.000 A 
ATOM      3  C   UNL     1       6.353   4.666  18.568  0.00  0.00    +0.000 A 
ATOM      4  C   UNL     1       6.393   5.991  18.163  0.00  0.00    +0.000 A 
ATOM      5  F   UNL     1       7.532   6.497  17.675  0.00  0.00    +0.000 F 
ATOM      6  C   UNL     1       5.265   6.784  18.235  0.00  0.00    +0.000 A 
ATOM      7  C   UNL     1       4.082   6.255  18.766  0.00  0.00    +0.000 A 
ENDROOT
BRANCH   7   8
ATOM      8  N   UNL     1       2.980   7.125  18.840  0.00  0.00    +0.000 N 
ATOM      9  C   UNL     1       2.372   7.486  20.105  0.00  0.00    +0.000 C 
ATOM     10  C   UNL     1       1.381   8.536  19.708  0.00  0.00    +0.000 A 
ATOM     11  C   UNL     1       1.501   8.799  18.343  0.00  0.00    +0.000 A 
ATOM     12  C   UNL     1       0.714   9.728  17.689  0.00  0.00    +0.000 A 
ATOM     13  C   UNL     1      -0.232  10.417  18.448  0.00  0.00    +0.000 A 
ATOM     14  C   UNL     1      -0.359  10.173  19.828  0.00  0.00    +0.000 A 
ATOM     15  C   UNL     1       0.454   9.227  20.486  0.00  0.00    +0.000 A 
ATOM     16  C   UNL     1       2.580   7.950  17.797  0.00  0.00    +0.000 C 
ATOM     17  O   UNL     1       3.022   8.046  16.666  0.00  0.00    +0.000 OA
BRANCH  15  18
ATOM     18  C   UNL     1       0.308   8.985  21.969  0.00  0.00    +0.000 C 
ATOM     19  C   UNL     1      -0.388  10.144  22.664  0.00  0.00    +0.000 C 
ATOM     20  F   UNL     1      -0.407   7.853  22.238  0.00  0.00    +0.000 F 
ATOM     21  F   UNL     1       1.514   8.797  22.583  0.00  0.00    +0.000 F 
ENDBRANCH  15  18
ENDBRANCH   7   8
BRANCH   1  27
ATOM     22  C   UNL     1       1.195   4.053  17.738  0.00  0.00    +0.000 C 
ATOM     23  N   UNL     1       1.537   4.069  19.134  0.00  0.00    +0.000 N 
ATOM     24  C   UNL     1       0.667   3.661  20.106  0.00  0.00    +0.000 A 
ATOM     25  N   UNL     1       1.275   3.637  21.262  0.00  0.00    +0.000 NA
ATOM     26  N   UNL     1       2.551   4.078  21.053  0.00  0.00    +0.000 NA
ATOM     27  C   UNL     1       2.727   4.376  19.771  0.00  0.00    +0.000 A 
ENDBRANCH   1  27
BRANCH   2  28
ATOM     28  N   UNL     1       5.182   2.711  19.321  0.00  0.00    +0.000 N 
ATOM     29  H   UNL     1       4.235   2.347  19.432  0.00  0.00    +0.000 HD
ATOM     30  H   UNL     1       5.692   2.154  18.638  0.00  0.00    +0.000 HD
ENDBRANCH   2  28
TORSDOF 4
ENDMDL
MODEL 4
REMARK VINA RESULT:      -7.3      0.798      1.272
REMARK  Name = 
REMARK  6 active torsions:
REMARK  status: ('A' for Active; 'I' for Inactive)
REMARK    1  A    between atoms: C_1  and  N_2
REMARK    2  A    between atoms: C_6  and  C_7
REMARK    3  A    between atoms: C_8  and  N_9
REMARK    4  A    between atoms: C_14  and  N_15
REMARK    5  A    between atoms: C_22  and  C_23
REMARK    6  A    between atoms: C_23  and  C_24
REMARK                            x       y       z     vdW  Elec       q    Type
REMARK                         _______ _______ _______ _____ _____    ______ ____
ROOT
ATOM      1  C   UNL     1       6.460   4.991  16.060  0.00  0.00    +0.000 A 
ATOM      2  C   UNL     1       7.232   4.689  14.907  0.00  0.00    +0.000 A 
ATOM      3  C   UNL     1       6.596   4.385  13.692  0.00  0.00    +0.000 A 
ATOM      4  C   UNL     1       5.222   4.215  13.638  0.00  0.00    +0.000 A 
ATOM      5  F   UNL     1       4.647   3.851  12.484  0.00  0.00    +0.000 F 
ATOM      6  C   UNL     1       4.445   4.392  14.765  0.00  0.00    +0.000 A 
ATOM      7  C   UNL     1       5.049   4.793  15.964  0.00  0.00    +0.000 A 
ENDROOT
BRANCH   7   8
ATOM      8  N   UNL     1       4.196   4.986  17.065  0.00  0.00    +0.000 N 
ATOM      9  C   UNL     1       3.917   3.927  18.013  0.00  0.00    +0.000 C 
ATOM     10  C   UNL     1       3.126   4.630  19.072  0.00  0.00    +0.000 A 
ATOM     11  C   UNL     1       3.056   5.992  18.775  0.00  0.00    +0.000 A 
ATOM     12  C   UNL     1       2.389   6.898  19.577  0.00  0.00    +0.000 A 
ATOM     13  C   UNL     1       1.767   6.405  20.725  0.00  0.00    +0.000 A 
ATOM     14  C   UNL     1       1.838   5.036  21.046  0.00  0.00    +0.000 A 
ATOM     15  C   UNL     1       2.528   4.122  20.224  0.00  0.00    +0.000 A 
ATOM     16  C   UNL     1       3.808   6.237  17.527  0.00  0.00    +0.000 C 
ATOM     17  O   UNL     1       4.051   7.343  17.080  0.00  0.00    +0.000 OA
BRANCH  15  18
ATOM     18  C   UNL     1       2.599   2.659  20.589  0.00  0.00    +0.000 C 
ATOM     19  C   UNL     1       1.805   2.353  21.849  0.00  0.00    +0.000 C 
ATOM     20  F   UNL     1       2.120   1.856  19.594  0.00  0.00    +0.000 F 
ATOM     21  F   UNL     1       3.883   2.241  20.797  0.00  0.00    +0.000 F 
ENDBRANCH  15  18
ENDBRANCH   7   8
BRANCH   1  27
ATOM     22  C   UNL     1       7.294   7.970  17.142  0.00  0.00    +0.000 C 
ATOM     23  N   UNL     1       7.450   6.684  17.767  0.00  0.00    +0.000 N 
ATOM     24  C   UNL     1       7.980   6.538  19.018  0.00  0.00    +0.000 A 
ATOM     25  N   UNL     1       7.872   5.293  19.401  0.00  0.00    +0.000 NA
ATOM     26  N   UNL     1       7.302   4.604  18.368  0.00  0.00    +0.000 NA
ATOM     27  C   UNL     1       7.063   5.423  17.350  0.00  0.00    +0.000 A 
ENDBRANCH   1  27
BRANCH   2  28
ATOM     28  N   UNL     1       8.643   4.758  14.888  0.00  0.00    +0.000 N 
ATOM     29  H   UNL     1       8.976   5.469  15.540  0.00  0.00    +0.000 HD
ATOM     30  H   UNL     1       9.094   3.867  15.083  0.00  0.00    +0.000 HD
ENDBRANCH   2  28
TORSDOF 4
ENDMDL
MODEL 5
REMARK VINA RESULT:      -7.3      2.076      2.958
REMARK  Name = 
REMARK  6 active torsions:
REMARK  status: ('A' for Active; 'I' for Inactive)
REMARK    1  A    between atoms: C_1  and  N_2
REMARK    2  A    between atoms: C_6  and  C_7
REMARK    3  A    between atoms: C_8  and  N_9
REMARK    4  A    between atoms: C_14  and  N_15
REMARK    5  A    between atoms: C_22  and  C_23
REMARK    6  A    between atoms: C_23  and  C_24
REMARK                            x       y       z     vdW  Elec       q    Type
REMARK                         _______ _______ _______ _____ _____    ______ ____
ROOT
ATOM      1  C   UNL     1       6.465   4.844  16.008  0.00  0.00    +0.000 A 
ATOM      2  C   UNL     1       7.162   4.798  14.771  0.00  0.00    +0.000 A 
ATOM      3  C   UNL     1       6.478   4.471  13.588  0.00  0.00    +0.000 A 
ATOM      4  C   UNL     1       5.164   4.034  13.631  0.00  0.00    +0.000 A 
ATOM      5  F   UNL     1       4.557   3.657  12.498  0.00  0.00    +0.000 F 
ATOM      6  C   UNL     1       4.484   3.960  14.830  0.00  0.00    +0.000 A 
ATOM      7  C   UNL     1       5.116   4.376  16.009  0.00  0.00    +0.000 A 
ENDROOT
BRANCH   7   8
ATOM      8  N   UNL     1       4.357   4.304  17.190  0.00  0.00    +0.000 N 
ATOM      9  C   UNL     1       3.729   5.475  17.769  0.00  0.00    +0.000 C 
ATOM     10  C   UNL     1       2.912   4.895  18.882  0.00  0.00    +0.000 A 
ATOM     11  C   UNL     1       3.010   3.503  18.857  0.00  0.00    +0.000 A 
ATOM     12  C   UNL     1       2.360   2.692  19.767  0.00  0.00    +0.000 A 
ATOM     13  C   UNL     1       1.579   3.316  20.742  0.00  0.00    +0.000 A 
ATOM     14  C   UNL     1       1.460   4.718  20.774  0.00  0.00    +0.000 A 
ATOM     15  C   UNL     1       2.123   5.535  19.836  0.00  0.00    +0.000 A 
ATOM     16  C   UNL     1       3.876   3.116  17.724  0.00  0.00    +0.000 C 
ATOM     17  O   UNL     1       4.044   1.969  17.351  0.00  0.00    +0.000 OA
BRANCH  15  18
ATOM     18  C   UNL     1       1.976   7.036  19.883  0.00  0.00    +0.000 C 
ATOM     19  C   UNL     1       1.083   7.481  21.029  0.00  0.00    +0.000 C 
ATOM     20  F   UNL     1       3.178   7.668  20.028  0.00  0.00    +0.000 F 
ATOM     21  F   UNL     1       1.448   7.540  18.727  0.00  0.00    +0.000 F 
ENDBRANCH  15  18
ENDBRANCH   7   8
BRANCH   1  27
ATOM     22  C   UNL     1       6.963   7.845  17.229  0.00  0.00    +0.000 C 
ATOM     23  N   UNL     1       7.341   6.561  17.754  0.00  0.00    +0.000 N 
ATOM     24  C   UNL     1       7.980   6.420  18.953  0.00  0.00    +0.000 A 
ATOM     25  N   UNL     1       8.073   5.153  19.259  0.00  0.00    +0.000 NA
ATOM     26  N   UNL     1       7.526   4.450  18.222  0.00  0.00    +0.000 NA
ATOM     27  C   UNL     1       7.100   5.283  17.280  0.00  0.00    +0.000 A 
ENDBRANCH   1  27
BRANCH   2  28
ATOM     28  N   UNL     1       8.524   5.151  14.643  0.00  0.00    +0.000 N 
ATOM     29  H   UNL     1       8.637   5.906  13.966  0.00  0.00    +0.000 HD
ATOM     30  H   UNL     1       8.961   5.406  15.526  0.00  0.00    +0.000 HD
ENDBRANCH   2  28
TORSDOF 4
ENDMDL
MODEL 6
REMARK VINA RESULT:      -7.0      3.826      5.881
REMARK  Name = 
REMARK  6 active torsions:
REMARK  status: ('A' for Active; 'I' for Inactive)
REMARK    1  A    between atoms: C_1  and  N_2
REMARK    2  A    between atoms: C_6  and  C_7
REMARK    3  A    between atoms: C_8  and  N_9
REMARK    4  A    between atoms: C_14  and  N_15
REMARK    5  A    between atoms: C_22  and  C_23
REMARK    6  A    between atoms: C_23  and  C_24
REMARK                            x       y       z     vdW  Elec       q    Type
REMARK                         _______ _______ _______ _____ _____    ______ ____
ROOT
ATOM      1  C   UNL     1       3.749   4.499  18.901  0.00  0.00    +0.000 A 
ATOM      2  C   UNL     1       4.870   3.633  18.795  0.00  0.00    +0.000 A 
ATOM      3  C   UNL     1       6.173   4.156  18.847  0.00  0.00    +0.000 A 
ATOM      4  C   UNL     1       6.384   5.526  18.838  0.00  0.00    +0.000 A 
ATOM      5  F   UNL     1       7.637   6.000  18.812  0.00  0.00    +0.000 F 
ATOM      6  C   UNL     1       5.319   6.403  18.831  0.00  0.00    +0.000 A 
ATOM      7  C   UNL     1       4.011   5.902  18.879  0.00  0.00    +0.000 A 
ENDROOT
BRANCH   7   8
ATOM      8  N   UNL     1       2.974   6.851  18.901  0.00  0.00    +0.000 N 
ATOM      9  C   UNL     1       2.334   7.258  20.136  0.00  0.00    +0.000 C 
ATOM     10  C   UNL     1       1.442   8.376  19.693  0.00  0.00    +0.000 A 
ATOM     11  C   UNL     1       1.646   8.627  18.335  0.00  0.00    +0.000 A 
ATOM     12  C   UNL     1       0.961   9.608  17.645  0.00  0.00    +0.000 A 
ATOM     13  C   UNL     1       0.032  10.367  18.359  0.00  0.00    +0.000 A 
ATOM     14  C   UNL     1      -0.178  10.135  19.731  0.00  0.00    +0.000 A 
ATOM     15  C   UNL     1       0.532   9.135  20.426  0.00  0.00    +0.000 A 
ATOM     16  C   UNL     1       2.686   7.700  17.841  0.00  0.00    +0.000 C 
ATOM     17  O   UNL     1       3.187   7.761  16.733  0.00  0.00    +0.000 OA
BRANCH  15  18
ATOM     18  C   UNL     1       0.298   8.908  21.900  0.00  0.00    +0.000 C 
ATOM     19  C   UNL     1      -0.363  10.108  22.558  0.00  0.00    +0.000 C 
ATOM     20  F   UNL     1      -0.495   7.821  22.134  0.00  0.00    +0.000 F 
ATOM     21  F   UNL     1       1.458   8.653  22.574  0.00  0.00    +0.000 F 
ENDBRANCH  15  18
ENDBRANCH   7   8
BRANCH   1  27
ATOM     22  C   UNL     1       1.877   3.663  21.459  0.00  0.00    +0.000 C 
ATOM     23  N   UNL     1       1.591   3.614  20.050  0.00  0.00    +0.000 N 
ATOM     24  C   UNL     1       0.379   3.211  19.563  0.00  0.00    +0.000 A 
ATOM     25  N   UNL     1       0.337   3.401  18.271  0.00  0.00    +0.000 NA
ATOM     26  N   UNL     1       1.555   3.895  17.899  0.00  0.00    +0.000 NA
ATOM     27  C   UNL     1       2.346   4.006  18.959  0.00  0.00    +0.000 A 
ENDBRANCH   1  27
BRANCH   2  28
ATOM     28  N   UNL     1       4.750   2.227  18.720  0.00  0.00    +0.000 N 
ATOM     29  H   UNL     1       4.712   1.922  17.747  0.00  0.00    +0.000 HD
ATOM     30  H   UNL     1       5.491   1.731  19.212  0.00  0.00    +0.000 HD
ENDBRANCH   2  28
TORSDOF 4
ENDMDL
MODEL 7
REMARK VINA RESULT:      -7.0      9.413     12.380
REMARK  Name = 
REMARK  6 active torsions:
REMARK  status: ('A' for Active; 'I' for Inactive)
REMARK    1  A    between atoms: C_1  and  N_2
REMARK    2  A    between atoms: C_6  and  C_7
REMARK    3  A    between atoms: C_8  and  N_9
REMARK    4  A    between atoms: C_14  and  N_15
REMARK    5  A    between atoms: C_22  and  C_23
REMARK    6  A    between atoms: C_23  and  C_24
REMARK                            x       y       z     vdW  Elec       q    Type
REMARK                         _______ _______ _______ _____ _____    ______ ____
ROOT
ATOM      1  C   UNL     1      -2.436  14.613  22.439  0.00  0.00    +0.000 A 
ATOM      2  C   UNL     1      -2.840  15.158  23.686  0.00  0.00    +0.000 A 
ATOM      3  C   UNL     1      -3.432  14.332  24.658  0.00  0.00    +0.000 A 
ATOM      4  C   UNL     1      -3.775  13.024  24.358  0.00  0.00    +0.000 A 
ATOM      5  F   UNL     1      -4.405  12.280  25.277  0.00  0.00    +0.000 F 
ATOM      6  C   UNL     1      -3.497  12.489  23.116  0.00  0.00    +0.000 A 
ATOM      7  C   UNL     1      -2.819  13.264  22.167  0.00  0.00    +0.000 A 
ENDROOT
BRANCH   7   8
ATOM      8  N   UNL     1      -2.539  12.648  20.934  0.00  0.00    +0.000 N 
ATOM      9  C   UNL     1      -1.366  11.821  20.740  0.00  0.00    +0.000 C 
ATOM     10  C   UNL     1      -1.579  11.260  19.368  0.00  0.00    +0.000 A 
ATOM     11  C   UNL     1      -2.821  11.673  18.884  0.00  0.00    +0.000 A 
ATOM     12  C   UNL     1      -3.296  11.309  17.638  0.00  0.00    +0.000 A 
ATOM     13  C   UNL     1      -2.479  10.495  16.852  0.00  0.00    +0.000 A 
ATOM     14  C   UNL     1      -1.229  10.059  17.330  0.00  0.00    +0.000 A 
ATOM     15  C   UNL     1      -0.758  10.432  18.605  0.00  0.00    +0.000 A 
ATOM     16  C   UNL     1      -3.474  12.502  19.918  0.00  0.00    +0.000 C 
ATOM     17  O   UNL     1      -4.625  12.896  19.855  0.00  0.00    +0.000 OA
BRANCH  15  18
ATOM     18  C   UNL     1       0.582   9.947  19.103  0.00  0.00    +0.000 C 
ATOM     19  C   UNL     1       1.355   9.213  18.020  0.00  0.00    +0.000 C 
ATOM     20  F   UNL     1       1.367  10.973  19.547  0.00  0.00    +0.000 F 
ATOM     21  F   UNL     1       0.462   9.104  20.171  0.00  0.00    +0.000 F 
ENDBRANCH  15  18
ENDBRANCH   7   8
BRANCH   1  27
ATOM     22  C   UNL     1       0.747  14.714  21.665  0.00  0.00    +0.000 C 
ATOM     23  N   UNL     1      -0.357  15.462  21.128  0.00  0.00    +0.000 N 
ATOM     24  C   UNL     1      -0.206  16.363  20.112  0.00  0.00    +0.000 A 
ATOM     25  N   UNL     1      -1.377  16.789  19.720  0.00  0.00    +0.000 NA
ATOM     26  N   UNL     1      -2.309  16.191  20.521  0.00  0.00    +0.000 NA
ATOM     27  C   UNL     1      -1.711  15.402  21.406  0.00  0.00    +0.000 A 
ENDBRANCH   1  27
BRANCH   2  28
ATOM     28  N   UNL     1      -2.603  16.502  24.051  0.00  0.00    +0.000 N 
ATOM     29  H   UNL     1      -2.503  16.586  25.062  0.00  0.00    +0.000 HD
ATOM     30  H   UNL     1      -1.796  16.911  23.585  0.00  0.00    +0.000 HD
ENDBRANCH   2  28
TORSDOF 4
ENDMDL
MODEL 8
REMARK VINA RESULT:      -6.8      9.516     12.559
REMARK  Name = 
REMARK  6 active torsions:
REMARK  status: ('A' for Active; 'I' for Inactive)
REMARK    1  A    between atoms: C_1  and  N_2
REMARK    2  A    between atoms: C_6  and  C_7
REMARK    3  A    between atoms: C_8  and  N_9
REMARK    4  A    between atoms: C_14  and  N_15
REMARK    5  A    between atoms: C_22  and  C_23
REMARK    6  A    between atoms: C_23  and  C_24
REMARK                            x       y       z     vdW  Elec       q    Type
REMARK                         _______ _______ _______ _____ _____    ______ ____
ROOT
ATOM      1  C   UNL     1      -2.409  14.629  22.463  0.00  0.00    +0.000 A 
ATOM      2  C   UNL     1      -2.798  15.174  23.715  0.00  0.00    +0.000 A 
ATOM      3  C   UNL     1      -3.381  14.350  24.693  0.00  0.00    +0.000 A 
ATOM      4  C   UNL     1      -3.731  13.043  24.396  0.00  0.00    +0.000 A 
ATOM      5  F   UNL     1      -4.353  12.300  25.321  0.00  0.00    +0.000 F 
ATOM      6  C   UNL     1      -3.469  12.508  23.151  0.00  0.00    +0.000 A 
ATOM      7  C   UNL     1      -2.799  13.282  22.194  0.00  0.00    +0.000 A 
ENDROOT
BRANCH   7   8
ATOM      8  N   UNL     1      -2.535  12.666  20.958  0.00  0.00    +0.000 N 
ATOM      9  C   UNL     1      -1.362  11.842  20.748  0.00  0.00    +0.000 C 
ATOM     10  C   UNL     1      -1.593  11.280  19.379  0.00  0.00    +0.000 A 
ATOM     11  C   UNL     1      -2.843  11.689  18.912  0.00  0.00    +0.000 A 
ATOM     12  C   UNL     1      -3.333  11.324  17.673  0.00  0.00    +0.000 A 
ATOM     13  C   UNL     1      -2.526  10.511  16.876  0.00  0.00    +0.000 A 
ATOM     14  C   UNL     1      -1.268  10.079  17.337  0.00  0.00    +0.000 A 
ATOM     15  C   UNL     1      -0.781  10.453  18.605  0.00  0.00    +0.000 A 
ATOM     16  C   UNL     1      -3.483  12.517  19.955  0.00  0.00    +0.000 C 
ATOM     17  O   UNL     1      -4.635  12.909  19.907  0.00  0.00    +0.000 OA
BRANCH  15  18
ATOM     18  C   UNL     1       0.568   9.972  19.085  0.00  0.00    +0.000 C 
ATOM     19  C   UNL     1       1.325   9.235  17.993  0.00  0.00    +0.000 C 
ATOM     20  F   UNL     1       1.358  11.000  19.513  0.00  0.00    +0.000 F 
ATOM     21  F   UNL     1       0.465   9.133  20.158  0.00  0.00    +0.000 F 
ENDBRANCH  15  18
ENDBRANCH   7   8
BRANCH   1  27
ATOM     22  C   UNL     1      -3.514  16.852  20.322  0.00  0.00    +0.000 C 
ATOM     23  N   UNL     1      -2.190  16.317  20.497  0.00  0.00    +0.000 N 
ATOM     24  C   UNL     1      -1.127  16.736  19.748  0.00  0.00    +0.000 A 
ATOM     25  N   UNL     1      -0.026  16.204  20.207  0.00  0.00    +0.000 NA
ATOM     26  N   UNL     1      -0.378  15.388  21.245  0.00  0.00    +0.000 NA
ATOM     27  C   UNL     1      -1.694  15.417  21.422  0.00  0.00    +0.000 A 
ENDBRANCH   1  27
BRANCH   2  28
ATOM     28  N   UNL     1      -2.553  16.518  24.078  0.00  0.00    +0.000 N 
ATOM     29  H   UNL     1      -2.066  16.564  24.973  0.00  0.00    +0.000 HD
ATOM     30  H   UNL     1      -2.038  17.039  23.372  0.00  0.00    +0.000 HD
ENDBRANCH   2  28
TORSDOF 4
ENDMDL
MODEL 9
REMARK VINA RESULT:      -6.7     10.073     12.983
REMARK  Name = 
REMARK  6 active torsions:
REMARK  status: ('A' for Active; 'I' for Inactive)
REMARK    1  A    between atoms: C_1  and  N_2
REMARK    2  A    between atoms: C_6  and  C_7
REMARK    3  A    between atoms: C_8  and  N_9
REMARK    4  A    between atoms: C_14  and  N_15
REMARK    5  A    between atoms: C_22  and  C_23
REMARK    6  A    between atoms: C_23  and  C_24
REMARK                            x       y       z     vdW  Elec       q    Type
REMARK                         _______ _______ _______ _____ _____    ______ ____
ROOT
ATOM      1  C   UNL     1      -4.712  14.294  20.741  0.00  0.00    +0.000 A 
ATOM      2  C   UNL     1      -5.341  15.562  20.628  0.00  0.00    +0.000 A 
ATOM      3  C   UNL     1      -4.564  16.731  20.565  0.00  0.00    +0.000 A 
ATOM      4  C   UNL     1      -3.195  16.681  20.774  0.00  0.00    +0.000 A 
ATOM      5  F   UNL     1      -2.488  17.818  20.783  0.00  0.00    +0.000 F 
ATOM      6  C   UNL     1      -2.560  15.476  20.996  0.00  0.00    +0.000 A 
ATOM      7  C   UNL     1      -3.302  14.288  20.964  0.00  0.00    +0.000 A 
ENDROOT
BRANCH   7   8
ATOM      8  N   UNL     1      -2.588  13.094  21.167  0.00  0.00    +0.000 N 
ATOM      9  C   UNL     1      -1.768  12.506  20.128  0.00  0.00    +0.000 C 
ATOM     10  C   UNL     1      -1.088  11.378  20.841  0.00  0.00    +0.000 A 
ATOM     11  C   UNL     1      -1.437  11.403  22.192  0.00  0.00    +0.000 A 
ATOM     12  C   UNL     1      -0.960  10.480  23.104  0.00  0.00    +0.000 A 
ATOM     13  C   UNL     1      -0.096   9.493  22.627  0.00  0.00    +0.000 A 
ATOM     14  C   UNL     1       0.275   9.461  21.270  0.00  0.00    +0.000 A 
ATOM     15  C   UNL     1      -0.212  10.411  20.350  0.00  0.00    +0.000 A 
ATOM     16  C   UNL     1      -2.340  12.550  22.420  0.00  0.00    +0.000 C 
ATOM     17  O   UNL     1      -2.707  12.924  23.519  0.00  0.00    +0.000 OA
BRANCH  15  18
ATOM     18  C   UNL     1       0.204  10.364  18.900  0.00  0.00    +0.000 C 
ATOM     19  C   UNL     1       1.262   9.302  18.651  0.00  0.00    +0.000 C 
ATOM     20  F   UNL     1      -0.848  10.101  18.070  0.00  0.00    +0.000 F 
ATOM     21  F   UNL     1       0.707  11.559  18.468  0.00  0.00    +0.000 F 
ENDBRANCH  15  18
ENDBRANCH   7   8
BRANCH   1  27
ATOM     22  C   UNL     1      -5.103  12.102  18.335  0.00  0.00    +0.000 C 
ATOM     23  N   UNL     1      -5.653  12.123  19.664  0.00  0.00    +0.000 N 
ATOM     24  C   UNL     1      -6.450  11.120  20.141  0.00  0.00    +0.000 A 
ATOM     25  N   UNL     1      -6.690  11.312  21.411  0.00  0.00    +0.000 NA
ATOM     26  N   UNL     1      -6.077  12.482  21.761  0.00  0.00    +0.000 NA
ATOM     27  C   UNL     1      -5.464  13.010  20.708  0.00  0.00    +0.000 A 
ENDBRANCH   1  27
BRANCH   2  28
ATOM     28  N   UNL     1      -6.739  15.717  20.490  0.00  0.00    +0.000 N 
ATOM     29  H   UNL     1      -7.233  14.982  20.996  0.00  0.00    +0.000 HD
ATOM     30  H   UNL     1      -7.075  16.631  20.786  0.00  0.00    +0.000 HD
ENDBRANCH   2  28
TORSDOF 4
ENDMDL
