MODEL 1
REMARK VINA RESULT:      -8.5      0.000      0.000
REMARK  Name = 
REMARK  7 active torsions:
REMARK  status: ('A' for Active; 'I' for Inactive)
REMARK    1  A    between atoms: C_1  and  C_2
REMARK    2  A    between atoms: C_4  and  C_5
REMARK    3  A    between atoms: N_7  and  C_8
REMARK    4  A    between atoms: C_8  and  C_9
REMARK    5  A    between atoms: C_12  and  C_13
REMARK    6  A    between atoms: C_13  and  N_14
REMARK    7  A    between atoms: N_22  and  C_23
REMARK                            x       y       z     vdW  Elec       q    Type
REMARK                         _______ _______ _______ _____ _____    ______ ____
ROOT
ATOM      1  C   UNL     1       1.359   8.423  20.563  0.00  0.00    +0.000 C 
ATOM      2  O   UNL     1       1.010   8.527  21.736  0.00  0.00    +0.000 OA
ATOM      3  N   UNL     1       1.123   9.407  19.617  0.00  0.00    +0.000 N 
ATOM      4  H   UNL     1       1.451   9.217  18.676  0.00  0.00    +0.000 HD
ENDROOT
BRANCH   1   8
ATOM      5  C   UNL     1       2.982   3.791  20.099  0.00  0.00    +0.000 C 
ATOM      6  C   UNL     1       2.644   5.203  19.789  0.00  0.00    +0.000 A 
ATOM      7  N   UNL     1       1.870   5.971  20.529  0.00  0.00    +0.000 NA
ATOM      8  C   UNL     1       2.056   7.237  20.002  0.00  0.00    +0.000 A 
ATOM      9  N   UNL     1       2.941   7.272  18.990  0.00  0.00    +0.000 NA
ATOM     10  N   UNL     1       3.210   5.960  18.772  0.00  0.00    +0.000 N 
BRANCH  10  11
ATOM     11  C   UNL     1       3.961   5.544  17.636  0.00  0.00    +0.000 A 
ATOM     12  C   UNL     1       4.093   4.175  17.350  0.00  0.00    +0.000 A 
ATOM     13  C   UNL     1       4.820   3.757  16.226  0.00  0.00    +0.000 A 
ATOM     14  C   UNL     1       5.446   4.699  15.412  0.00  0.00    +0.000 A 
ATOM     15 CL   UNL     1       6.354   4.188  14.044  0.00  0.00    +0.000 Cl
ATOM     16  C   UNL     1       5.353   6.055  15.709  0.00  0.00    +0.000 A 
ATOM     17  C   UNL     1       4.610   6.479  16.817  0.00  0.00    +0.000 A 
ENDBRANCH  10  11
ENDBRANCH   1   8
BRANCH   3  18
ATOM     18  C   UNL     1       0.381  10.612  19.891  0.00  0.00    +0.000 C 
BRANCH  18  19
ATOM     19  C   UNL     1      -0.835  10.773  19.011  0.00  0.00    +0.000 A 
ATOM     20  C   UNL     1      -0.993  10.011  17.847  0.00  0.00    +0.000 A 
ATOM     21  C   UNL     1      -2.149  10.138  17.063  0.00  0.00    +0.000 A 
ATOM     22  C   UNL     1      -3.161  11.042  17.418  0.00  0.00    +0.000 A 
ATOM     23  C   UNL     1      -2.998  11.806  18.583  0.00  0.00    +0.000 A 
ATOM     24  C   UNL     1      -1.847  11.677  19.365  0.00  0.00    +0.000 A 
BRANCH  22  25
ATOM     25  C   UNL     1      -4.397  11.193  16.563  0.00  0.00    +0.000 C 
BRANCH  25  26
ATOM     26  N   UNL     1      -5.552  11.641  17.329  0.00  0.00    +0.000 N 
ATOM     27  C   UNL     1      -6.215  12.831  17.188  0.00  0.00    +0.000 A 
ATOM     28  C   UNL     1      -7.267  12.792  18.070  0.00  0.00    +0.000 A 
ATOM     29  C   UNL     1      -7.180  11.524  18.672  0.00  0.00    +0.000 A 
ATOM     30  N   UNL     1      -6.151  10.808  18.210  0.00  0.00    +0.000 NA
ENDBRANCH  25  26
ENDBRANCH  22  25
ENDBRANCH  18  19
ENDBRANCH   3  18
TORSDOF 6
ENDMDL
MODEL 2
REMARK VINA RESULT:      -8.4      0.475      1.479
REMARK  Name = 
REMARK  7 active torsions:
REMARK  status: ('A' for Active; 'I' for Inactive)
REMARK    1  A    between atoms: C_1  and  C_2
REMARK    2  A    between atoms: C_4  and  C_5
REMARK    3  A    between atoms: N_7  and  C_8
REMARK    4  A    between atoms: C_8  and  C_9
REMARK    5  A    between atoms: C_12  and  C_13
REMARK    6  A    between atoms: C_13  and  N_14
REMARK    7  A    between atoms: N_22  and  C_23
REMARK                            x       y       z     vdW  Elec       q    Type
REMARK                         _______ _______ _______ _____ _____    ______ ____
ROOT
ATOM      1  C   UNL     1       1.013   8.392  20.698  0.00  0.00    +0.000 C 
ATOM      2  O   UNL     1       0.330   8.383  21.718  0.00  0.00    +0.000 OA
ATOM      3  N   UNL     1       1.139   9.505  19.884  0.00  0.00    +0.000 N 
ATOM      4  H   UNL     1       1.726   9.402  19.064  0.00  0.00    +0.000 HD
ENDROOT
BRANCH   1   8
ATOM      5  C   UNL     1       2.850   3.824  20.435  0.00  0.00    +0.000 C 
ATOM      6  C   UNL     1       2.457   5.207  20.067  0.00  0.00    +0.000 A 
ATOM      7  N   UNL     1       1.633   5.965  20.763  0.00  0.00    +0.000 NA
ATOM      8  C   UNL     1       1.775   7.219  20.195  0.00  0.00    +0.000 A 
ATOM      9  N   UNL     1       2.680   7.258  19.200  0.00  0.00    +0.000 NA
ATOM     10  N   UNL     1       3.012   5.953  19.036  0.00  0.00    +0.000 N 
BRANCH  10  11
ATOM     11  C   UNL     1       3.805   5.531  17.931  0.00  0.00    +0.000 A 
ATOM     12  C   UNL     1       4.568   6.473  17.221  0.00  0.00    +0.000 A 
ATOM     13  C   UNL     1       5.361   6.065  16.139  0.00  0.00    +0.000 A 
ATOM     14  C   UNL     1       5.363   4.729  15.742  0.00  0.00    +0.000 A 
ATOM     15 CL   UNL     1       6.320   4.229  14.403  0.00  0.00    +0.000 Cl
ATOM     16  C   UNL     1       4.581   3.796  16.415  0.00  0.00    +0.000 A 
ATOM     17  C   UNL     1       3.804   4.194  17.510  0.00  0.00    +0.000 A 
ENDBRANCH  10  11
ENDBRANCH   1   8
BRANCH   3  18
ATOM     18  C   UNL     1       0.424  10.737  20.106  0.00  0.00    +0.000 C 
BRANCH  18  19
ATOM     19  C   UNL     1      -0.792  10.885  19.223  0.00  0.00    +0.000 A 
ATOM     20  C   UNL     1      -1.790  11.822  19.515  0.00  0.00    +0.000 A 
ATOM     21  C   UNL     1      -2.892  11.981  18.662  0.00  0.00    +0.000 A 
ATOM     22  C   UNL     1      -3.026  11.192  17.510  0.00  0.00    +0.000 A 
ATOM     23  C   UNL     1      -2.027  10.251  17.222  0.00  0.00    +0.000 A 
ATOM     24  C   UNL     1      -0.928  10.096  18.072  0.00  0.00    +0.000 A 
BRANCH  22  25
ATOM     25  C   UNL     1      -4.222  11.349  16.602  0.00  0.00    +0.000 C 
BRANCH  25  26
ATOM     26  N   UNL     1      -5.459  11.561  17.342  0.00  0.00    +0.000 N 
ATOM     27  C   UNL     1      -5.955  10.774  18.347  0.00  0.00    +0.000 A 
ATOM     28  C   UNL     1      -7.102  11.390  18.786  0.00  0.00    +0.000 A 
ATOM     29  C   UNL     1      -7.198  12.559  18.011  0.00  0.00    +0.000 A 
ATOM     30  N   UNL     1      -6.189  12.682  17.145  0.00  0.00    +0.000 NA
ENDBRANCH  25  26
ENDBRANCH  22  25
ENDBRANCH  18  19
ENDBRANCH   3  18
TORSDOF 6
ENDMDL
MODEL 3
REMARK VINA RESULT:      -8.3      1.972      3.039
REMARK  Name = 
REMARK  7 active torsions:
REMARK  status: ('A' for Active; 'I' for Inactive)
REMARK    1  A    between atoms: C_1  and  C_2
REMARK    2  A    between atoms: C_4  and  C_5
REMARK    3  A    between atoms: N_7  and  C_8
REMARK    4  A    between atoms: C_8  and  C_9
REMARK    5  A    between atoms: C_12  and  C_13
REMARK    6  A    between atoms: C_13  and  N_14
REMARK    7  A    between atoms: N_22  and  C_23
REMARK                            x       y       z     vdW  Elec       q    Type
REMARK                         _______ _______ _______ _____ _____    ______ ____
ROOT
ATOM      1  C   UNL     1       1.907   5.584  20.237  0.00  0.00    +0.000 C 
ATOM      2  O   UNL     1       0.915   5.125  20.796  0.00  0.00    +0.000 OA
ATOM      3  N   UNL     1       2.345   6.884  20.427  0.00  0.00    +0.000 N 
ATOM      4  H   UNL     1       3.174   7.162  19.913  0.00  0.00    +0.000 HD
ENDROOT
BRANCH   1   8
ATOM      5  C   UNL     1       3.906   1.772  17.834  0.00  0.00    +0.000 C 
ATOM      6  C   UNL     1       3.507   3.155  18.197  0.00  0.00    +0.000 A 
ATOM      7  N   UNL     1       2.595   3.462  19.098  0.00  0.00    +0.000 NA
ATOM      8  C   UNL     1       2.752   4.825  19.279  0.00  0.00    +0.000 A 
ATOM      9  N   UNL     1       3.748   5.352  18.545  0.00  0.00    +0.000 NA
ATOM     10  N   UNL     1       4.136   4.313  17.764  0.00  0.00    +0.000 N 
BRANCH  10  11
ATOM     11  C   UNL     1       5.048   4.507  16.686  0.00  0.00    +0.000 A 
ATOM     12  C   UNL     1       4.626   4.277  15.366  0.00  0.00    +0.000 A 
ATOM     13  C   UNL     1       5.513   4.477  14.299  0.00  0.00    +0.000 A 
ATOM     14  C   UNL     1       6.827   4.866  14.549  0.00  0.00    +0.000 A 
ATOM     15 CL   UNL     1       7.923   5.094  13.243  0.00  0.00    +0.000 Cl
ATOM     16  C   UNL     1       7.265   5.059  15.856  0.00  0.00    +0.000 A 
ATOM     17  C   UNL     1       6.377   4.883  16.924  0.00  0.00    +0.000 A 
ENDBRANCH  10  11
ENDBRANCH   1   8
BRANCH   3  18
ATOM     18  C   UNL     1       1.642   7.850  21.236  0.00  0.00    +0.000 C 
BRANCH  18  19
ATOM     19  C   UNL     1       0.915   8.891  20.419  0.00  0.00    +0.000 A 
ATOM     20  C   UNL     1      -0.122   9.650  20.973  0.00  0.00    +0.000 A 
ATOM     21  C   UNL     1      -0.760  10.645  20.217  0.00  0.00    +0.000 A 
ATOM     22  C   UNL     1      -0.384  10.887  18.887  0.00  0.00    +0.000 A 
ATOM     23  C   UNL     1       0.654  10.123  18.335  0.00  0.00    +0.000 A 
ATOM     24  C   UNL     1       1.290   9.133  19.090  0.00  0.00    +0.000 A 
BRANCH  22  25
ATOM     25  C   UNL     1      -1.083  11.946  18.068  0.00  0.00    +0.000 C 
BRANCH  25  26
ATOM     26  N   UNL     1      -2.353  11.482  17.526  0.00  0.00    +0.000 N 
ATOM     27  C   UNL     1      -3.573  11.530  18.147  0.00  0.00    +0.000 A 
ATOM     28  C   UNL     1      -4.484  11.043  17.241  0.00  0.00    +0.000 A 
ATOM     29  C   UNL     1      -3.726  10.761  16.091  0.00  0.00    +0.000 A 
ATOM     30  N   UNL     1      -2.431  11.047  16.249  0.00  0.00    +0.000 NA
ENDBRANCH  25  26
ENDBRANCH  22  25
ENDBRANCH  18  19
ENDBRANCH   3  18
TORSDOF 6
ENDMDL
MODEL 4
REMARK VINA RESULT:      -8.3      1.984      2.991
REMARK  Name = 
REMARK  7 active torsions:
REMARK  status: ('A' for Active; 'I' for Inactive)
REMARK    1  A    between atoms: C_1  and  C_2
REMARK    2  A    between atoms: C_4  and  C_5
REMARK    3  A    between atoms: N_7  and  C_8
REMARK    4  A    between atoms: C_8  and  C_9
REMARK    5  A    between atoms: C_12  and  C_13
REMARK    6  A    between atoms: C_13  and  N_14
REMARK    7  A    between atoms: N_22  and  C_23
REMARK                            x       y       z     vdW  Elec       q    Type
REMARK                         _______ _______ _______ _____ _____    ______ ____
ROOT
ATOM      1  C   UNL     1       1.959   5.526  20.242  0.00  0.00    +0.000 C 
ATOM      2  O   UNL     1       0.996   5.057  20.841  0.00  0.00    +0.000 OA
ATOM      3  N   UNL     1       2.372   6.840  20.390  0.00  0.00    +0.000 N 
ATOM      4  H   UNL     1       3.178   7.126  19.846  0.00  0.00    +0.000 HD
ENDROOT
BRANCH   1   8
ATOM      5  C   UNL     1       3.924   1.711  17.817  0.00  0.00    +0.000 C 
ATOM      6  C   UNL     1       3.534   3.094  18.186  0.00  0.00    +0.000 A 
ATOM      7  N   UNL     1       2.630   3.403  19.094  0.00  0.00    +0.000 NA
ATOM      8  C   UNL     1       2.794   4.765  19.276  0.00  0.00    +0.000 A 
ATOM      9  N   UNL     1       3.787   5.290  18.536  0.00  0.00    +0.000 NA
ATOM     10  N   UNL     1       4.165   4.250  17.749  0.00  0.00    +0.000 N 
BRANCH  10  11
ATOM     11  C   UNL     1       5.068   4.442  16.665  0.00  0.00    +0.000 A 
ATOM     12  C   UNL     1       6.395   4.825  16.923  0.00  0.00    +0.000 A 
ATOM     13  C   UNL     1       7.294   5.004  15.862  0.00  0.00    +0.000 A 
ATOM     14  C   UNL     1       6.863   4.841  14.548  0.00  0.00    +0.000 A 
ATOM     15 CL   UNL     1       7.959   5.078  13.244  0.00  0.00    +0.000 Cl
ATOM     16  C   UNL     1       5.541   4.499  14.281  0.00  0.00    +0.000 A 
ATOM     17  C   UNL     1       4.644   4.298  15.337  0.00  0.00    +0.000 A 
ENDBRANCH  10  11
ENDBRANCH   1   8
BRANCH   3  18
ATOM     18  C   UNL     1       1.670   7.807  21.198  0.00  0.00    +0.000 C 
BRANCH  18  19
ATOM     19  C   UNL     1       0.984   8.876  20.382  0.00  0.00    +0.000 A 
ATOM     20  C   UNL     1       1.316   9.087  19.039  0.00  0.00    +0.000 A 
ATOM     21  C   UNL     1       0.640  10.053  18.279  0.00  0.00    +0.000 A 
ATOM     22  C   UNL     1      -0.370  10.839  18.854  0.00  0.00    +0.000 A 
ATOM     23  C   UNL     1      -0.699  10.627  20.201  0.00  0.00    +0.000 A 
ATOM     24  C   UNL     1      -0.025   9.663  20.956  0.00  0.00    +0.000 A 
BRANCH  22  25
ATOM     25  C   UNL     1      -1.085  11.892  18.042  0.00  0.00    +0.000 C 
BRANCH  25  26
ATOM     26  N   UNL     1      -2.339  11.406  17.481  0.00  0.00    +0.000 N 
ATOM     27  C   UNL     1      -3.595  11.613  17.987  0.00  0.00    +0.000 A 
ATOM     28  C   UNL     1      -4.466  11.028  17.100  0.00  0.00    +0.000 A 
ATOM     29  C   UNL     1      -3.647  10.526  16.074  0.00  0.00    +0.000 A 
ATOM     30  N   UNL     1      -2.352  10.772  16.287  0.00  0.00    +0.000 NA
ENDBRANCH  25  26
ENDBRANCH  22  25
ENDBRANCH  18  19
ENDBRANCH   3  18
TORSDOF 6
ENDMDL
MODEL 5
REMARK VINA RESULT:      -8.2      2.012      3.251
REMARK  Name = 
REMARK  7 active torsions:
REMARK  status: ('A' for Active; 'I' for Inactive)
REMARK    1  A    between atoms: C_1  and  C_2
REMARK    2  A    between atoms: C_4  and  C_5
REMARK    3  A    between atoms: N_7  and  C_8
REMARK    4  A    between atoms: C_8  and  C_9
REMARK    5  A    between atoms: C_12  and  C_13
REMARK    6  A    between atoms: C_13  and  N_14
REMARK    7  A    between atoms: N_22  and  C_23
REMARK                            x       y       z     vdW  Elec       q    Type
REMARK                         _______ _______ _______ _____ _____    ______ ____
ROOT
ATOM      1  C   UNL     1       2.828   5.831  19.815  0.00  0.00    +0.000 C 
ATOM      2  O   UNL     1       1.997   4.965  20.073  0.00  0.00    +0.000 OA
ATOM      3  N   UNL     1       2.707   7.143  20.241  0.00  0.00    +0.000 N 
ATOM      4  H   UNL     1       3.449   7.778  19.968  0.00  0.00    +0.000 HD
ENDROOT
BRANCH   1   8
ATOM      5  C   UNL     1       7.589   5.252  18.675  0.00  0.00    +0.000 C 
ATOM      6  C   UNL     1       6.109   5.250  18.579  0.00  0.00    +0.000 A 
ATOM      7  N   UNL     1       5.289   5.414  19.598  0.00  0.00    +0.000 NA
ATOM      8  C   UNL     1       4.052   5.598  19.005  0.00  0.00    +0.000 A 
ATOM      9  N   UNL     1       4.095   5.583  17.661  0.00  0.00    +0.000 NA
ATOM     10  N   UNL     1       5.379   5.230  17.399  0.00  0.00    +0.000 N 
BRANCH  10  11
ATOM     11  C   UNL     1       5.794   4.903  16.076  0.00  0.00    +0.000 A 
ATOM     12  C   UNL     1       6.964   5.476  15.551  0.00  0.00    +0.000 A 
ATOM     13  C   UNL     1       7.386   5.150  14.254  0.00  0.00    +0.000 A 
ATOM     14  C   UNL     1       6.624   4.287  13.470  0.00  0.00    +0.000 A 
ATOM     15 CL   UNL     1       7.129   3.900  11.871  0.00  0.00    +0.000 Cl
ATOM     16  C   UNL     1       5.443   3.744  13.968  0.00  0.00    +0.000 A 
ATOM     17  C   UNL     1       5.029   4.049  15.270  0.00  0.00    +0.000 A 
ENDBRANCH  10  11
ENDBRANCH   1   8
BRANCH   3  18
ATOM     18  C   UNL     1       1.562   7.642  20.961  0.00  0.00    +0.000 C 
BRANCH  18  19
ATOM     19  C   UNL     1       0.868   8.783  20.256  0.00  0.00    +0.000 A 
ATOM     20  C   UNL     1       1.046   9.003  18.886  0.00  0.00    +0.000 A 
ATOM     21  C   UNL     1       0.361  10.039  18.234  0.00  0.00    +0.000 A 
ATOM     22  C   UNL     1      -0.502  10.886  18.945  0.00  0.00    +0.000 A 
ATOM     23  C   UNL     1      -0.676  10.665  20.319  0.00  0.00    +0.000 A 
ATOM     24  C   UNL     1       0.006   9.630  20.966  0.00  0.00    +0.000 A 
BRANCH  22  25
ATOM     25  C   UNL     1      -1.225  12.013  18.247  0.00  0.00    +0.000 C 
BRANCH  25  26
ATOM     26  N   UNL     1      -2.477  11.581  17.641  0.00  0.00    +0.000 N 
ATOM     27  C   UNL     1      -3.712  11.569  18.234  0.00  0.00    +0.000 A 
ATOM     28  C   UNL     1      -4.596  11.145  17.272  0.00  0.00    +0.000 A 
ATOM     29  C   UNL     1      -3.808  10.959  16.121  0.00  0.00    +0.000 A 
ATOM     30  N   UNL     1      -2.521  11.244  16.332  0.00  0.00    +0.000 NA
ENDBRANCH  25  26
ENDBRANCH  22  25
ENDBRANCH  18  19
ENDBRANCH   3  18
TORSDOF 6
ENDMDL
MODEL 6
REMARK VINA RESULT:      -8.2      6.856      9.675
REMARK  Name = 
REMARK  7 active torsions:
REMARK  status: ('A' for Active; 'I' for Inactive)
REMARK    1  A    between atoms: C_1  and  C_2
REMARK    2  A    between atoms: C_4  and  C_5
REMARK    3  A    between atoms: N_7  and  C_8
REMARK    4  A    between atoms: C_8  and  C_9
REMARK    5  A    between atoms: C_12  and  C_13
REMARK    6  A    between atoms: C_13  and  N_14
REMARK    7  A    between atoms: N_22  and  C_23
REMARK                            x       y       z     vdW  Elec       q    Type
REMARK                         _______ _______ _______ _____ _____    ______ ____
ROOT
ATOM      1  C   UNL     1       8.103   7.761  18.179  0.00  0.00    +0.000 C 
ATOM      2  O   UNL     1       8.288   6.723  18.807  0.00  0.00    +0.000 OA
ATOM      3  N   UNL     1       7.435   7.800  16.966  0.00  0.00    +0.000 N 
ATOM      4  H   UNL     1       7.341   8.710  16.530  0.00  0.00    +0.000 HD
ENDROOT
BRANCH   1   8
ATOM      5  C   UNL     1       9.608  11.401  21.143  0.00  0.00    +0.000 C 
ATOM      6  C   UNL     1       9.325  10.605  19.923  0.00  0.00    +0.000 A 
ATOM      7  N   UNL     1       8.990   9.330  19.918  0.00  0.00    +0.000 NA
ATOM      8  C   UNL     1       8.580   9.099  18.617  0.00  0.00    +0.000 A 
ATOM      9  N   UNL     1       8.622  10.194  17.839  0.00  0.00    +0.000 NA
ATOM     10  N   UNL     1       9.220  11.115  18.637  0.00  0.00    +0.000 N 
BRANCH  10  11
ATOM     11  C   UNL     1       9.641  12.373  18.118  0.00  0.00    +0.000 A 
ATOM     12  C   UNL     1      10.852  12.466  17.413  0.00  0.00    +0.000 A 
ATOM     13  C   UNL     1      11.268  13.698  16.888  0.00  0.00    +0.000 A 
ATOM     14  C   UNL     1      10.498  14.840  17.099  0.00  0.00    +0.000 A 
ATOM     15 CL   UNL     1      11.015  16.357  16.473  0.00  0.00    +0.000 Cl
ATOM     16  C   UNL     1       9.316  14.765  17.829  0.00  0.00    +0.000 A 
ATOM     17  C   UNL     1       8.885  13.533  18.336  0.00  0.00    +0.000 A 
ENDBRANCH  10  11
ENDBRANCH   1   8
BRANCH   3  18
ATOM     18  C   UNL     1       6.958   6.623  16.284  0.00  0.00    +0.000 C 
BRANCH  18  19
ATOM     19  C   UNL     1       5.625   6.136  16.800  0.00  0.00    +0.000 A 
ATOM     20  C   UNL     1       4.657   7.034  17.265  0.00  0.00    +0.000 A 
ATOM     21  C   UNL     1       3.406   6.572  17.701  0.00  0.00    +0.000 A 
ATOM     22  C   UNL     1       3.106   5.202  17.696  0.00  0.00    +0.000 A 
ATOM     23  C   UNL     1       4.079   4.304  17.232  0.00  0.00    +0.000 A 
ATOM     24  C   UNL     1       5.325   4.766  16.797  0.00  0.00    +0.000 A 
BRANCH  22  25
ATOM     25  C   UNL     1       1.766   4.703  18.182  0.00  0.00    +0.000 C 
BRANCH  25  26
ATOM     26  N   UNL     1       1.851   4.063  19.488  0.00  0.00    +0.000 N 
ATOM     27  C   UNL     1       1.691   2.730  19.757  0.00  0.00    +0.000 A 
ATOM     28  C   UNL     1       1.917   2.580  21.104  0.00  0.00    +0.000 A 
ATOM     29  C   UNL     1       2.243   3.871  21.556  0.00  0.00    +0.000 A 
ATOM     30  N   UNL     1       2.227   4.776  20.574  0.00  0.00    +0.000 NA
ENDBRANCH  25  26
ENDBRANCH  22  25
ENDBRANCH  18  19
ENDBRANCH   3  18
TORSDOF 6
ENDMDL
MODEL 7
REMARK VINA RESULT:      -8.1      1.873      3.071
REMARK  Name = 
REMARK  7 active torsions:
REMARK  status: ('A' for Active; 'I' for Inactive)
REMARK    1  A    between atoms: C_1  and  C_2
REMARK    2  A    between atoms: C_4  and  C_5
REMARK    3  A    between atoms: N_7  and  C_8
REMARK    4  A    between atoms: C_8  and  C_9
REMARK    5  A    between atoms: C_12  and  C_13
REMARK    6  A    between atoms: C_13  and  N_14
REMARK    7  A    between atoms: N_22  and  C_23
REMARK                            x       y       z     vdW  Elec       q    Type
REMARK                         _______ _______ _______ _____ _____    ______ ____
ROOT
ATOM      1  C   UNL     1       2.391   5.521  20.525  0.00  0.00    +0.000 C 
ATOM      2  O   UNL     1       1.973   5.010  21.559  0.00  0.00    +0.000 OA
ATOM      3  N   UNL     1       2.266   6.872  20.248  0.00  0.00    +0.000 N 
ATOM      4  H   UNL     1       2.643   7.190  19.361  0.00  0.00    +0.000 HD
ENDROOT
BRANCH   1   8
ATOM      5  C   UNL     1       3.686   1.773  17.596  0.00  0.00    +0.000 C 
ATOM      6  C   UNL     1       3.511   3.145  18.131  0.00  0.00    +0.000 A 
ATOM      7  N   UNL     1       2.703   3.469  19.122  0.00  0.00    +0.000 NA
ATOM      8  C   UNL     1       3.064   4.768  19.434  0.00  0.00    +0.000 A 
ATOM      9  N   UNL     1       4.083   5.235  18.691  0.00  0.00    +0.000 NA
ATOM     10  N   UNL     1       4.274   4.249  17.778  0.00  0.00    +0.000 N 
BRANCH  10  11
ATOM     11  C   UNL     1       5.143   4.439  16.665  0.00  0.00    +0.000 A 
ATOM     12  C   UNL     1       6.476   4.823  16.879  0.00  0.00    +0.000 A 
ATOM     13  C   UNL     1       7.341   4.999  15.790  0.00  0.00    +0.000 A 
ATOM     14  C   UNL     1       6.868   4.833  14.491  0.00  0.00    +0.000 A 
ATOM     15 CL   UNL     1       7.922   5.068  13.151  0.00  0.00    +0.000 Cl
ATOM     16  C   UNL     1       5.538   4.490  14.267  0.00  0.00    +0.000 A 
ATOM     17  C   UNL     1       4.676   4.291  15.352  0.00  0.00    +0.000 A 
ENDBRANCH  10  11
ENDBRANCH   1   8
BRANCH   3  18
ATOM     18  C   UNL     1       1.568   7.798  21.105  0.00  0.00    +0.000 C 
BRANCH  18  19
ATOM     19  C   UNL     1       0.845   8.883  20.343  0.00  0.00    +0.000 A 
ATOM     20  C   UNL     1      -0.095   9.707  20.973  0.00  0.00    +0.000 A 
ATOM     21  C   UNL     1      -0.727  10.740  20.265  0.00  0.00    +0.000 A 
ATOM     22  C   UNL     1      -0.443  10.957  18.909  0.00  0.00    +0.000 A 
ATOM     23  C   UNL     1       0.498  10.129  18.279  0.00  0.00    +0.000 A 
ATOM     24  C   UNL     1       1.128   9.101  18.987  0.00  0.00    +0.000 A 
BRANCH  22  25
ATOM     25  C   UNL     1      -1.136  12.058  18.141  0.00  0.00    +0.000 C 
BRANCH  25  26
ATOM     26  N   UNL     1      -2.381  11.611  17.530  0.00  0.00    +0.000 N 
ATOM     27  C   UNL     1      -2.524  11.030  16.298  0.00  0.00    +0.000 A 
ATOM     28  C   UNL     1      -3.857  10.723  16.171  0.00  0.00    +0.000 A 
ATOM     29  C   UNL     1      -4.432  11.122  17.390  0.00  0.00    +0.000 A 
ATOM     30  N   UNL     1      -3.536  11.643  18.232  0.00  0.00    +0.000 NA
ENDBRANCH  25  26
ENDBRANCH  22  25
ENDBRANCH  18  19
ENDBRANCH   3  18
TORSDOF 6
ENDMDL
MODEL 8
REMARK VINA RESULT:      -8.1      6.852      9.663
REMARK  Name = 
REMARK  7 active torsions:
REMARK  status: ('A' for Active; 'I' for Inactive)
REMARK    1  A    between atoms: C_1  and  C_2
REMARK    2  A    between atoms: C_4  and  C_5
REMARK    3  A    between atoms: N_7  and  C_8
REMARK    4  A    between atoms: C_8  and  C_9
REMARK    5  A    between atoms: C_12  and  C_13
REMARK    6  A    between atoms: C_13  and  N_14
REMARK    7  A    between atoms: N_22  and  C_23
REMARK                            x       y       z     vdW  Elec       q    Type
REMARK                         _______ _______ _______ _____ _____    ______ ____
ROOT
ATOM      1  C   UNL     1       8.152   7.855  18.209  0.00  0.00    +0.000 C 
ATOM      2  O   UNL     1       8.331   6.819  18.842  0.00  0.00    +0.000 OA
ATOM      3  N   UNL     1       7.500   7.889  16.987  0.00  0.00    +0.000 N 
ATOM      4  H   UNL     1       7.410   8.799  16.547  0.00  0.00    +0.000 HD
ENDROOT
BRANCH   1   8
ATOM      5  C   UNL     1       9.585  11.512  21.187  0.00  0.00    +0.000 C 
ATOM      6  C   UNL     1       9.333  10.709  19.966  0.00  0.00    +0.000 A 
ATOM      7  N   UNL     1       8.996   9.434  19.960  0.00  0.00    +0.000 NA
ATOM      8  C   UNL     1       8.619   9.195  18.651  0.00  0.00    +0.000 A 
ATOM      9  N   UNL     1       8.683  10.285  17.866  0.00  0.00    +0.000 NA
ATOM     10  N   UNL     1       9.262  11.210  18.674  0.00  0.00    +0.000 N 
BRANCH  10  11
ATOM     11  C   UNL     1       9.698  12.464  18.157  0.00  0.00    +0.000 A 
ATOM     12  C   UNL     1       8.951  13.624  18.421  0.00  0.00    +0.000 A 
ATOM     13  C   UNL     1       9.379  14.864  17.927  0.00  0.00    +0.000 A 
ATOM     14  C   UNL     1      10.526  14.942  17.140  0.00  0.00    +0.000 A 
ATOM     15 CL   UNL     1      11.044  16.459  16.516  0.00  0.00    +0.000 Cl
ATOM     16  C   UNL     1      11.252  13.793  16.842  0.00  0.00    +0.000 A 
ATOM     17  C   UNL     1      10.841  12.555  17.351  0.00  0.00    +0.000 A 
ENDBRANCH  10  11
ENDBRANCH   1   8
BRANCH   3  18
ATOM     18  C   UNL     1       7.035   6.709  16.301  0.00  0.00    +0.000 C 
BRANCH  18  19
ATOM     19  C   UNL     1       5.682   6.240  16.777  0.00  0.00    +0.000 A 
ATOM     20  C   UNL     1       5.311   4.893  16.692  0.00  0.00    +0.000 A 
ATOM     21  C   UNL     1       4.068   4.462  17.179  0.00  0.00    +0.000 A 
ATOM     22  C   UNL     1       3.165   5.374  17.745  0.00  0.00    +0.000 A 
ATOM     23  C   UNL     1       3.538   6.724  17.827  0.00  0.00    +0.000 A 
ATOM     24  C   UNL     1       4.778   7.151  17.342  0.00  0.00    +0.000 A 
BRANCH  22  25
ATOM     25  C   UNL     1       1.819   4.914  18.253  0.00  0.00    +0.000 C 
BRANCH  25  26
ATOM     26  N   UNL     1       1.923   4.143  19.485  0.00  0.00    +0.000 N 
ATOM     27  C   UNL     1       2.105   4.641  20.748  0.00  0.00    +0.000 A 
ATOM     28  C   UNL     1       2.081   3.559  21.594  0.00  0.00    +0.000 A 
ATOM     29  C   UNL     1       1.843   2.456  20.755  0.00  0.00    +0.000 A 
ATOM     30  N   UNL     1       1.724   2.806  19.472  0.00  0.00    +0.000 NA
ENDBRANCH  25  26
ENDBRANCH  22  25
ENDBRANCH  18  19
ENDBRANCH   3  18
TORSDOF 6
ENDMDL
MODEL 9
REMARK VINA RESULT:      -8.1      6.810      9.873
REMARK  Name = 
REMARK  7 active torsions:
REMARK  status: ('A' for Active; 'I' for Inactive)
REMARK    1  A    between atoms: C_1  and  C_2
REMARK    2  A    between atoms: C_4  and  C_5
REMARK    3  A    between atoms: N_7  and  C_8
REMARK    4  A    between atoms: C_8  and  C_9
REMARK    5  A    between atoms: C_12  and  C_13
REMARK    6  A    between atoms: C_13  and  N_14
REMARK    7  A    between atoms: N_22  and  C_23
REMARK                            x       y       z     vdW  Elec       q    Type
REMARK                         _______ _______ _______ _____ _____    ______ ____
ROOT
ATOM      1  C   UNL     1       8.276   8.357  17.907  0.00  0.00    +0.000 C 
ATOM      2  O   UNL     1       7.866   8.205  16.760  0.00  0.00    +0.000 OA
ATOM      3  N   UNL     1       8.375   7.316  18.817  0.00  0.00    +0.000 N 
ATOM      4  H   UNL     1       8.724   7.553  19.739  0.00  0.00    +0.000 HD
ENDROOT
BRANCH   1   8
ATOM      5  C   UNL     1       9.773  11.713  21.193  0.00  0.00    +0.000 C 
ATOM      6  C   UNL     1       9.448  11.051  19.906  0.00  0.00    +0.000 A 
ATOM      7  N   UNL     1       9.194   9.765  19.765  0.00  0.00    +0.000 NA
ATOM      8  C   UNL     1       8.701   9.663  18.476  0.00  0.00    +0.000 A 
ATOM      9  N   UNL     1       8.613  10.844  17.840  0.00  0.00    +0.000 NA
ATOM     10  N   UNL     1       9.212  11.703  18.704  0.00  0.00    +0.000 N 
BRANCH  10  11
ATOM     11  C   UNL     1       9.511  13.041  18.318  0.00  0.00    +0.000 A 
ATOM     12  C   UNL     1       8.574  14.060  18.554  0.00  0.00    +0.000 A 
ATOM     13  C   UNL     1       8.865  15.382  18.189  0.00  0.00    +0.000 A 
ATOM     14  C   UNL     1      10.069  15.681  17.555  0.00  0.00    +0.000 A 
ATOM     15 CL   UNL     1      10.421  17.298  17.089  0.00  0.00    +0.000 Cl
ATOM     16  C   UNL     1      10.988  14.671  17.283  0.00  0.00    +0.000 A 
ATOM     17  C   UNL     1      10.711  13.353  17.665  0.00  0.00    +0.000 A 
ENDBRANCH  10  11
ENDBRANCH   1   8
BRANCH   3  18
ATOM     18  C   UNL     1       7.937   5.972  18.537  0.00  0.00    +0.000 C 
BRANCH  18  19
ATOM     19  C   UNL     1       6.435   5.842  18.454  0.00  0.00    +0.000 A 
ATOM     20  C   UNL     1       5.698   5.275  19.500  0.00  0.00    +0.000 A 
ATOM     21  C   UNL     1       4.299   5.202  19.429  0.00  0.00    +0.000 A 
ATOM     22  C   UNL     1       3.612   5.678  18.303  0.00  0.00    +0.000 A 
ATOM     23  C   UNL     1       4.353   6.242  17.255  0.00  0.00    +0.000 A 
ATOM     24  C   UNL     1       5.747   6.317  17.327  0.00  0.00    +0.000 A 
BRANCH  22  25
ATOM     25  C   UNL     1       2.107   5.581  18.219  0.00  0.00    +0.000 C 
BRANCH  25  26
ATOM     26  N   UNL     1       1.602   4.309  18.718  0.00  0.00    +0.000 N 
ATOM     27  C   UNL     1       1.678   3.096  18.088  0.00  0.00    +0.000 A 
ATOM     28  C   UNL     1       1.130   2.179  18.953  0.00  0.00    +0.000 A 
ATOM     29  C   UNL     1       0.786   2.927  20.092  0.00  0.00    +0.000 A 
ATOM     30  N   UNL     1       1.090   4.221  19.966  0.00  0.00    +0.000 NA
ENDBRANCH  25  26
ENDBRANCH  22  25
ENDBRANCH  18  19
ENDBRANCH   3  18
TORSDOF 6
ENDMDL
