MODEL 1
REMARK VINA RESULT:      -9.0      0.000      0.000
REMARK  Name = 
REMARK  6 active torsions:
REMARK  status: ('A' for Active; 'I' for Inactive)
REMARK    1  A    between atoms: C_1  and  N_2
REMARK    2  A    between atoms: C_6  and  C_7
REMARK    3  A    between atoms: C_11  and  N_12
REMARK    4  A    between atoms: C_13  and  C_15
REMARK    5  A    between atoms: N_20  and  C_21
REMARK    6  A    between atoms: C_21  and  C_22
REMARK                            x       y       z     vdW  Elec       q    Type
REMARK                         _______ _______ _______ _____ _____    ______ ____
ROOT
ATOM      1  N   UNL     1       1.296   8.887  18.711  0.00  0.00    +0.000 N 
ATOM      2  C   UNL     1       1.623   8.231  19.883  0.00  0.00    +0.000 C 
ATOM      3  O   UNL     1       1.481   8.626  21.032  0.00  0.00    +0.000 OA
ATOM      4  H   UNL     1       1.507   8.373  17.861  0.00  0.00    +0.000 HD
ENDROOT
BRANCH   2   5
ATOM      5  C   UNL     1       2.214   6.835  19.670  0.00  0.00    +0.000 A 
ATOM      6  C   UNL     1       1.821   5.817  20.666  0.00  0.00    +0.000 A 
ATOM      7  C   UNL     1       2.291   4.584  20.491  0.00  0.00    +0.000 A 
ATOM      8  C   UNL     1       3.183   4.269  19.359  0.00  0.00    +0.000 A 
ATOM      9  O   UNL     1       3.594   3.119  19.236  0.00  0.00    +0.000 OA
ATOM     10  N   UNL     1       3.498   5.327  18.513  0.00  0.00    +0.000 N 
ATOM     11  N   UNL     1       3.000   6.623  18.657  0.00  0.00    +0.000 NA
BRANCH  10  12
ATOM     12  C   UNL     1       4.497   5.113  17.471  0.00  0.00    +0.000 C 
BRANCH  12  13
ATOM     13  C   UNL     1       5.809   5.782  17.814  0.00  0.00    +0.000 A 
ATOM     14  C   UNL     1       6.607   5.294  18.860  0.00  0.00    +0.000 A 
ATOM     15  C   UNL     1       7.798   5.936  19.201  0.00  0.00    +0.000 A 
ATOM     16  C   UNL     1       8.200   7.074  18.505  0.00  0.00    +0.000 A 
ATOM     17  C   UNL     1       7.411   7.574  17.471  0.00  0.00    +0.000 A 
ATOM     18  C   UNL     1       6.219   6.934  17.130  0.00  0.00    +0.000 A 
ENDBRANCH  12  13
ENDBRANCH  10  12
ENDBRANCH   2   5
BRANCH   1  23
ATOM     19  C   UNL     1      -1.401  11.394  18.199  0.00  0.00    +0.000 A 
ATOM     20  C   UNL     1      -0.702  12.586  18.440  0.00  0.00    +0.000 A 
ATOM     21  C   UNL     1       0.659  12.570  18.732  0.00  0.00    +0.000 A 
ATOM     22  C   UNL     1       1.341  11.356  18.800  0.00  0.00    +0.000 A 
ATOM     23  C   UNL     1       0.669  10.148  18.600  0.00  0.00    +0.000 A 
ATOM     24  C   UNL     1      -0.702  10.177  18.299  0.00  0.00    +0.000 A 
BRANCH  19  30
ATOM     25  C   UNL     1      -2.922  10.878  15.440  0.00  0.00    +0.000 C 
ATOM     26  N   UNL     1      -3.480  11.264  16.708  0.00  0.00    +0.000 N 
ATOM     27  C   UNL     1      -4.794  11.561  16.914  0.00  0.00    +0.000 A 
ATOM     28  N   UNL     1      -4.975  11.928  18.157  0.00  0.00    +0.000 NA
ATOM     29  N   UNL     1      -3.751  11.890  18.774  0.00  0.00    +0.000 NA
ATOM     30  C   UNL     1      -2.836  11.487  17.905  0.00  0.00    +0.000 A 
ENDBRANCH  19  30
ENDBRANCH   1  23
TORSDOF 5
ENDMDL
MODEL 2
REMARK VINA RESULT:      -8.8      2.725      9.491
REMARK  Name = 
REMARK  6 active torsions:
REMARK  status: ('A' for Active; 'I' for Inactive)
REMARK    1  A    between atoms: C_1  and  N_2
REMARK    2  A    between atoms: C_6  and  C_7
REMARK    3  A    between atoms: C_11  and  N_12
REMARK    4  A    between atoms: C_13  and  C_15
REMARK    5  A    between atoms: N_20  and  C_21
REMARK    6  A    between atoms: C_21  and  C_22
REMARK                            x       y       z     vdW  Elec       q    Type
REMARK                         _______ _______ _______ _____ _____    ______ ____
ROOT
ATOM      1  N   UNL     1       1.704   6.929  20.743  0.00  0.00    +0.000 N 
ATOM      2  C   UNL     1       1.531   8.132  20.084  0.00  0.00    +0.000 C 
ATOM      3  O   UNL     1       1.875   8.424  18.947  0.00  0.00    +0.000 OA
ATOM      4  H   UNL     1       1.344   6.907  21.692  0.00  0.00    +0.000 HD
ENDROOT
BRANCH   2   5
ATOM      5  C   UNL     1       0.798   9.193  20.908  0.00  0.00    +0.000 A 
ATOM      6  C   UNL     1       0.513   8.829  22.310  0.00  0.00    +0.000 A 
ATOM      7  C   UNL     1      -0.095   9.744  23.063  0.00  0.00    +0.000 A 
ATOM      8  C   UNL     1      -0.480  11.052  22.499  0.00  0.00    +0.000 A 
ATOM      9  O   UNL     1      -1.039  11.865  23.229  0.00  0.00    +0.000 OA
ATOM     10  N   UNL     1      -0.179  11.254  21.157  0.00  0.00    +0.000 N 
ATOM     11  N   UNL     1       0.479  10.323  20.350  0.00  0.00    +0.000 NA
BRANCH  10  12
ATOM     12  C   UNL     1      -0.674  12.462  20.505  0.00  0.00    +0.000 C 
BRANCH  12  13
ATOM     13  C   UNL     1      -2.046  12.248  19.906  0.00  0.00    +0.000 A 
ATOM     14  C   UNL     1      -2.191  11.604  18.668  0.00  0.00    +0.000 A 
ATOM     15  C   UNL     1      -3.454  11.442  18.098  0.00  0.00    +0.000 A 
ATOM     16  C   UNL     1      -4.583  11.928  18.755  0.00  0.00    +0.000 A 
ATOM     17  C   UNL     1      -4.450  12.578  19.980  0.00  0.00    +0.000 A 
ATOM     18  C   UNL     1      -3.187  12.741  20.551  0.00  0.00    +0.000 A 
ENDBRANCH  12  13
ENDBRANCH  10  12
ENDBRANCH   2   5
BRANCH   1  23
ATOM     19  C   UNL     1       4.216   4.694  19.155  0.00  0.00    +0.000 A 
ATOM     20  C   UNL     1       3.542   3.466  19.202  0.00  0.00    +0.000 A 
ATOM     21  C   UNL     1       2.253   3.377  19.719  0.00  0.00    +0.000 A 
ATOM     22  C   UNL     1       1.620   4.518  20.209  0.00  0.00    +0.000 A 
ATOM     23  C   UNL     1       2.274   5.752  20.209  0.00  0.00    +0.000 A 
ATOM     24  C   UNL     1       3.572   5.830  19.678  0.00  0.00    +0.000 A 
BRANCH  19  30
ATOM     25  C   UNL     1       5.161   4.317  16.129  0.00  0.00    +0.000 C 
ATOM     26  N   UNL     1       5.970   4.545  17.295  0.00  0.00    +0.000 N 
ATOM     27  C   UNL     1       7.333   4.553  17.297  0.00  0.00    +0.000 A 
ATOM     28  N   UNL     1       7.772   4.731  18.517  0.00  0.00    +0.000 NA
ATOM     29  N   UNL     1       6.675   4.822  19.335  0.00  0.00    +0.000 NA
ATOM     30  C   UNL     1       5.576   4.712  18.604  0.00  0.00    +0.000 A 
ENDBRANCH  19  30
ENDBRANCH   1  23
TORSDOF 5
ENDMDL
MODEL 3
REMARK VINA RESULT:      -8.6      0.623      1.474
REMARK  Name = 
REMARK  6 active torsions:
REMARK  status: ('A' for Active; 'I' for Inactive)
REMARK    1  A    between atoms: C_1  and  N_2
REMARK    2  A    between atoms: C_6  and  C_7
REMARK    3  A    between atoms: C_11  and  N_12
REMARK    4  A    between atoms: C_13  and  C_15
REMARK    5  A    between atoms: N_20  and  C_21
REMARK    6  A    between atoms: C_21  and  C_22
REMARK                            x       y       z     vdW  Elec       q    Type
REMARK                         _______ _______ _______ _____ _____    ______ ____
ROOT
ATOM      1  N   UNL     1       1.275   9.010  18.762  0.00  0.00    +0.000 N 
ATOM      2  C   UNL     1       1.557   8.350  19.943  0.00  0.00    +0.000 C 
ATOM      3  O   UNL     1       1.384   8.748  21.087  0.00  0.00    +0.000 OA
ATOM      4  H   UNL     1       1.506   8.493  17.919  0.00  0.00    +0.000 HD
ENDROOT
BRANCH   2   5
ATOM      5  C   UNL     1       2.135   6.947  19.750  0.00  0.00    +0.000 A 
ATOM      6  C   UNL     1       1.726   5.943  20.753  0.00  0.00    +0.000 A 
ATOM      7  C   UNL     1       2.186   4.704  20.594  0.00  0.00    +0.000 A 
ATOM      8  C   UNL     1       3.084   4.370  19.472  0.00  0.00    +0.000 A 
ATOM      9  O   UNL     1       3.485   3.215  19.364  0.00  0.00    +0.000 OA
ATOM     10  N   UNL     1       3.415   5.416  18.618  0.00  0.00    +0.000 N 
ATOM     11  N   UNL     1       2.928   6.718  18.745  0.00  0.00    +0.000 NA
BRANCH  10  12
ATOM     12  C   UNL     1       4.419   5.182  17.585  0.00  0.00    +0.000 C 
BRANCH  12  13
ATOM     13  C   UNL     1       5.730   5.856  17.923  0.00  0.00    +0.000 A 
ATOM     14  C   UNL     1       6.177   6.959  17.180  0.00  0.00    +0.000 A 
ATOM     15  C   UNL     1       7.405   7.555  17.467  0.00  0.00    +0.000 A 
ATOM     16  C   UNL     1       8.201   7.052  18.495  0.00  0.00    +0.000 A 
ATOM     17  C   UNL     1       7.772   5.950  19.232  0.00  0.00    +0.000 A 
ATOM     18  C   UNL     1       6.545   5.353  18.945  0.00  0.00    +0.000 A 
ENDBRANCH  12  13
ENDBRANCH  10  12
ENDBRANCH   2   5
BRANCH   1  23
ATOM     19  C   UNL     1      -1.392  11.552  18.257  0.00  0.00    +0.000 A 
ATOM     20  C   UNL     1      -0.664  12.736  18.438  0.00  0.00    +0.000 A 
ATOM     21  C   UNL     1       0.705  12.703  18.687  0.00  0.00    +0.000 A 
ATOM     22  C   UNL     1       1.367  11.479  18.772  0.00  0.00    +0.000 A 
ATOM     23  C   UNL     1       0.668  10.279  18.631  0.00  0.00    +0.000 A 
ATOM     24  C   UNL     1      -0.712  10.325  18.372  0.00  0.00    +0.000 A 
BRANCH  19  30
ATOM     25  C   UNL     1      -3.710  12.496  20.239  0.00  0.00    +0.000 C 
ATOM     26  N   UNL     1      -3.824  12.070  18.871  0.00  0.00    +0.000 N 
ATOM     27  C   UNL     1      -5.005  11.919  18.206  0.00  0.00    +0.000 A 
ATOM     28  N   UNL     1      -4.778  11.467  16.999  0.00  0.00    +0.000 NA
ATOM     29  N   UNL     1      -3.423  11.299  16.875  0.00  0.00    +0.000 NA
ATOM     30  C   UNL     1      -2.833  11.663  18.005  0.00  0.00    +0.000 A 
ENDBRANCH  19  30
ENDBRANCH   1  23
TORSDOF 5
ENDMDL
MODEL 4
REMARK VINA RESULT:      -8.5      0.840      1.345
REMARK  Name = 
REMARK  6 active torsions:
REMARK  status: ('A' for Active; 'I' for Inactive)
REMARK    1  A    between atoms: C_1  and  N_2
REMARK    2  A    between atoms: C_6  and  C_7
REMARK    3  A    between atoms: C_11  and  N_12
REMARK    4  A    between atoms: C_13  and  C_15
REMARK    5  A    between atoms: N_20  and  C_21
REMARK    6  A    between atoms: C_21  and  C_22
REMARK                            x       y       z     vdW  Elec       q    Type
REMARK                         _______ _______ _______ _____ _____    ______ ____
ROOT
ATOM      1  N   UNL     1       1.480   9.022  18.773  0.00  0.00    +0.000 N 
ATOM      2  C   UNL     1       1.624   8.265  19.921  0.00  0.00    +0.000 C 
ATOM      3  O   UNL     1       1.334   8.576  21.068  0.00  0.00    +0.000 OA
ATOM      4  H   UNL     1       1.793   8.567  17.921  0.00  0.00    +0.000 HD
ENDROOT
BRANCH   2   5
ATOM      5  C   UNL     1       2.199   6.869  19.679  0.00  0.00    +0.000 A 
ATOM      6  C   UNL     1       1.794   5.833  20.651  0.00  0.00    +0.000 A 
ATOM      7  C   UNL     1       2.251   4.599  20.449  0.00  0.00    +0.000 A 
ATOM      8  C   UNL     1       3.141   4.300  19.310  0.00  0.00    +0.000 A 
ATOM      9  O   UNL     1       3.540   3.149  19.163  0.00  0.00    +0.000 OA
ATOM     10  N   UNL     1       3.468   5.373  18.489  0.00  0.00    +0.000 N 
ATOM     11  N   UNL     1       2.984   6.671  18.662  0.00  0.00    +0.000 NA
BRANCH  10  12
ATOM     12  C   UNL     1       4.466   5.172  17.443  0.00  0.00    +0.000 C 
BRANCH  12  13
ATOM     13  C   UNL     1       5.785   5.816  17.803  0.00  0.00    +0.000 A 
ATOM     14  C   UNL     1       6.563   5.310  18.856  0.00  0.00    +0.000 A 
ATOM     15  C   UNL     1       7.761   5.930  19.212  0.00  0.00    +0.000 A 
ATOM     16  C   UNL     1       8.191   7.064  18.525  0.00  0.00    +0.000 A 
ATOM     17  C   UNL     1       7.422   7.581  17.485  0.00  0.00    +0.000 A 
ATOM     18  C   UNL     1       6.223   6.963  17.128  0.00  0.00    +0.000 A 
ENDBRANCH  12  13
ENDBRANCH  10  12
ENDBRANCH   2   5
BRANCH   1  23
ATOM     19  C   UNL     1      -1.132  11.662  18.602  0.00  0.00    +0.000 A 
ATOM     20  C   UNL     1      -0.338  12.818  18.588  0.00  0.00    +0.000 A 
ATOM     21  C   UNL     1       1.051  12.730  18.596  0.00  0.00    +0.000 A 
ATOM     22  C   UNL     1       1.669  11.482  18.631  0.00  0.00    +0.000 A 
ATOM     23  C   UNL     1       0.910  10.311  18.681  0.00  0.00    +0.000 A 
ATOM     24  C   UNL     1      -0.492  10.411  18.665  0.00  0.00    +0.000 A 
BRANCH  19  30
ATOM     25  C   UNL     1      -3.034  12.729  20.934  0.00  0.00    +0.000 C 
ATOM     26  N   UNL     1      -3.400  12.291  19.615  0.00  0.00    +0.000 N 
ATOM     27  C   UNL     1      -4.682  12.181  19.167  0.00  0.00    +0.000 A 
ATOM     28  N   UNL     1      -4.686  11.704  17.948  0.00  0.00    +0.000 NA
ATOM     29  N   UNL     1      -3.380  11.477  17.597  0.00  0.00    +0.000 NA
ATOM     30  C   UNL     1      -2.590  11.831  18.600  0.00  0.00    +0.000 A 
ENDBRANCH  19  30
ENDBRANCH   1  23
TORSDOF 5
ENDMDL
MODEL 5
REMARK VINA RESULT:      -8.5      3.236      8.763
REMARK  Name = 
REMARK  6 active torsions:
REMARK  status: ('A' for Active; 'I' for Inactive)
REMARK    1  A    between atoms: C_1  and  N_2
REMARK    2  A    between atoms: C_6  and  C_7
REMARK    3  A    between atoms: C_11  and  N_12
REMARK    4  A    between atoms: C_13  and  C_15
REMARK    5  A    between atoms: N_20  and  C_21
REMARK    6  A    between atoms: C_21  and  C_22
REMARK                            x       y       z     vdW  Elec       q    Type
REMARK                         _______ _______ _______ _____ _____    ______ ____
ROOT
ATOM      1  N   UNL     1       1.780   6.875  20.768  0.00  0.00    +0.000 N 
ATOM      2  C   UNL     1       1.616   8.065  20.085  0.00  0.00    +0.000 C 
ATOM      3  O   UNL     1       1.965   8.332  18.944  0.00  0.00    +0.000 OA
ATOM      4  H   UNL     1       1.417   6.873  21.716  0.00  0.00    +0.000 HD
ENDROOT
BRANCH   2   5
ATOM      5  C   UNL     1       0.886   9.146  20.885  0.00  0.00    +0.000 A 
ATOM      6  C   UNL     1       0.377   8.729  22.207  0.00  0.00    +0.000 A 
ATOM      7  C   UNL     1      -0.235   9.655  22.942  0.00  0.00    +0.000 A 
ATOM      8  C   UNL     1      -0.408  11.029  22.434  0.00  0.00    +0.000 A 
ATOM      9  O   UNL     1      -0.979  11.850  23.145  0.00  0.00    +0.000 OA
ATOM     10  N   UNL     1       0.091  11.280  21.161  0.00  0.00    +0.000 N 
ATOM     11  N   UNL     1       0.759  10.336  20.378  0.00  0.00    +0.000 NA
BRANCH  10  12
ATOM     12  C   UNL     1      -0.188  12.574  20.545  0.00  0.00    +0.000 C 
BRANCH  12  13
ATOM     13  C   UNL     1       1.071  13.218  20.011  0.00  0.00    +0.000 A 
ATOM     14  C   UNL     1       1.262  13.375  18.629  0.00  0.00    +0.000 A 
ATOM     15  C   UNL     1       2.442  13.933  18.137  0.00  0.00    +0.000 A 
ATOM     16  C   UNL     1       3.445  14.334  19.018  0.00  0.00    +0.000 A 
ATOM     17  C   UNL     1       3.271  14.173  20.391  0.00  0.00    +0.000 A 
ATOM     18  C   UNL     1       2.092  13.614  20.885  0.00  0.00    +0.000 A 
ENDBRANCH  12  13
ENDBRANCH  10  12
ENDBRANCH   2   5
BRANCH   1  23
ATOM     19  C   UNL     1       4.251   4.615  19.150  0.00  0.00    +0.000 A 
ATOM     20  C   UNL     1       3.608   3.377  19.293  0.00  0.00    +0.000 A 
ATOM     21  C   UNL     1       2.351   3.288  19.884  0.00  0.00    +0.000 A 
ATOM     22  C   UNL     1       1.721   4.439  20.354  0.00  0.00    +0.000 A 
ATOM     23  C   UNL     1       2.346   5.684  20.259  0.00  0.00    +0.000 A 
ATOM     24  C   UNL     1       3.611   5.762  19.654  0.00  0.00    +0.000 A 
BRANCH  19  30
ATOM     25  C   UNL     1       5.018   4.334  16.064  0.00  0.00    +0.000 C 
ATOM     26  N   UNL     1       5.896   4.508  17.189  0.00  0.00    +0.000 N 
ATOM     27  C   UNL     1       7.257   4.495  17.115  0.00  0.00    +0.000 A 
ATOM     28  N   UNL     1       7.766   4.622  18.314  0.00  0.00    +0.000 NA
ATOM     29  N   UNL     1       6.718   4.699  19.195  0.00  0.00    +0.000 NA
ATOM     30  C   UNL     1       5.578   4.632  18.524  0.00  0.00    +0.000 A 
ENDBRANCH  19  30
ENDBRANCH   1  23
TORSDOF 5
ENDMDL
MODEL 6
REMARK VINA RESULT:      -8.4      2.464      9.349
REMARK  Name = 
REMARK  6 active torsions:
REMARK  status: ('A' for Active; 'I' for Inactive)
REMARK    1  A    between atoms: C_1  and  N_2
REMARK    2  A    between atoms: C_6  and  C_7
REMARK    3  A    between atoms: C_11  and  N_12
REMARK    4  A    between atoms: C_13  and  C_15
REMARK    5  A    between atoms: N_20  and  C_21
REMARK    6  A    between atoms: C_21  and  C_22
REMARK                            x       y       z     vdW  Elec       q    Type
REMARK                         _______ _______ _______ _____ _____    ______ ____
ROOT
ATOM      1  N   UNL     1       1.910   6.661  20.760  0.00  0.00    +0.000 N 
ATOM      2  C   UNL     1       1.833   7.814  20.001  0.00  0.00    +0.000 C 
ATOM      3  O   UNL     1       2.321   8.023  18.899  0.00  0.00    +0.000 OA
ATOM      4  H   UNL     1       1.432   6.708  21.655  0.00  0.00    +0.000 HD
ENDROOT
BRANCH   2   5
ATOM      5  C   UNL     1       1.011   8.931  20.647  0.00  0.00    +0.000 A 
ATOM      6  C   UNL     1       0.737   8.771  22.089  0.00  0.00    +0.000 A 
ATOM      7  C   UNL     1       0.052   9.743  22.688  0.00  0.00    +0.000 A 
ATOM      8  C   UNL     1      -0.425  10.912  21.925  0.00  0.00    +0.000 A 
ATOM      9  O   UNL     1      -1.054  11.784  22.517  0.00  0.00    +0.000 OA
ATOM     10  N   UNL     1      -0.125  10.923  20.567  0.00  0.00    +0.000 N 
ATOM     11  N   UNL     1       0.613   9.931  19.918  0.00  0.00    +0.000 NA
BRANCH  10  12
ATOM     12  C   UNL     1      -0.703  11.972  19.733  0.00  0.00    +0.000 C 
BRANCH  12  13
ATOM     13  C   UNL     1      -1.976  11.508  19.062  0.00  0.00    +0.000 A 
ATOM     14  C   UNL     1      -1.950  10.460  18.129  0.00  0.00    +0.000 A 
ATOM     15  C   UNL     1      -3.119  10.060  17.481  0.00  0.00    +0.000 A 
ATOM     16  C   UNL     1      -4.324  10.707  17.754  0.00  0.00    +0.000 A 
ATOM     17  C   UNL     1      -4.359  11.756  18.670  0.00  0.00    +0.000 A 
ATOM     18  C   UNL     1      -3.191  12.157  19.318  0.00  0.00    +0.000 A 
ENDBRANCH  12  13
ENDBRANCH  10  12
ENDBRANCH   2   5
BRANCH   1  23
ATOM     19  C   UNL     1       4.244   4.340  19.031  0.00  0.00    +0.000 A 
ATOM     20  C   UNL     1       3.901   3.123  19.636  0.00  0.00    +0.000 A 
ATOM     21  C   UNL     1       2.881   3.057  20.581  0.00  0.00    +0.000 A 
ATOM     22  C   UNL     1       2.195   4.214  20.945  0.00  0.00    +0.000 A 
ATOM     23  C   UNL     1       2.533   5.449  20.389  0.00  0.00    +0.000 A 
ATOM     24  C   UNL     1       3.559   5.502  19.430  0.00  0.00    +0.000 A 
BRANCH  19  30
ATOM     25  C   UNL     1       7.193   5.535  19.299  0.00  0.00    +0.000 C 
ATOM     26  N   UNL     1       6.603   4.857  18.177  0.00  0.00    +0.000 N 
ATOM     27  C   UNL     1       7.215   4.687  16.970  0.00  0.00    +0.000 A 
ATOM     28  N   UNL     1       6.400   4.084  16.142  0.00  0.00    +0.000 NA
ATOM     29  N   UNL     1       5.223   3.872  16.813  0.00  0.00    +0.000 NA
ATOM     30  C   UNL     1       5.335   4.336  18.049  0.00  0.00    +0.000 A 
ENDBRANCH  19  30
ENDBRANCH   1  23
TORSDOF 5
ENDMDL
MODEL 7
REMARK VINA RESULT:      -8.3      2.452      9.063
REMARK  Name = 
REMARK  6 active torsions:
REMARK  status: ('A' for Active; 'I' for Inactive)
REMARK    1  A    between atoms: C_1  and  N_2
REMARK    2  A    between atoms: C_6  and  C_7
REMARK    3  A    between atoms: C_11  and  N_12
REMARK    4  A    between atoms: C_13  and  C_15
REMARK    5  A    between atoms: N_20  and  C_21
REMARK    6  A    between atoms: C_21  and  C_22
REMARK                            x       y       z     vdW  Elec       q    Type
REMARK                         _______ _______ _______ _____ _____    ______ ____
ROOT
ATOM      1  N   UNL     1       2.053   6.775  18.825  0.00  0.00    +0.000 N 
ATOM      2  C   UNL     1       1.839   6.946  20.180  0.00  0.00    +0.000 C 
ATOM      3  O   UNL     1       2.019   6.136  21.079  0.00  0.00    +0.000 OA
ATOM      4  H   UNL     1       1.830   7.583  18.253  0.00  0.00    +0.000 HD
ENDROOT
BRANCH   2   5
ATOM      5  C   UNL     1       1.336   8.340  20.560  0.00  0.00    +0.000 A 
ATOM      6  C   UNL     1       1.165   8.586  22.006  0.00  0.00    +0.000 A 
ATOM      7  C   UNL     1       0.759   9.800  22.372  0.00  0.00    +0.000 A 
ATOM      8  C   UNL     1       0.476  10.837  21.362  0.00  0.00    +0.000 A 
ATOM      9  O   UNL     1       0.103  11.943  21.744  0.00  0.00    +0.000 OA
ATOM     10  N   UNL     1       0.648  10.464  20.034  0.00  0.00    +0.000 N 
ATOM     11  N   UNL     1       1.096   9.208  19.622  0.00  0.00    +0.000 NA
BRANCH  10  12
ATOM     12  C   UNL     1       0.234  11.395  18.988  0.00  0.00    +0.000 C 
BRANCH  12  13
ATOM     13  C   UNL     1      -1.183  11.125  18.535  0.00  0.00    +0.000 A 
ATOM     14  C   UNL     1      -1.450  10.130  17.581  0.00  0.00    +0.000 A 
ATOM     15  C   UNL     1      -2.753   9.910  17.135  0.00  0.00    +0.000 A 
ATOM     16  C   UNL     1      -3.801  10.684  17.630  0.00  0.00    +0.000 A 
ATOM     17  C   UNL     1      -3.546  11.682  18.569  0.00  0.00    +0.000 A 
ATOM     18  C   UNL     1      -2.244  11.904  19.016  0.00  0.00    +0.000 A 
ENDBRANCH  12  13
ENDBRANCH  10  12
ENDBRANCH   2   5
BRANCH   1  23
ATOM     19  C   UNL     1       4.350   4.677  16.788  0.00  0.00    +0.000 A 
ATOM     20  C   UNL     1       3.780   3.409  16.970  0.00  0.00    +0.000 A 
ATOM     21  C   UNL     1       2.623   3.248  17.728  0.00  0.00    +0.000 A 
ATOM     22  C   UNL     1       2.025   4.355  18.327  0.00  0.00    +0.000 A 
ATOM     23  C   UNL     1       2.584   5.627  18.196  0.00  0.00    +0.000 A 
ATOM     24  C   UNL     1       3.747   5.779  17.422  0.00  0.00    +0.000 A 
BRANCH  19  30
ATOM     25  C   UNL     1       7.393   4.670  17.752  0.00  0.00    +0.000 C 
ATOM     26  N   UNL     1       6.882   4.769  16.412  0.00  0.00    +0.000 N 
ATOM     27  C   UNL     1       7.653   4.967  15.305  0.00  0.00    +0.000 A 
ATOM     28  N   UNL     1       6.889   5.068  14.247  0.00  0.00    +0.000 NA
ATOM     29  N   UNL     1       5.590   4.954  14.671  0.00  0.00    +0.000 NA
ATOM     30  C   UNL     1       5.573   4.771  15.983  0.00  0.00    +0.000 A 
ENDBRANCH  19  30
ENDBRANCH   1  23
TORSDOF 5
ENDMDL
MODEL 8
REMARK VINA RESULT:      -8.3      0.797      1.220
REMARK  Name = 
REMARK  6 active torsions:
REMARK  status: ('A' for Active; 'I' for Inactive)
REMARK    1  A    between atoms: C_1  and  N_2
REMARK    2  A    between atoms: C_6  and  C_7
REMARK    3  A    between atoms: C_11  and  N_12
REMARK    4  A    between atoms: C_13  and  C_15
REMARK    5  A    between atoms: N_20  and  C_21
REMARK    6  A    between atoms: C_21  and  C_22
REMARK                            x       y       z     vdW  Elec       q    Type
REMARK                         _______ _______ _______ _____ _____    ______ ____
ROOT
ATOM      1  N   UNL     1       1.439   8.691  18.130  0.00  0.00    +0.000 N 
ATOM      2  C   UNL     1       1.884   7.869  19.149  0.00  0.00    +0.000 C 
ATOM      3  O   UNL     1       1.865   8.085  20.353  0.00  0.00    +0.000 OA
ATOM      4  H   UNL     1       1.557   8.313  17.195  0.00  0.00    +0.000 HD
ENDROOT
BRANCH   2   5
ATOM      5  C   UNL     1       2.442   6.528  18.668  0.00  0.00    +0.000 A 
ATOM      6  C   UNL     1       1.732   5.329  19.155  0.00  0.00    +0.000 A 
ATOM      7  C   UNL     1       2.173   4.147  18.729  0.00  0.00    +0.000 A 
ATOM      8  C   UNL     1       3.336   4.056  17.826  0.00  0.00    +0.000 A 
ATOM      9  O   UNL     1       3.709   2.946  17.458  0.00  0.00    +0.000 OA
ATOM     10  N   UNL     1       3.931   5.261  17.468  0.00  0.00    +0.000 N 
ATOM     11  N   UNL     1       3.476   6.515  17.879  0.00  0.00    +0.000 NA
BRANCH  10  12
ATOM     12  C   UNL     1       5.176   5.225  16.706  0.00  0.00    +0.000 C 
BRANCH  12  13
ATOM     13  C   UNL     1       6.283   5.969  17.417  0.00  0.00    +0.000 A 
ATOM     14  C   UNL     1       6.671   7.250  16.992  0.00  0.00    +0.000 A 
ATOM     15  C   UNL     1       7.719   7.918  17.624  0.00  0.00    +0.000 A 
ATOM     16  C   UNL     1       8.395   7.313  18.682  0.00  0.00    +0.000 A 
ATOM     17  C   UNL     1       8.026   6.038  19.106  0.00  0.00    +0.000 A 
ATOM     18  C   UNL     1       6.978   5.368  18.475  0.00  0.00    +0.000 A 
ENDBRANCH  12  13
ENDBRANCH  10  12
ENDBRANCH   2   5
BRANCH   1  23
ATOM     19  C   UNL     1      -1.267  11.241  18.153  0.00  0.00    +0.000 A 
ATOM     20  C   UNL     1      -0.566  12.364  18.615  0.00  0.00    +0.000 A 
ATOM     21  C   UNL     1       0.798  12.295  18.882  0.00  0.00    +0.000 A 
ATOM     22  C   UNL     1       1.482  11.094  18.703  0.00  0.00    +0.000 A 
ATOM     23  C   UNL     1       0.810   9.947  18.277  0.00  0.00    +0.000 A 
ATOM     24  C   UNL     1      -0.566  10.031  18.003  0.00  0.00    +0.000 A 
BRANCH  19  30
ATOM     25  C   UNL     1      -2.885  10.769  15.442  0.00  0.00    +0.000 C 
ATOM     26  N   UNL     1      -3.391  11.180  16.723  0.00  0.00    +0.000 N 
ATOM     27  C   UNL     1      -4.687  11.527  16.965  0.00  0.00    +0.000 A 
ATOM     28  N   UNL     1      -4.818  11.906  18.211  0.00  0.00    +0.000 NA
ATOM     29  N   UNL     1      -3.579  11.825  18.793  0.00  0.00    +0.000 NA
ATOM     30  C   UNL     1      -2.705  11.385  17.900  0.00  0.00    +0.000 A 
ENDBRANCH  19  30
ENDBRANCH   1  23
TORSDOF 5
ENDMDL
MODEL 9
REMARK VINA RESULT:      -8.3      1.801      3.533
REMARK  Name = 
REMARK  6 active torsions:
REMARK  status: ('A' for Active; 'I' for Inactive)
REMARK    1  A    between atoms: C_1  and  N_2
REMARK    2  A    between atoms: C_6  and  C_7
REMARK    3  A    between atoms: C_11  and  N_12
REMARK    4  A    between atoms: C_13  and  C_15
REMARK    5  A    between atoms: N_20  and  C_21
REMARK    6  A    between atoms: C_21  and  C_22
REMARK                            x       y       z     vdW  Elec       q    Type
REMARK                         _______ _______ _______ _____ _____    ______ ____
ROOT
ATOM      1  N   UNL     1       1.915   9.223  17.785  0.00  0.00    +0.000 N 
ATOM      2  C   UNL     1       2.213   8.168  18.626  0.00  0.00    +0.000 C 
ATOM      3  O   UNL     1       1.888   8.022  19.796  0.00  0.00    +0.000 OA
ATOM      4  H   UNL     1       2.293   9.141  16.847  0.00  0.00    +0.000 HD
ENDROOT
BRANCH   2   5
ATOM      5  C   UNL     1       3.034   7.059  17.965  0.00  0.00    +0.000 A 
ATOM      6  C   UNL     1       4.133   7.512  17.088  0.00  0.00    +0.000 A 
ATOM      7  C   UNL     1       4.887   6.572  16.524  0.00  0.00    +0.000 A 
ATOM      8  C   UNL     1       4.611   5.141  16.757  0.00  0.00    +0.000 A 
ATOM      9  O   UNL     1       5.331   4.308  16.216  0.00  0.00    +0.000 OA
ATOM     10  N   UNL     1       3.528   4.852  17.580  0.00  0.00    +0.000 N 
ATOM     11  N   UNL     1       2.735   5.816  18.205  0.00  0.00    +0.000 NA
BRANCH  10  12
ATOM     12  C   UNL     1       3.112   3.460  17.721  0.00  0.00    +0.000 C 
BRANCH  12  13
ATOM     13  C   UNL     1       2.550   3.185  19.098  0.00  0.00    +0.000 A 
ATOM     14  C   UNL     1       3.398   2.823  20.156  0.00  0.00    +0.000 A 
ATOM     15  C   UNL     1       2.874   2.532  21.415  0.00  0.00    +0.000 A 
ATOM     16  C   UNL     1       1.498   2.593  21.629  0.00  0.00    +0.000 A 
ATOM     17  C   UNL     1       0.645   2.941  20.583  0.00  0.00    +0.000 A 
ATOM     18  C   UNL     1       1.168   3.232  19.323  0.00  0.00    +0.000 A 
ENDBRANCH  12  13
ENDBRANCH  10  12
ENDBRANCH   2   5
BRANCH   1  23
ATOM     19  C   UNL     1      -1.133  11.321  18.158  0.00  0.00    +0.000 A 
ATOM     20  C   UNL     1      -0.590  12.471  18.748  0.00  0.00    +0.000 A 
ATOM     21  C   UNL     1       0.777  12.574  18.989  0.00  0.00    +0.000 A 
ATOM     22  C   UNL     1       1.623  11.519  18.653  0.00  0.00    +0.000 A 
ATOM     23  C   UNL     1       1.113  10.345  18.095  0.00  0.00    +0.000 A 
ATOM     24  C   UNL     1      -0.267  10.256  17.849  0.00  0.00    +0.000 A 
BRANCH  19  30
ATOM     25  C   UNL     1      -2.744  10.638  15.487  0.00  0.00    +0.000 C 
ATOM     26  N   UNL     1      -3.267  10.985  16.781  0.00  0.00    +0.000 N 
ATOM     27  C   UNL     1      -4.590  11.165  17.055  0.00  0.00    +0.000 A 
ATOM     28  N   UNL     1      -4.737  11.528  18.304  0.00  0.00    +0.000 NA
ATOM     29  N   UNL     1      -3.484  11.608  18.855  0.00  0.00    +0.000 NA
ATOM     30  C   UNL     1      -2.583  11.280  17.940  0.00  0.00    +0.000 A 
ENDBRANCH  19  30
ENDBRANCH   1  23
TORSDOF 5
ENDMDL
