MODEL 1
REMARK VINA RESULT:      -7.2      0.000      0.000
REMARK  Name = 
REMARK  3 active torsions:
REMARK  status: ('A' for Active; 'I' for Inactive)
REMARK    1  A    between atoms: C_1  and  N_2
REMARK    2  A    between atoms: C_3  and  C_5
REMARK    3  A    between atoms: C_8  and  C_10
REMARK                            x       y       z     vdW  Elec       q    Type
REMARK                         _______ _______ _______ _____ _____    ______ ____
ROOT
ATOM      1  C   UNL     1      -1.018  12.577  19.225  0.00  0.00    +0.000 C 
ATOM      2  C   UNL     1      -2.330  12.494  19.979  0.00  0.00    +0.000 C 
ATOM      3  N   UNL     1      -2.141  12.249  21.418  0.00  0.00    +0.000 N 
ATOM      4  C   UNL     1      -2.850  12.907  22.441  0.00  0.00    +0.000 C 
ATOM      5  O   UNL     1      -2.623  12.690  23.642  0.00  0.00    +0.000 OA
ATOM      6  C   UNL     1      -1.145  11.222  21.658  0.00  0.00    +0.000 A 
ATOM      7  C   UNL     1      -0.961  10.585  22.889  0.00  0.00    +0.000 A 
ATOM      8  C   UNL     1       0.027   9.600  23.065  0.00  0.00    +0.000 A 
ATOM      9  C   UNL     1       0.842   9.220  22.006  0.00  0.00    +0.000 A 
ATOM     10  C   UNL     1       0.672   9.822  20.769  0.00  0.00    +0.000 A 
ATOM     11  C   UNL     1      -0.299  10.815  20.599  0.00  0.00    +0.000 A 
ATOM     12  O   UNL     1      -0.279  11.374  19.344  0.00  0.00    +0.000 OA
ENDROOT
BRANCH   4  13
ATOM     13  C   UNL     1      -3.920  14.015  22.154  0.00  0.00    +0.000 C 
ATOM     14  C   UNL     1      -3.822  15.269  22.993  0.00  0.00    +0.000 A 
ATOM     15  C   UNL     1      -2.607  15.963  23.112  0.00  0.00    +0.000 A 
ATOM     16  C   UNL     1      -2.466  16.966  24.071  0.00  0.00    +0.000 A 
ATOM     17  C   UNL     1      -3.543  17.314  24.886  0.00  0.00    +0.000 A 
ATOM     18  C   UNL     1      -4.774  16.682  24.722  0.00  0.00    +0.000 A 
ATOM     19  C   UNL     1      -4.916  15.666  23.775  0.00  0.00    +0.000 A 
ATOM     20  O   UNL     1      -6.131  15.026  23.773  0.00  0.00    +0.000 OA
ATOM     21  C   UNL     1      -6.319  13.959  22.929  0.00  0.00    +0.000 A 
ATOM     22  C   UNL     1      -7.604  13.399  22.932  0.00  0.00    +0.000 A 
ATOM     23  C   UNL     1      -7.916  12.350  22.070  0.00  0.00    +0.000 A 
ATOM     24  C   UNL     1      -6.948  11.861  21.199  0.00  0.00    +0.000 A 
ATOM     25  C   UNL     1      -5.658  12.400  21.216  0.00  0.00    +0.000 A 
ATOM     26  C   UNL     1      -5.322  13.441  22.102  0.00  0.00    +0.000 A 
ENDBRANCH   4  13
BRANCH   1  29
ATOM     27  C   UNL     1      -0.464  16.320  19.595  0.00  0.00    +0.000 C 
ATOM     28  N   UNL     1      -1.068  15.020  19.500  0.00  0.00    +0.000 N 
ATOM     29  C   UNL     1      -0.306  13.881  19.623  0.00  0.00    +0.000 C 
ATOM     30  O   UNL     1       0.859  13.895  20.010  0.00  0.00    +0.000 OA
ATOM     31  H   UNL     1      -1.964  14.934  19.038  0.00  0.00    +0.000 HD
ENDBRANCH   1  29
TORSDOF 2
ENDMDL
MODEL 2
REMARK VINA RESULT:      -7.2      1.610      1.820
REMARK  Name = 
REMARK  3 active torsions:
REMARK  status: ('A' for Active; 'I' for Inactive)
REMARK    1  A    between atoms: C_1  and  N_2
REMARK    2  A    between atoms: C_3  and  C_5
REMARK    3  A    between atoms: C_8  and  C_10
REMARK                            x       y       z     vdW  Elec       q    Type
REMARK                         _______ _______ _______ _____ _____    ______ ____
ROOT
ATOM      1  C   UNL     1       0.145  12.617  18.960  0.00  0.00    +0.000 C 
ATOM      2  C   UNL     1      -1.226  12.479  19.591  0.00  0.00    +0.000 C 
ATOM      3  N   UNL     1      -1.193  11.737  20.861  0.00  0.00    +0.000 N 
ATOM      4  C   UNL     1      -1.897  12.107  22.022  0.00  0.00    +0.000 C 
ATOM      5  O   UNL     1      -1.802  11.466  23.080  0.00  0.00    +0.000 OA
ATOM      6  C   UNL     1      -0.359  10.554  20.765  0.00  0.00    +0.000 A 
ATOM      7  C   UNL     1      -0.362   9.518  21.704  0.00  0.00    +0.000 A 
ATOM      8  C   UNL     1       0.474   8.397  21.562  0.00  0.00    +0.000 A 
ATOM      9  C   UNL     1       1.321   8.282  20.468  0.00  0.00    +0.000 A 
ATOM     10  C   UNL     1       1.335   9.285  19.512  0.00  0.00    +0.000 A 
ATOM     11  C   UNL     1       0.516  10.408  19.662  0.00  0.00    +0.000 A 
ATOM     12  O   UNL     1       0.713  11.350  18.681  0.00  0.00    +0.000 OA
ENDROOT
BRANCH   4  13
ATOM     13  C   UNL     1      -2.790  13.392  22.099  0.00  0.00    +0.000 C 
ATOM     14  C   UNL     1      -2.505  14.333  23.248  0.00  0.00    +0.000 A 
ATOM     15  C   UNL     1      -1.200  14.785  23.503  0.00  0.00    +0.000 A 
ATOM     16  C   UNL     1      -0.910  15.448  24.695  0.00  0.00    +0.000 A 
ATOM     17  C   UNL     1      -1.921  15.705  25.619  0.00  0.00    +0.000 A 
ATOM     18  C   UNL     1      -3.234  15.326  25.339  0.00  0.00    +0.000 A 
ATOM     19  C   UNL     1      -3.527  14.648  24.155  0.00  0.00    +0.000 A 
ATOM     20  O   UNL     1      -4.824  14.215  24.028  0.00  0.00    +0.000 OA
ATOM     21  C   UNL     1      -5.170  13.465  22.930  0.00  0.00    +0.000 A 
ATOM     22  C   UNL     1      -6.524  13.117  22.834  0.00  0.00    +0.000 A 
ATOM     23  C   UNL     1      -6.990  12.408  21.729  0.00  0.00    +0.000 A 
ATOM     24  C   UNL     1      -6.107  12.049  20.716  0.00  0.00    +0.000 A 
ATOM     25  C   UNL     1      -4.750  12.371  20.827  0.00  0.00    +0.000 A 
ATOM     26  C   UNL     1      -4.262  13.063  21.951  0.00  0.00    +0.000 A 
ENDBRANCH   4  13
BRANCH   1  29
ATOM     27  C   UNL     1       3.172  13.961  20.827  0.00  0.00    +0.000 C 
ATOM     28  N   UNL     1       2.323  13.296  19.878  0.00  0.00    +0.000 N 
ATOM     29  C   UNL     1       0.980  13.589  19.812  0.00  0.00    +0.000 C 
ATOM     30  O   UNL     1       0.475  14.545  20.393  0.00  0.00    +0.000 OA
ATOM     31  H   UNL     1       2.627  12.412  19.490  0.00  0.00    +0.000 HD
ENDBRANCH   1  29
TORSDOF 2
ENDMDL
MODEL 3
REMARK VINA RESULT:      -7.0      3.805      6.865
REMARK  Name = 
REMARK  3 active torsions:
REMARK  status: ('A' for Active; 'I' for Inactive)
REMARK    1  A    between atoms: C_1  and  N_2
REMARK    2  A    between atoms: C_3  and  C_5
REMARK    3  A    between atoms: C_8  and  C_10
REMARK                            x       y       z     vdW  Elec       q    Type
REMARK                         _______ _______ _______ _____ _____    ______ ____
ROOT
ATOM      1  C   UNL     1       2.696  16.752  18.045  0.00  0.00    +0.000 C 
ATOM      2  C   UNL     1       2.536  15.258  18.247  0.00  0.00    +0.000 C 
ATOM      3  N   UNL     1       3.135  14.791  19.508  0.00  0.00    +0.000 N 
ATOM      4  C   UNL     1       2.532  13.871  20.386  0.00  0.00    +0.000 C 
ATOM      5  O   UNL     1       3.064  13.541  21.457  0.00  0.00    +0.000 OA
ATOM      6  C   UNL     1       4.444  15.377  19.725  0.00  0.00    +0.000 A 
ATOM      7  C   UNL     1       5.359  14.913  20.675  0.00  0.00    +0.000 A 
ATOM      8  C   UNL     1       6.612  15.526  20.847  0.00  0.00    +0.000 A 
ATOM      9  C   UNL     1       6.982  16.610  20.061  0.00  0.00    +0.000 A 
ATOM     10  C   UNL     1       6.102  17.083  19.100  0.00  0.00    +0.000 A 
ATOM     11  C   UNL     1       4.849  16.483  18.941  0.00  0.00    +0.000 A 
ATOM     12  O   UNL     1       4.063  17.124  18.014  0.00  0.00    +0.000 OA
ENDROOT
BRANCH   4  13
ATOM     13  C   UNL     1       1.116  13.254  20.127  0.00  0.00    +0.000 C 
ATOM     14  C   UNL     1       0.106  13.412  21.241  0.00  0.00    +0.000 A 
ATOM     15  C   UNL     1      -0.148  14.670  21.810  0.00  0.00    +0.000 A 
ATOM     16  C   UNL     1      -0.890  14.769  22.987  0.00  0.00    +0.000 A 
ATOM     17  C   UNL     1      -1.420  13.624  23.580  0.00  0.00    +0.000 A 
ATOM     18  C   UNL     1      -1.236  12.379  22.979  0.00  0.00    +0.000 A 
ATOM     19  C   UNL     1      -0.480  12.273  21.811  0.00  0.00    +0.000 A 
ATOM     20  O   UNL     1      -0.259  10.993  21.365  0.00  0.00    +0.000 OA
ATOM     21  C   UNL     1       0.547  10.801  20.270  0.00  0.00    +0.000 A 
ATOM     22  C   UNL     1       0.673   9.476  19.831  0.00  0.00    +0.000 A 
ATOM     23  C   UNL     1       1.420   9.180  18.693  0.00  0.00    +0.000 A 
ATOM     24  C   UNL     1       2.039  10.206  17.988  0.00  0.00    +0.000 A 
ATOM     25  C   UNL     1       1.938  11.525  18.442  0.00  0.00    +0.000 A 
ATOM     26  C   UNL     1       1.209  11.833  19.605  0.00  0.00    +0.000 A 
ENDBRANCH   4  13
BRANCH   1  29
ATOM     27  C   UNL     1      -0.513  17.755  19.821  0.00  0.00    +0.000 C 
ATOM     28  N   UNL     1       0.498  17.017  19.116  0.00  0.00    +0.000 N 
ATOM     29  C   UNL     1       1.792  17.482  19.053  0.00  0.00    +0.000 C 
ATOM     30  O   UNL     1       2.201  18.416  19.737  0.00  0.00    +0.000 OA
ATOM     31  H   UNL     1       0.210  16.344  18.417  0.00  0.00    +0.000 HD
ENDBRANCH   1  29
TORSDOF 2
ENDMDL
MODEL 4
REMARK VINA RESULT:      -6.8      1.870      6.344
REMARK  Name = 
REMARK  3 active torsions:
REMARK  status: ('A' for Active; 'I' for Inactive)
REMARK    1  A    between atoms: C_1  and  N_2
REMARK    2  A    between atoms: C_3  and  C_5
REMARK    3  A    between atoms: C_8  and  C_10
REMARK                            x       y       z     vdW  Elec       q    Type
REMARK                         _______ _______ _______ _____ _____    ______ ____
ROOT
ATOM      1  C   UNL     1      -3.799  13.421  24.591  0.00  0.00    +0.000 C 
ATOM      2  C   UNL     1      -3.036  12.718  23.486  0.00  0.00    +0.000 C 
ATOM      3  N   UNL     1      -3.700  12.837  22.177  0.00  0.00    +0.000 N 
ATOM      4  C   UNL     1      -3.037  13.115  20.967  0.00  0.00    +0.000 C 
ATOM      5  O   UNL     1      -3.651  13.243  19.896  0.00  0.00    +0.000 OA
ATOM      6  C   UNL     1      -5.128  12.604  22.281  0.00  0.00    +0.000 A 
ATOM      7  C   UNL     1      -5.963  12.372  21.184  0.00  0.00    +0.000 A 
ATOM      8  C   UNL     1      -7.343  12.160  21.344  0.00  0.00    +0.000 A 
ATOM      9  C   UNL     1      -7.915  12.161  22.610  0.00  0.00    +0.000 A 
ATOM     10  C   UNL     1      -7.111  12.373  23.718  0.00  0.00    +0.000 A 
ATOM     11  C   UNL     1      -5.740  12.601  23.557  0.00  0.00    +0.000 A 
ATOM     12  O   UNL     1      -5.102  12.883  24.740  0.00  0.00    +0.000 OA
ENDROOT
BRANCH   4  13
ATOM     13  C   UNL     1      -1.493  13.364  20.884  0.00  0.00    +0.000 C 
ATOM     14  C   UNL     1      -1.060  14.646  20.209  0.00  0.00    +0.000 A 
ATOM     15  C   UNL     1      -1.603  15.882  20.593  0.00  0.00    +0.000 A 
ATOM     16  C   UNL     1      -1.384  17.016  19.811  0.00  0.00    +0.000 A 
ATOM     17  C   UNL     1      -0.589  16.938  18.669  0.00  0.00    +0.000 A 
ATOM     18  C   UNL     1       0.016  15.730  18.323  0.00  0.00    +0.000 A 
ATOM     19  C   UNL     1      -0.213  14.588  19.093  0.00  0.00    +0.000 A 
ATOM     20  O   UNL     1       0.330  13.426  18.602  0.00  0.00    +0.000 OA
ATOM     21  C   UNL     1       0.077  12.246  19.257  0.00  0.00    +0.000 A 
ATOM     22  C   UNL     1       0.719  11.113  18.739  0.00  0.00    +0.000 A 
ATOM     23  C   UNL     1       0.576   9.877  19.365  0.00  0.00    +0.000 A 
ATOM     24  C   UNL     1      -0.204   9.769  20.511  0.00  0.00    +0.000 A 
ATOM     25  C   UNL     1      -0.868  10.894  21.011  0.00  0.00    +0.000 A 
ATOM     26  C   UNL     1      -0.754  12.143  20.372  0.00  0.00    +0.000 A 
ENDBRANCH   4  13
BRANCH   1  29
ATOM     27  C   UNL     1      -4.926  17.047  24.393  0.00  0.00    +0.000 C 
ATOM     28  N   UNL     1      -4.791  15.665  24.762  0.00  0.00    +0.000 N 
ATOM     29  C   UNL     1      -3.687  14.940  24.375  0.00  0.00    +0.000 C 
ATOM     30  O   UNL     1      -2.687  15.455  23.882  0.00  0.00    +0.000 OA
ATOM     31  H   UNL     1      -5.621  15.147  25.022  0.00  0.00    +0.000 HD
ENDBRANCH   1  29
TORSDOF 2
ENDMDL
MODEL 5
REMARK VINA RESULT:      -6.7      8.622     12.746
REMARK  Name = 
REMARK  3 active torsions:
REMARK  status: ('A' for Active; 'I' for Inactive)
REMARK    1  A    between atoms: C_1  and  N_2
REMARK    2  A    between atoms: C_3  and  C_5
REMARK    3  A    between atoms: C_8  and  C_10
REMARK                            x       y       z     vdW  Elec       q    Type
REMARK                         _______ _______ _______ _____ _____    ______ ____
ROOT
ATOM      1  C   UNL     1       5.783  15.540  22.024  0.00  0.00    +0.000 C 
ATOM      2  C   UNL     1       6.676  14.697  21.135  0.00  0.00    +0.000 C 
ATOM      3  N   UNL     1       6.420  14.921  19.703  0.00  0.00    +0.000 N 
ATOM      4  C   UNL     1       7.422  15.060  18.725  0.00  0.00    +0.000 C 
ATOM      5  O   UNL     1       7.151  15.287  17.535  0.00  0.00    +0.000 OA
ATOM      6  C   UNL     1       4.999  14.955  19.414  0.00  0.00    +0.000 A 
ATOM      7  C   UNL     1       4.461  14.868  18.126  0.00  0.00    +0.000 A 
ATOM      8  C   UNL     1       3.074  14.914  17.906  0.00  0.00    +0.000 A 
ATOM      9  C   UNL     1       2.193  15.034  18.973  0.00  0.00    +0.000 A 
ATOM     10  C   UNL     1       2.695  15.106  20.262  0.00  0.00    +0.000 A 
ATOM     11  C   UNL     1       4.076  15.078  20.480  0.00  0.00    +0.000 A 
ATOM     12  O   UNL     1       4.414  15.251  21.801  0.00  0.00    +0.000 OA
ENDROOT
BRANCH   4  13
ATOM     13  C   UNL     1       8.951  15.021  19.065  0.00  0.00    +0.000 C 
ATOM     14  C   UNL     1       9.759  16.226  18.640  0.00  0.00    +0.000 A 
ATOM     15  C   UNL     1       9.348  17.525  18.978  0.00  0.00    +0.000 A 
ATOM     16  C   UNL     1       9.958  18.629  18.382  0.00  0.00    +0.000 A 
ATOM     17  C   UNL     1      11.006  18.450  17.481  0.00  0.00    +0.000 A 
ATOM     18  C   UNL     1      11.470  17.166  17.198  0.00  0.00    +0.000 A 
ATOM     19  C   UNL     1      10.853  16.057  17.779  0.00  0.00    +0.000 A 
ATOM     20  O   UNL     1      11.305  14.835  17.344  0.00  0.00    +0.000 OA
ATOM     21  C   UNL     1      10.690  13.697  17.805  0.00  0.00    +0.000 A 
ATOM     22  C   UNL     1      11.247  12.486  17.373  0.00  0.00    +0.000 A 
ATOM     23  C   UNL     1      10.735  11.273  17.829  0.00  0.00    +0.000 A 
ATOM     24  C   UNL     1       9.668  11.267  18.722  0.00  0.00    +0.000 A 
ATOM     25  C   UNL     1       9.093  12.475  19.130  0.00  0.00    +0.000 A 
ATOM     26  C   UNL     1       9.584  13.705  18.655  0.00  0.00    +0.000 A 
ENDBRANCH   4  13
BRANCH   1  29
ATOM     27  C   UNL     1       8.065  18.571  22.269  0.00  0.00    +0.000 C 
ATOM     28  N   UNL     1       7.563  17.235  22.105  0.00  0.00    +0.000 N 
ATOM     29  C   UNL     1       6.220  17.010  21.905  0.00  0.00    +0.000 C 
ATOM     30  O   UNL     1       5.420  17.909  21.660  0.00  0.00    +0.000 OA
ATOM     31  H   UNL     1       8.120  16.461  22.443  0.00  0.00    +0.000 HD
ENDBRANCH   1  29
TORSDOF 2
ENDMDL
MODEL 6
REMARK VINA RESULT:      -6.7      2.594      6.931
REMARK  Name = 
REMARK  3 active torsions:
REMARK  status: ('A' for Active; 'I' for Inactive)
REMARK    1  A    between atoms: C_1  and  N_2
REMARK    2  A    between atoms: C_3  and  C_5
REMARK    3  A    between atoms: C_8  and  C_10
REMARK                            x       y       z     vdW  Elec       q    Type
REMARK                         _______ _______ _______ _____ _____    ______ ____
ROOT
ATOM      1  C   UNL     1      -5.506  13.633  20.052  0.00  0.00    +0.000 C 
ATOM      2  C   UNL     1      -4.106  14.174  20.262  0.00  0.00    +0.000 C 
ATOM      3  N   UNL     1      -3.332  13.381  21.231  0.00  0.00    +0.000 N 
ATOM      4  C   UNL     1      -1.986  13.006  21.064  0.00  0.00    +0.000 C 
ATOM      5  O   UNL     1      -1.392  12.303  21.896  0.00  0.00    +0.000 OA
ATOM      6  C   UNL     1      -4.123  13.052  22.402  0.00  0.00    +0.000 A 
ATOM      7  C   UNL     1      -3.584  12.562  23.595  0.00  0.00    +0.000 A 
ATOM      8  C   UNL     1      -4.401  12.254  24.697  0.00  0.00    +0.000 A 
ATOM      9  C   UNL     1      -5.776  12.442  24.631  0.00  0.00    +0.000 A 
ATOM     10  C   UNL     1      -6.337  12.942  23.467  0.00  0.00    +0.000 A 
ATOM     11  C   UNL     1      -5.526  13.233  22.365  0.00  0.00    +0.000 A 
ATOM     12  O   UNL     1      -6.243  13.631  21.263  0.00  0.00    +0.000 OA
ENDROOT
BRANCH   4  13
ATOM     13  C   UNL     1      -1.156  13.374  19.787  0.00  0.00    +0.000 C 
ATOM     14  C   UNL     1      -0.474  12.223  19.081  0.00  0.00    +0.000 A 
ATOM     15  C   UNL     1      -1.192  11.071  18.725  0.00  0.00    +0.000 A 
ATOM     16  C   UNL     1      -0.514   9.928  18.299  0.00  0.00    +0.000 A 
ATOM     17  C   UNL     1       0.875   9.938  18.185  0.00  0.00    +0.000 A 
ATOM     18  C   UNL     1       1.588  11.103  18.465  0.00  0.00    +0.000 A 
ATOM     19  C   UNL     1       0.917  12.244  18.907  0.00  0.00    +0.000 A 
ATOM     20  O   UNL     1       1.719  13.299  19.269  0.00  0.00    +0.000 OA
ATOM     21  C   UNL     1       1.137  14.426  19.795  0.00  0.00    +0.000 A 
ATOM     22  C   UNL     1       2.009  15.486  20.078  0.00  0.00    +0.000 A 
ATOM     23  C   UNL     1       1.513  16.696  20.558  0.00  0.00    +0.000 A 
ATOM     24  C   UNL     1       0.145  16.852  20.753  0.00  0.00    +0.000 A 
ATOM     25  C   UNL     1      -0.723  15.785  20.498  0.00  0.00    +0.000 A 
ATOM     26  C   UNL     1      -0.231  14.549  20.038  0.00  0.00    +0.000 A 
ENDBRANCH   4  13
BRANCH   1  29
ATOM     27  C   UNL     1      -4.619  11.247  17.228  0.00  0.00    +0.000 C 
ATOM     28  N   UNL     1      -4.606  12.333  18.169  0.00  0.00    +0.000 N 
ATOM     29  C   UNL     1      -5.408  12.302  19.287  0.00  0.00    +0.000 C 
ATOM     30  O   UNL     1      -6.013  11.297  19.649  0.00  0.00    +0.000 OA
ATOM     31  H   UNL     1      -4.264  13.236  17.865  0.00  0.00    +0.000 HD
ENDBRANCH   1  29
TORSDOF 2
ENDMDL
MODEL 7
REMARK VINA RESULT:      -6.7      3.004      5.117
REMARK  Name = 
REMARK  3 active torsions:
REMARK  status: ('A' for Active; 'I' for Inactive)
REMARK    1  A    between atoms: C_1  and  N_2
REMARK    2  A    between atoms: C_3  and  C_5
REMARK    3  A    between atoms: C_8  and  C_10
REMARK                            x       y       z     vdW  Elec       q    Type
REMARK                         _______ _______ _______ _____ _____    ______ ____
ROOT
ATOM      1  C   UNL     1       0.769  11.238  19.138  0.00  0.00    +0.000 C 
ATOM      2  C   UNL     1       0.297  12.673  19.007  0.00  0.00    +0.000 C 
ATOM      3  N   UNL     1      -1.136  12.826  19.305  0.00  0.00    +0.000 N 
ATOM      4  C   UNL     1      -1.684  13.865  20.080  0.00  0.00    +0.000 C 
ATOM      5  O   UNL     1      -2.897  13.925  20.334  0.00  0.00    +0.000 OA
ATOM      6  C   UNL     1      -1.925  11.784  18.677  0.00  0.00    +0.000 A 
ATOM      7  C   UNL     1      -3.316  11.829  18.547  0.00  0.00    +0.000 A 
ATOM      8  C   UNL     1      -4.031  10.785  17.935  0.00  0.00    +0.000 A 
ATOM      9  C   UNL     1      -3.364   9.677  17.426  0.00  0.00    +0.000 A 
ATOM     10  C   UNL     1      -1.984   9.611  17.527  0.00  0.00    +0.000 A 
ATOM     11  C   UNL     1      -1.275  10.642  18.151  0.00  0.00    +0.000 A 
ATOM     12  O   UNL     1       0.071  10.383  18.250  0.00  0.00    +0.000 OA
ENDROOT
BRANCH   4  13
ATOM     13  C   UNL     1      -0.807  14.978  20.749  0.00  0.00    +0.000 C 
ATOM     14  C   UNL     1      -1.062  15.235  22.217  0.00  0.00    +0.000 A 
ATOM     15  C   UNL     1      -1.072  14.180  23.142  0.00  0.00    +0.000 A 
ATOM     16  C   UNL     1      -1.544  14.389  24.438  0.00  0.00    +0.000 A 
ATOM     17  C   UNL     1      -1.968  15.657  24.833  0.00  0.00    +0.000 A 
ATOM     18  C   UNL     1      -1.891  16.727  23.943  0.00  0.00    +0.000 A 
ATOM     19  C   UNL     1      -1.434  16.519  22.640  0.00  0.00    +0.000 A 
ATOM     20  O   UNL     1      -1.509  17.609  21.807  0.00  0.00    +0.000 OA
ATOM     21  C   UNL     1      -1.159  17.462  20.487  0.00  0.00    +0.000 A 
ATOM     22  C   UNL     1      -1.194  18.631  19.715  0.00  0.00    +0.000 A 
ATOM     23  C   UNL     1      -0.801  18.602  18.379  0.00  0.00    +0.000 A 
ATOM     24  C   UNL     1      -0.368  17.408  17.812  0.00  0.00    +0.000 A 
ATOM     25  C   UNL     1      -0.360  16.236  18.575  0.00  0.00    +0.000 A 
ATOM     26  C   UNL     1      -0.781  16.246  19.918  0.00  0.00    +0.000 A 
ENDBRANCH   4  13
BRANCH   1  29
ATOM     27  C   UNL     1       0.081   9.154  22.243  0.00  0.00    +0.000 C 
ATOM     28  N   UNL     1       0.368   9.567  20.897  0.00  0.00    +0.000 N 
ATOM     29  C   UNL     1       0.767  10.856  20.628  0.00  0.00    +0.000 C 
ATOM     30  O   UNL     1       1.089  11.653  21.505  0.00  0.00    +0.000 OA
ATOM     31  H   UNL     1      -0.015   9.028  20.131  0.00  0.00    +0.000 HD
ENDBRANCH   1  29
TORSDOF 2
ENDMDL
MODEL 8
REMARK VINA RESULT:      -6.7      1.602      6.510
REMARK  Name = 
REMARK  3 active torsions:
REMARK  status: ('A' for Active; 'I' for Inactive)
REMARK    1  A    between atoms: C_1  and  N_2
REMARK    2  A    between atoms: C_3  and  C_5
REMARK    3  A    between atoms: C_8  and  C_10
REMARK                            x       y       z     vdW  Elec       q    Type
REMARK                         _______ _______ _______ _____ _____    ______ ____
ROOT
ATOM      1  C   UNL     1      -3.792  13.756  24.285  0.00  0.00    +0.000 C 
ATOM      2  C   UNL     1      -2.982  12.710  23.545  0.00  0.00    +0.000 C 
ATOM      3  N   UNL     1      -3.340  12.622  22.120  0.00  0.00    +0.000 N 
ATOM      4  C   UNL     1      -2.411  12.511  21.069  0.00  0.00    +0.000 C 
ATOM      5  O   UNL     1      -2.766  12.479  19.880  0.00  0.00    +0.000 OA
ATOM      6  C   UNL     1      -4.777  12.638  21.930  0.00  0.00    +0.000 A 
ATOM      7  C   UNL     1      -5.410  12.287  20.733  0.00  0.00    +0.000 A 
ATOM      8  C   UNL     1      -6.810  12.328  20.604  0.00  0.00    +0.000 A 
ATOM      9  C   UNL     1      -7.607  12.708  21.677  0.00  0.00    +0.000 A 
ATOM     10  C   UNL     1      -7.009  13.046  22.880  0.00  0.00    +0.000 A 
ATOM     11  C   UNL     1      -5.616  13.022  23.003  0.00  0.00    +0.000 A 
ATOM     12  O   UNL     1      -5.178  13.470  24.227  0.00  0.00    +0.000 OA
ENDROOT
BRANCH   4  13
ATOM     13  C   UNL     1      -0.862  12.498  21.303  0.00  0.00    +0.000 C 
ATOM     14  C   UNL     1      -0.053  13.463  20.466  0.00  0.00    +0.000 A 
ATOM     15  C   UNL     1      -0.397  14.822  20.401  0.00  0.00    +0.000 A 
ATOM     16  C   UNL     1       0.197  15.649  19.447  0.00  0.00    +0.000 A 
ATOM     17  C   UNL     1       1.165  15.140  18.583  0.00  0.00    +0.000 A 
ATOM     18  C   UNL     1       1.566  13.809  18.691  0.00  0.00    +0.000 A 
ATOM     19  C   UNL     1       0.963  12.973  19.633  0.00  0.00    +0.000 A 
ATOM     20  O   UNL     1       1.342  11.654  19.580  0.00  0.00    +0.000 OA
ATOM     21  C   UNL     1       0.731  10.753  20.417  0.00  0.00    +0.000 A 
ATOM     22  C   UNL     1       1.215   9.440  20.355  0.00  0.00    +0.000 A 
ATOM     23  C   UNL     1       0.704   8.461  21.205  0.00  0.00    +0.000 A 
ATOM     24  C   UNL     1      -0.289   8.793  22.121  0.00  0.00    +0.000 A 
ATOM     25  C   UNL     1      -0.793  10.097  22.163  0.00  0.00    +0.000 A 
ATOM     26  C   UNL     1      -0.304  11.088  21.291  0.00  0.00    +0.000 A 
ENDBRANCH   4  13
BRANCH   1  29
ATOM     27  C   UNL     1      -1.417  16.634  23.556  0.00  0.00    +0.000 C 
ATOM     28  N   UNL     1      -1.979  15.324  23.738  0.00  0.00    +0.000 N 
ATOM     29  C   UNL     1      -3.342  15.149  23.813  0.00  0.00    +0.000 C 
ATOM     30  O   UNL     1      -4.146  16.035  23.538  0.00  0.00    +0.000 OA
ATOM     31  H   UNL     1      -1.393  14.593  24.120  0.00  0.00    +0.000 HD
ENDBRANCH   1  29
TORSDOF 2
ENDMDL
MODEL 9
REMARK VINA RESULT:      -6.7      1.394      1.679
REMARK  Name = 
REMARK  3 active torsions:
REMARK  status: ('A' for Active; 'I' for Inactive)
REMARK    1  A    between atoms: C_1  and  N_2
REMARK    2  A    between atoms: C_3  and  C_5
REMARK    3  A    between atoms: C_8  and  C_10
REMARK                            x       y       z     vdW  Elec       q    Type
REMARK                         _______ _______ _______ _____ _____    ______ ____
ROOT
ATOM      1  C   UNL     1      -0.880  11.773  18.567  0.00  0.00    +0.000 C 
ATOM      2  C   UNL     1      -2.045  12.046  19.499  0.00  0.00    +0.000 C 
ATOM      3  N   UNL     1      -1.645  12.056  20.915  0.00  0.00    +0.000 N 
ATOM      4  C   UNL     1      -2.081  13.002  21.861  0.00  0.00    +0.000 C 
ATOM      5  O   UNL     1      -1.682  12.987  23.037  0.00  0.00    +0.000 OA
ATOM      6  C   UNL     1      -0.761  10.949  21.227  0.00  0.00    +0.000 A 
ATOM      7  C   UNL     1      -0.452  10.540  22.528  0.00  0.00    +0.000 A 
ATOM      8  C   UNL     1       0.419   9.463  22.771  0.00  0.00    +0.000 A 
ATOM      9  C   UNL     1       0.987   8.763  21.715  0.00  0.00    +0.000 A 
ATOM     10  C   UNL     1       0.686   9.134  20.415  0.00  0.00    +0.000 A 
ATOM     11  C   UNL     1      -0.166  10.217  20.173  0.00  0.00    +0.000 A 
ATOM     12  O   UNL     1      -0.290  10.513  18.837  0.00  0.00    +0.000 OA
ENDROOT
BRANCH   4  13
ATOM     13  C   UNL     1      -3.036  14.189  21.496  0.00  0.00    +0.000 C 
ATOM     14  C   UNL     1      -2.584  15.565  21.932  0.00  0.00    +0.000 A 
ATOM     15  C   UNL     1      -1.296  16.031  21.626  0.00  0.00    +0.000 A 
ATOM     16  C   UNL     1      -0.808  17.188  22.234  0.00  0.00    +0.000 A 
ATOM     17  C   UNL     1      -1.612  17.910  23.114  0.00  0.00    +0.000 A 
ATOM     18  C   UNL     1      -2.919  17.495  23.364  0.00  0.00    +0.000 A 
ATOM     19  C   UNL     1      -3.407  16.330  22.772  0.00  0.00    +0.000 A 
ATOM     20  O   UNL     1      -4.662  15.943  23.174  0.00  0.00    +0.000 OA
ATOM     21  C   UNL     1      -5.177  14.761  22.701  0.00  0.00    +0.000 A 
ATOM     22  C   UNL     1      -6.487  14.465  23.100  0.00  0.00    +0.000 A 
ATOM     23  C   UNL     1      -7.124  13.319  22.628  0.00  0.00    +0.000 A 
ATOM     24  C   UNL     1      -6.455  12.469  21.753  0.00  0.00    +0.000 A 
ATOM     25  C   UNL     1      -5.138  12.749  21.378  0.00  0.00    +0.000 A 
ATOM     26  C   UNL     1      -4.474  13.889  21.870  0.00  0.00    +0.000 A 
ENDBRANCH   4  13
BRANCH   1  29
ATOM     27  C   UNL     1       2.372  13.733  18.381  0.00  0.00    +0.000 C 
ATOM     28  N   UNL     1       1.346  12.747  18.188  0.00  0.00    +0.000 N 
ATOM     29  C   UNL     1       0.048  12.999  18.571  0.00  0.00    +0.000 C 
ATOM     30  O   UNL     1      -0.346  14.113  18.903  0.00  0.00    +0.000 OA
ATOM     31  H   UNL     1       1.617  11.779  18.071  0.00  0.00    +0.000 HD
ENDBRANCH   1  29
TORSDOF 2
ENDMDL
