MODEL 1
REMARK VINA RESULT:      -8.8      0.000      0.000
REMARK  Name = 
REMARK  5 active torsions:
REMARK  status: ('A' for Active; 'I' for Inactive)
REMARK    1  A    between atoms: C_1  and  C_2
REMARK    2  A    between atoms: C_7  and  N_8
REMARK    3  A    between atoms: C_9  and  C_11
REMARK    4  A    between atoms: C_11  and  N_12
REMARK    5  A    between atoms: C_21  and  C_22
REMARK                            x       y       z     vdW  Elec       q    Type
REMARK                         _______ _______ _______ _____ _____    ______ ____
ROOT
ATOM      1  N   UNL     1       9.023   8.964  18.812  0.00  0.00    +0.000 N 
ATOM      2  C   UNL     1       8.006   8.507  17.977  0.00  0.00    +0.000 C 
ATOM      3  O   UNL     1       7.044   9.172  17.602  0.00  0.00    +0.000 OA
ATOM      4  H   UNL     1       9.615   8.256  19.239  0.00  0.00    +0.000 HD
ENDROOT
BRANCH   1  11
ATOM      5  C   UNL     1      10.309  16.559  19.906  0.00  0.00    +0.000 C 
ATOM      6  C   UNL     1      10.402  15.107  19.451  0.00  0.00    +0.000 C 
ATOM      7  O   UNL     1       9.779  14.275  20.434  0.00  0.00    +0.000 OA
ATOM      8  C   UNL     1       9.612  12.983  20.003  0.00  0.00    +0.000 A 
ATOM      9  C   UNL     1       9.402  12.012  20.973  0.00  0.00    +0.000 A 
ATOM     10  C   UNL     1       9.200  10.678  20.596  0.00  0.00    +0.000 A 
ATOM     11  C   UNL     1       9.206  10.299  19.248  0.00  0.00    +0.000 A 
ATOM     12  C   UNL     1       9.371  11.292  18.272  0.00  0.00    +0.000 A 
ATOM     13  C   UNL     1       9.566  12.627  18.651  0.00  0.00    +0.000 A 
ATOM     14  N   UNL     1       9.642  13.626  17.675  0.00  0.00    +0.000 N 
ATOM     15  C   UNL     1       9.861  14.935  18.025  0.00  0.00    +0.000 C 
ATOM     16  O   UNL     1       9.729  15.844  17.205  0.00  0.00    +0.000 OA
ATOM     17  H   UNL     1       9.406  13.436  16.711  0.00  0.00    +0.000 HD
ENDBRANCH   1  11
BRANCH   2  18
ATOM     18  C   UNL     1       8.103   7.020  17.638  0.00  0.00    +0.000 C 
BRANCH  18  19
ATOM     19  N   UNL     1       6.822   6.402  17.892  0.00  0.00    +0.000 N 
ATOM     20  C   UNL     1       6.532   5.731  19.036  0.00  0.00    +0.000 C 
ATOM     21  O   UNL     1       7.291   5.539  19.973  0.00  0.00    +0.000 OA
ATOM     22  N   UNL     1       5.234   5.296  18.975  0.00  0.00    +0.000 N 
ATOM     23  C   UNL     1       4.566   5.704  17.753  0.00  0.00    +0.000 C 
ATOM     24  C   UNL     1       3.488   6.766  18.032  0.00  0.00    +0.000 C 
ATOM     25  C   UNL     1       2.267   6.180  18.736  0.00  0.00    +0.000 C 
ATOM     26  C   UNL     1       1.695   4.990  17.973  0.00  0.00    +0.000 C 
ATOM     27  C   UNL     1       2.756   3.928  17.693  0.00  0.00    +0.000 C 
ATOM     28  C   UNL     1       3.983   4.511  16.966  0.00  0.00    +0.000 C 
ATOM     29  C   UNL     1       5.000   3.396  16.698  0.00  0.00    +0.000 C 
ATOM     30  C   UNL     1       5.753   6.390  17.038  0.00  0.00    +0.000 C 
ATOM     31  O   UNL     1       5.723   6.850  15.905  0.00  0.00    +0.000 OA
ATOM     32  H   UNL     1       4.820   4.757  19.725  0.00  0.00    +0.000 HD
ENDBRANCH  18  19
ENDBRANCH   2  18
TORSDOF 3
ENDMDL
MODEL 2
REMARK VINA RESULT:      -8.8      1.350      1.610
REMARK  Name = 
REMARK  5 active torsions:
REMARK  status: ('A' for Active; 'I' for Inactive)
REMARK    1  A    between atoms: C_1  and  C_2
REMARK    2  A    between atoms: C_7  and  N_8
REMARK    3  A    between atoms: C_9  and  C_11
REMARK    4  A    between atoms: C_11  and  N_12
REMARK    5  A    between atoms: C_21  and  C_22
REMARK                            x       y       z     vdW  Elec       q    Type
REMARK                         _______ _______ _______ _____ _____    ______ ____
ROOT
ATOM      1  N   UNL     1       7.754   8.694  17.328  0.00  0.00    +0.000 N 
ATOM      2  C   UNL     1       7.617   7.385  17.785  0.00  0.00    +0.000 C 
ATOM      3  O   UNL     1       8.127   6.934  18.806  0.00  0.00    +0.000 OA
ATOM      4  H   UNL     1       7.491   8.869  16.361  0.00  0.00    +0.000 HD
ENDROOT
BRANCH   1  11
ATOM      5  C   UNL     1      10.891  15.272  20.054  0.00  0.00    +0.000 C 
ATOM      6  C   UNL     1      10.486  14.096  19.171  0.00  0.00    +0.000 C 
ATOM      7  O   UNL     1      10.187  12.974  20.005  0.00  0.00    +0.000 OA
ATOM      8  C   UNL     1       9.595  11.946  19.317  0.00  0.00    +0.000 A 
ATOM      9  C   UNL     1       9.628  10.687  19.901  0.00  0.00    +0.000 A 
ATOM     10  C   UNL     1       9.019   9.601  19.258  0.00  0.00    +0.000 A 
ATOM     11  C   UNL     1       8.371   9.760  18.027  0.00  0.00    +0.000 A 
ATOM     12  C   UNL     1       8.301  11.042  17.466  0.00  0.00    +0.000 A 
ATOM     13  C   UNL     1       8.905  12.129  18.113  0.00  0.00    +0.000 A 
ATOM     14  N   UNL     1       8.757  13.419  17.596  0.00  0.00    +0.000 N 
ATOM     15  C   UNL     1       9.364  14.492  18.200  0.00  0.00    +0.000 C 
ATOM     16  O   UNL     1       9.082  15.648  17.880  0.00  0.00    +0.000 OA
ATOM     17  H   UNL     1       8.099  13.616  16.854  0.00  0.00    +0.000 HD
ENDBRANCH   1  11
BRANCH   2  18
ATOM     18  C   UNL     1       6.854   6.470  16.828  0.00  0.00    +0.000 C 
BRANCH  18  19
ATOM     19  N   UNL     1       5.797   5.813  17.560  0.00  0.00    +0.000 N 
ATOM     20  C   UNL     1       6.000   4.725  18.347  0.00  0.00    +0.000 C 
ATOM     21  O   UNL     1       7.063   4.152  18.527  0.00  0.00    +0.000 OA
ATOM     22  N   UNL     1       4.807   4.366  18.918  0.00  0.00    +0.000 N 
ATOM     23  C   UNL     1       3.721   5.254  18.548  0.00  0.00    +0.000 C 
ATOM     24  C   UNL     1       3.265   6.109  19.743  0.00  0.00    +0.000 C 
ATOM     25  C   UNL     1       2.502   5.291  20.782  0.00  0.00    +0.000 C 
ATOM     26  C   UNL     1       1.335   4.535  20.157  0.00  0.00    +0.000 C 
ATOM     27  C   UNL     1       1.776   3.682  18.971  0.00  0.00    +0.000 C 
ATOM     28  C   UNL     1       2.531   4.507  17.911  0.00  0.00    +0.000 C 
ATOM     29  C   UNL     1       2.930   3.599  16.741  0.00  0.00    +0.000 C 
ATOM     30  C   UNL     1       4.476   6.168  17.555  0.00  0.00    +0.000 C 
ATOM     31  O   UNL     1       3.967   7.061  16.893  0.00  0.00    +0.000 OA
ATOM     32  H   UNL     1       4.734   3.565  19.532  0.00  0.00    +0.000 HD
ENDBRANCH  18  19
ENDBRANCH   2  18
TORSDOF 3
ENDMDL
MODEL 3
REMARK VINA RESULT:      -8.7      1.041      2.071
REMARK  Name = 
REMARK  5 active torsions:
REMARK  status: ('A' for Active; 'I' for Inactive)
REMARK    1  A    between atoms: C_1  and  C_2
REMARK    2  A    between atoms: C_7  and  N_8
REMARK    3  A    between atoms: C_9  and  C_11
REMARK    4  A    between atoms: C_11  and  N_12
REMARK    5  A    between atoms: C_21  and  C_22
REMARK                            x       y       z     vdW  Elec       q    Type
REMARK                         _______ _______ _______ _____ _____    ______ ____
ROOT
ATOM      1  N   UNL     1       8.836   8.341  18.761  0.00  0.00    +0.000 N 
ATOM      2  C   UNL     1       7.840   7.888  17.899  0.00  0.00    +0.000 C 
ATOM      3  O   UNL     1       6.962   8.587  17.401  0.00  0.00    +0.000 OA
ATOM      4  H   UNL     1       9.340   7.632  19.287  0.00  0.00    +0.000 HD
ENDROOT
BRANCH   1  11
ATOM      5  C   UNL     1      10.889  15.821  19.369  0.00  0.00    +0.000 C 
ATOM      6  C   UNL     1      10.880  14.320  19.099  0.00  0.00    +0.000 C 
ATOM      7  O   UNL     1       9.937  13.700  19.976  0.00  0.00    +0.000 OA
ATOM      8  C   UNL     1       9.693  12.390  19.650  0.00  0.00    +0.000 A 
ATOM      9  C   UNL     1       9.132  11.584  20.632  0.00  0.00    +0.000 A 
ATOM     10  C   UNL     1       8.837  10.244  20.352  0.00  0.00    +0.000 A 
ATOM     11  C   UNL     1       9.099   9.693  19.091  0.00  0.00    +0.000 A 
ATOM     12  C   UNL     1       9.623  10.524  18.091  0.00  0.00    +0.000 A 
ATOM     13  C   UNL     1       9.911  11.867  18.371  0.00  0.00    +0.000 A 
ATOM     14  N   UNL     1      10.349  12.714  17.348  0.00  0.00    +0.000 N 
ATOM     15  C   UNL     1      10.663  14.025  17.608  0.00  0.00    +0.000 C 
ATOM     16  O   UNL     1      10.853  14.828  16.694  0.00  0.00    +0.000 OA
ATOM     17  H   UNL     1      10.317  12.428  16.379  0.00  0.00    +0.000 HD
ENDBRANCH   1  11
BRANCH   2  18
ATOM     18  C   UNL     1       7.836   6.373  17.696  0.00  0.00    +0.000 C 
BRANCH  18  19
ATOM     19  N   UNL     1       6.471   5.930  17.541  0.00  0.00    +0.000 N 
ATOM     20  C   UNL     1       5.849   5.838  16.338  0.00  0.00    +0.000 C 
ATOM     21  O   UNL     1       6.329   6.128  15.252  0.00  0.00    +0.000 OA
ATOM     22  N   UNL     1       4.579   5.362  16.533  0.00  0.00    +0.000 N 
ATOM     23  C   UNL     1       4.299   5.073  17.927  0.00  0.00    +0.000 C 
ATOM     24  C   UNL     1       4.181   3.558  18.172  0.00  0.00    +0.000 C 
ATOM     25  C   UNL     1       2.895   2.977  17.591  0.00  0.00    +0.000 C 
ATOM     26  C   UNL     1       1.663   3.723  18.093  0.00  0.00    +0.000 C 
ATOM     27  C   UNL     1       1.769   5.227  17.854  0.00  0.00    +0.000 C 
ATOM     28  C   UNL     1       3.057   5.821  18.454  0.00  0.00    +0.000 C 
ATOM     29  C   UNL     1       3.096   7.332  18.196  0.00  0.00    +0.000 C 
ATOM     30  C   UNL     1       5.625   5.565  18.553  0.00  0.00    +0.000 C 
ATOM     31  O   UNL     1       5.867   5.605  19.751  0.00  0.00    +0.000 OA
ATOM     32  H   UNL     1       3.937   5.233  15.761  0.00  0.00    +0.000 HD
ENDBRANCH  18  19
ENDBRANCH   2  18
TORSDOF 3
ENDMDL
MODEL 4
REMARK VINA RESULT:      -8.6      1.457      2.714
REMARK  Name = 
REMARK  5 active torsions:
REMARK  status: ('A' for Active; 'I' for Inactive)
REMARK    1  A    between atoms: C_1  and  C_2
REMARK    2  A    between atoms: C_7  and  N_8
REMARK    3  A    between atoms: C_9  and  C_11
REMARK    4  A    between atoms: C_11  and  N_12
REMARK    5  A    between atoms: C_21  and  C_22
REMARK                            x       y       z     vdW  Elec       q    Type
REMARK                         _______ _______ _______ _____ _____    ______ ____
ROOT
ATOM      1  N   UNL     1       8.779   8.413  18.745  0.00  0.00    +0.000 N 
ATOM      2  C   UNL     1       7.834   7.807  17.920  0.00  0.00    +0.000 C 
ATOM      3  O   UNL     1       6.977   8.399  17.272  0.00  0.00    +0.000 OA
ATOM      4  H   UNL     1       9.263   7.809  19.405  0.00  0.00    +0.000 HD
ENDROOT
BRANCH   1  11
ATOM      5  C   UNL     1       9.642  15.904  20.665  0.00  0.00    +0.000 C 
ATOM      6  C   UNL     1       9.113  14.483  20.505  0.00  0.00    +0.000 C 
ATOM      7  O   UNL     1       9.658  13.920  19.309  0.00  0.00    +0.000 OA
ATOM      8  C   UNL     1       9.422  12.572  19.204  0.00  0.00    +0.000 A 
ATOM      9  C   UNL     1       9.535  12.003  17.942  0.00  0.00    +0.000 A 
ATOM     10  C   UNL     1       9.330  10.628  17.774  0.00  0.00    +0.000 A 
ATOM     11  C   UNL     1       9.011   9.806  18.862  0.00  0.00    +0.000 A 
ATOM     12  C   UNL     1       8.946  10.378  20.139  0.00  0.00    +0.000 A 
ATOM     13  C   UNL     1       9.157  11.754  20.307  0.00  0.00    +0.000 A 
ATOM     14  N   UNL     1       9.178  12.305  21.592  0.00  0.00    +0.000 N 
ATOM     15  C   UNL     1       9.356  13.654  21.774  0.00  0.00    +0.000 C 
ATOM     16  O   UNL     1       9.577  14.122  22.892  0.00  0.00    +0.000 OA
ATOM     17  H   UNL     1       9.199  11.719  22.415  0.00  0.00    +0.000 HD
ENDBRANCH   1  11
BRANCH   2  18
ATOM     18  C   UNL     1       7.857   6.280  17.969  0.00  0.00    +0.000 C 
BRANCH  18  19
ATOM     19  N   UNL     1       6.519   5.789  17.731  0.00  0.00    +0.000 N 
ATOM     20  C   UNL     1       5.996   5.625  16.489  0.00  0.00    +0.000 C 
ATOM     21  O   UNL     1       6.551   5.879  15.432  0.00  0.00    +0.000 OA
ATOM     22  N   UNL     1       4.727   5.119  16.609  0.00  0.00    +0.000 N 
ATOM     23  C   UNL     1       4.348   4.885  17.990  0.00  0.00    +0.000 C 
ATOM     24  C   UNL     1       4.251   3.380  18.296  0.00  0.00    +0.000 C 
ATOM     25  C   UNL     1       3.029   2.735  17.646  0.00  0.00    +0.000 C 
ATOM     26  C   UNL     1       1.743   3.466  18.016  0.00  0.00    +0.000 C 
ATOM     27  C   UNL     1       1.828   4.960  17.715  0.00  0.00    +0.000 C 
ATOM     28  C   UNL     1       3.049   5.619  18.383  0.00  0.00    +0.000 C 
ATOM     29  C   UNL     1       3.067   7.118  18.058  0.00  0.00    +0.000 C 
ATOM     30  C   UNL     1       5.607   5.445  18.691  0.00  0.00    +0.000 C 
ATOM     31  O   UNL     1       5.754   5.546  19.901  0.00  0.00    +0.000 OA
ATOM     32  H   UNL     1       4.151   4.937  15.797  0.00  0.00    +0.000 HD
ENDBRANCH  18  19
ENDBRANCH   2  18
TORSDOF 3
ENDMDL
MODEL 5
REMARK VINA RESULT:      -8.5      6.062      7.610
REMARK  Name = 
REMARK  5 active torsions:
REMARK  status: ('A' for Active; 'I' for Inactive)
REMARK    1  A    between atoms: C_1  and  C_2
REMARK    2  A    between atoms: C_7  and  N_8
REMARK    3  A    between atoms: C_9  and  C_11
REMARK    4  A    between atoms: C_11  and  N_12
REMARK    5  A    between atoms: C_21  and  C_22
REMARK                            x       y       z     vdW  Elec       q    Type
REMARK                         _______ _______ _______ _____ _____    ______ ____
ROOT
ATOM      1  N   UNL     1       2.756   6.545  19.853  0.00  0.00    +0.000 N 
ATOM      2  C   UNL     1       2.270   5.297  20.236  0.00  0.00    +0.000 C 
ATOM      3  O   UNL     1       1.153   5.084  20.699  0.00  0.00    +0.000 OA
ATOM      4  H   UNL     1       3.762   6.621  19.720  0.00  0.00    +0.000 HD
ENDROOT
BRANCH   1  11
ATOM      5  C   UNL     1      -1.660  12.882  20.787  0.00  0.00    +0.000 C 
ATOM      6  C   UNL     1      -1.113  11.459  20.815  0.00  0.00    +0.000 C 
ATOM      7  O   UNL     1      -0.239  11.279  19.698  0.00  0.00    +0.000 OA
ATOM      8  C   UNL     1       0.476  10.111  19.769  0.00  0.00    +0.000 A 
ATOM      9  C   UNL     1       1.034   9.634  18.590  0.00  0.00    +0.000 A 
ATOM     10  C   UNL     1       1.796   8.459  18.601  0.00  0.00    +0.000 A 
ATOM     11  C   UNL     1       2.009   7.746  19.788  0.00  0.00    +0.000 A 
ATOM     12  C   UNL     1       1.482   8.257  20.982  0.00  0.00    +0.000 A 
ATOM     13  C   UNL     1       0.726   9.438  20.970  0.00  0.00    +0.000 A 
ATOM     14  N   UNL     1       0.277   9.992  22.173  0.00  0.00    +0.000 N 
ATOM     15  C   UNL     1      -0.489  11.131  22.179  0.00  0.00    +0.000 C 
ATOM     16  O   UNL     1      -0.719  11.738  23.226  0.00  0.00    +0.000 OA
ATOM     17  H   UNL     1       0.611   9.652  23.064  0.00  0.00    +0.000 HD
ENDBRANCH   1  11
BRANCH   2  18
ATOM     18  C   UNL     1       3.305   4.175  20.153  0.00  0.00    +0.000 C 
BRANCH  18  19
ATOM     19  N   UNL     1       4.162   4.420  19.017  0.00  0.00    +0.000 N 
ATOM     20  C   UNL     1       5.503   4.603  19.121  0.00  0.00    +0.000 C 
ATOM     21  O   UNL     1       6.153   4.611  20.155  0.00  0.00    +0.000 OA
ATOM     22  N   UNL     1       6.023   4.781  17.865  0.00  0.00    +0.000 N 
ATOM     23  C   UNL     1       5.014   4.686  16.825  0.00  0.00    +0.000 C 
ATOM     24  C   UNL     1       5.194   3.409  15.987  0.00  0.00    +0.000 C 
ATOM     25  C   UNL     1       6.412   3.485  15.070  0.00  0.00    +0.000 C 
ATOM     26  C   UNL     1       6.379   4.731  14.192  0.00  0.00    +0.000 C 
ATOM     27  C   UNL     1       6.203   6.005  15.014  0.00  0.00    +0.000 C 
ATOM     28  C   UNL     1       4.964   5.940  15.928  0.00  0.00    +0.000 C 
ATOM     29  C   UNL     1       4.834   7.252  16.712  0.00  0.00    +0.000 C 
ATOM     30  C   UNL     1       3.759   4.515  17.713  0.00  0.00    +0.000 C 
ATOM     31  O   UNL     1       2.609   4.462  17.303  0.00  0.00    +0.000 OA
ATOM     32  H   UNL     1       7.010   4.951  17.719  0.00  0.00    +0.000 HD
ENDBRANCH  18  19
ENDBRANCH   2  18
TORSDOF 3
ENDMDL
MODEL 6
REMARK VINA RESULT:      -8.5      6.141      7.972
REMARK  Name = 
REMARK  5 active torsions:
REMARK  status: ('A' for Active; 'I' for Inactive)
REMARK    1  A    between atoms: C_1  and  C_2
REMARK    2  A    between atoms: C_7  and  N_8
REMARK    3  A    between atoms: C_9  and  C_11
REMARK    4  A    between atoms: C_11  and  N_12
REMARK    5  A    between atoms: C_21  and  C_22
REMARK                            x       y       z     vdW  Elec       q    Type
REMARK                         _______ _______ _______ _____ _____    ______ ____
ROOT
ATOM      1  N   UNL     1       2.055   6.861  20.999  0.00  0.00    +0.000 N 
ATOM      2  C   UNL     1       1.817   5.636  20.379  0.00  0.00    +0.000 C 
ATOM      3  O   UNL     1       0.899   5.404  19.598  0.00  0.00    +0.000 OA
ATOM      4  H   UNL     1       2.686   6.853  21.796  0.00  0.00    +0.000 HD
ENDROOT
BRANCH   1  11
ATOM      5  C   UNL     1      -2.194  13.373  20.723  0.00  0.00    +0.000 C 
ATOM      6  C   UNL     1      -1.720  11.940  20.936  0.00  0.00    +0.000 C 
ATOM      7  O   UNL     1      -0.664  11.662  20.013  0.00  0.00    +0.000 OA
ATOM      8  C   UNL     1      -0.023  10.479  20.284  0.00  0.00    +0.000 A 
ATOM      9  C   UNL     1       0.723   9.911  19.259  0.00  0.00    +0.000 A 
ATOM     10  C   UNL     1       1.420   8.717  19.481  0.00  0.00    +0.000 A 
ATOM     11  C   UNL     1       1.382   8.077  20.726  0.00  0.00    +0.000 A 
ATOM     12  C   UNL     1       0.666   8.680  21.769  0.00  0.00    +0.000 A 
ATOM     13  C   UNL     1      -0.026   9.879  21.547  0.00  0.00    +0.000 A 
ATOM     14  N   UNL     1      -0.665  10.523  22.611  0.00  0.00    +0.000 N 
ATOM     15  C   UNL     1      -1.371  11.682  22.409  0.00  0.00    +0.000 C 
ATOM     16  O   UNL     1      -1.764  12.363  23.357  0.00  0.00    +0.000 OA
ATOM     17  H   UNL     1      -0.514  10.232  23.568  0.00  0.00    +0.000 HD
ENDBRANCH   1  11
BRANCH   2  18
ATOM     18  C   UNL     1       2.743   4.514  20.847  0.00  0.00    +0.000 C 
BRANCH  18  19
ATOM     19  N   UNL     1       3.776   4.323  19.856  0.00  0.00    +0.000 N 
ATOM     20  C   UNL     1       4.469   3.164  19.716  0.00  0.00    +0.000 C 
ATOM     21  O   UNL     1       4.341   2.158  20.396  0.00  0.00    +0.000 OA
ATOM     22  N   UNL     1       5.350   3.300  18.674  0.00  0.00    +0.000 N 
ATOM     23  C   UNL     1       5.254   4.597  18.029  0.00  0.00    +0.000 C 
ATOM     24  C   UNL     1       4.650   4.476  16.619  0.00  0.00    +0.000 C 
ATOM     25  C   UNL     1       5.618   3.836  15.627  0.00  0.00    +0.000 C 
ATOM     26  C   UNL     1       6.959   4.561  15.601  0.00  0.00    +0.000 C 
ATOM     27  C   UNL     1       7.569   4.684  16.995  0.00  0.00    +0.000 C 
ATOM     28  C   UNL     1       6.602   5.347  17.996  0.00  0.00    +0.000 C 
ATOM     29  C   UNL     1       7.278   5.457  19.368  0.00  0.00    +0.000 C 
ATOM     30  C   UNL     1       4.206   5.257  18.954  0.00  0.00    +0.000 C 
ATOM     31  O   UNL     1       3.826   6.417  18.873  0.00  0.00    +0.000 OA
ATOM     32  H   UNL     1       5.978   2.552  18.410  0.00  0.00    +0.000 HD
ENDBRANCH  18  19
ENDBRANCH   2  18
TORSDOF 3
ENDMDL
MODEL 7
REMARK VINA RESULT:      -8.5      6.537     10.638
REMARK  Name = 
REMARK  5 active torsions:
REMARK  status: ('A' for Active; 'I' for Inactive)
REMARK    1  A    between atoms: C_1  and  C_2
REMARK    2  A    between atoms: C_7  and  N_8
REMARK    3  A    between atoms: C_9  and  C_11
REMARK    4  A    between atoms: C_11  and  N_12
REMARK    5  A    between atoms: C_21  and  C_22
REMARK                            x       y       z     vdW  Elec       q    Type
REMARK                         _______ _______ _______ _____ _____    ______ ____
ROOT
ATOM      1  N   UNL     1       0.478  10.509  19.697  0.00  0.00    +0.000 N 
ATOM      2  C   UNL     1       0.575  11.190  20.908  0.00  0.00    +0.000 C 
ATOM      3  O   UNL     1       1.237  10.825  21.876  0.00  0.00    +0.000 OA
ATOM      4  H   UNL     1      -0.282  10.782  19.080  0.00  0.00    +0.000 HD
ENDROOT
BRANCH   1  11
ATOM      5  C   UNL     1       4.413   3.845  18.888  0.00  0.00    +0.000 C 
ATOM      6  C   UNL     1       3.850   5.161  19.415  0.00  0.00    +0.000 C 
ATOM      7  O   UNL     1       3.461   5.973  18.304  0.00  0.00    +0.000 OA
ATOM      8  C   UNL     1       2.735   7.074  18.682  0.00  0.00    +0.000 A 
ATOM      9  C   UNL     1       2.651   8.123  17.776  0.00  0.00    +0.000 A 
ATOM     10  C   UNL     1       1.904   9.264  18.095  0.00  0.00    +0.000 A 
ATOM     11  C   UNL     1       1.233   9.372  19.319  0.00  0.00    +0.000 A 
ATOM     12  C   UNL     1       1.283   8.290  20.209  0.00  0.00    +0.000 A 
ATOM     13  C   UNL     1       2.026   7.146  19.887  0.00  0.00    +0.000 A 
ATOM     14  N   UNL     1       2.002   6.035  20.736  0.00  0.00    +0.000 N 
ATOM     15  C   UNL     1       2.744   4.917  20.452  0.00  0.00    +0.000 C 
ATOM     16  O   UNL     1       2.579   3.867  21.074  0.00  0.00    +0.000 OA
ATOM     17  H   UNL     1       1.343   5.973  21.500  0.00  0.00    +0.000 HD
ENDBRANCH   1  11
BRANCH   2  18
ATOM     18  C   UNL     1      -0.332  12.416  21.005  0.00  0.00    +0.000 C 
BRANCH  18  19
ATOM     19  N   UNL     1       0.351  13.545  20.419  0.00  0.00    +0.000 N 
ATOM     20  C   UNL     1       1.082  14.431  21.142  0.00  0.00    +0.000 C 
ATOM     21  O   UNL     1       1.244  14.417  22.352  0.00  0.00    +0.000 OA
ATOM     22  N   UNL     1       1.620  15.360  20.288  0.00  0.00    +0.000 N 
ATOM     23  C   UNL     1       1.284  15.102  18.900  0.00  0.00    +0.000 C 
ATOM     24  C   UNL     1       2.517  14.645  18.102  0.00  0.00    +0.000 C 
ATOM     25  C   UNL     1       3.502  15.785  17.855  0.00  0.00    +0.000 C 
ATOM     26  C   UNL     1       2.824  16.983  17.201  0.00  0.00    +0.000 C 
ATOM     27  C   UNL     1       1.599  17.447  17.986  0.00  0.00    +0.000 C 
ATOM     28  C   UNL     1       0.594  16.304  18.222  0.00  0.00    +0.000 C 
ATOM     29  C   UNL     1      -0.617  16.836  18.998  0.00  0.00    +0.000 C 
ATOM     30  C   UNL     1       0.349  13.885  19.093  0.00  0.00    +0.000 C 
ATOM     31  O   UNL     1      -0.271  13.325  18.201  0.00  0.00    +0.000 OA
ATOM     32  H   UNL     1       2.190  16.124  20.628  0.00  0.00    +0.000 HD
ENDBRANCH  18  19
ENDBRANCH   2  18
TORSDOF 3
ENDMDL
MODEL 8
REMARK VINA RESULT:      -8.4      1.692      2.842
REMARK  Name = 
REMARK  5 active torsions:
REMARK  status: ('A' for Active; 'I' for Inactive)
REMARK    1  A    between atoms: C_1  and  C_2
REMARK    2  A    between atoms: C_7  and  N_8
REMARK    3  A    between atoms: C_9  and  C_11
REMARK    4  A    between atoms: C_11  and  N_12
REMARK    5  A    between atoms: C_21  and  C_22
REMARK                            x       y       z     vdW  Elec       q    Type
REMARK                         _______ _______ _______ _____ _____    ______ ____
ROOT
ATOM      1  N   UNL     1       8.247   7.694  18.341  0.00  0.00    +0.000 N 
ATOM      2  C   UNL     1       7.423   6.918  17.529  0.00  0.00    +0.000 C 
ATOM      3  O   UNL     1       6.629   7.355  16.702  0.00  0.00    +0.000 OA
ATOM      4  H   UNL     1       8.669   7.228  19.140  0.00  0.00    +0.000 HD
ENDROOT
BRANCH   1  11
ATOM      5  C   UNL     1      10.065  15.240  18.881  0.00  0.00    +0.000 C 
ATOM      6  C   UNL     1       9.696  13.794  19.196  0.00  0.00    +0.000 C 
ATOM      7  O   UNL     1       9.000  13.241  18.076  0.00  0.00    +0.000 OA
ATOM      8  C   UNL     1       8.833  11.883  18.176  0.00  0.00    +0.000 A 
ATOM      9  C   UNL     1       7.849  11.304  17.385  0.00  0.00    +0.000 A 
ATOM     10  C   UNL     1       7.647   9.918  17.424  0.00  0.00    +0.000 A 
ATOM     11  C   UNL     1       8.421   9.097  18.252  0.00  0.00    +0.000 A 
ATOM     12  C   UNL     1       9.443   9.682  19.012  0.00  0.00    +0.000 A 
ATOM     13  C   UNL     1       9.649  11.068  18.967  0.00  0.00    +0.000 A 
ATOM     14  N   UNL     1      10.724  11.636  19.658  0.00  0.00    +0.000 N 
ATOM     15  C   UNL     1      10.926  12.994  19.649  0.00  0.00    +0.000 C 
ATOM     16  O   UNL     1      11.971  13.485  20.078  0.00  0.00    +0.000 OA
ATOM     17  H   UNL     1      11.450  11.062  20.064  0.00  0.00    +0.000 HD
ENDBRANCH   1  11
BRANCH   2  18
ATOM     18  C   UNL     1       7.487   5.421  17.831  0.00  0.00    +0.000 C 
BRANCH  18  19
ATOM     19  N   UNL     1       6.153   4.874  17.747  0.00  0.00    +0.000 N 
ATOM     20  C   UNL     1       5.626   4.366  16.605  0.00  0.00    +0.000 C 
ATOM     21  O   UNL     1       6.175   4.317  15.514  0.00  0.00    +0.000 OA
ATOM     22  N   UNL     1       4.362   3.905  16.868  0.00  0.00    +0.000 N 
ATOM     23  C   UNL     1       3.990   4.065  18.262  0.00  0.00    +0.000 C 
ATOM     24  C   UNL     1       3.906   2.705  18.977  0.00  0.00    +0.000 C 
ATOM     25  C   UNL     1       2.687   1.896  18.542  0.00  0.00    +0.000 C 
ATOM     26  C   UNL     1       1.397   2.692  18.700  0.00  0.00    +0.000 C 
ATOM     27  C   UNL     1       1.468   4.043  17.992  0.00  0.00    +0.000 C 
ATOM     28  C   UNL     1       2.687   4.871  18.442  0.00  0.00    +0.000 C 
ATOM     29  C   UNL     1       2.692   6.219  17.711  0.00  0.00    +0.000 C 
ATOM     30  C   UNL     1       5.247   4.807  18.771  0.00  0.00    +0.000 C 
ATOM     31  O   UNL     1       5.398   5.243  19.903  0.00  0.00    +0.000 OA
ATOM     32  H   UNL     1       3.784   3.499  16.143  0.00  0.00    +0.000 HD
ENDBRANCH  18  19
ENDBRANCH   2  18
TORSDOF 3
ENDMDL
MODEL 9
REMARK VINA RESULT:      -8.2      6.646     10.206
REMARK  Name = 
REMARK  5 active torsions:
REMARK  status: ('A' for Active; 'I' for Inactive)
REMARK    1  A    between atoms: C_1  and  C_2
REMARK    2  A    between atoms: C_7  and  N_8
REMARK    3  A    between atoms: C_9  and  C_11
REMARK    4  A    between atoms: C_11  and  N_12
REMARK    5  A    between atoms: C_21  and  C_22
REMARK                            x       y       z     vdW  Elec       q    Type
REMARK                         _______ _______ _______ _____ _____    ______ ____
ROOT
ATOM      1  N   UNL     1       1.430   9.625  19.295  0.00  0.00    +0.000 N 
ATOM      2  C   UNL     1       1.156  10.259  20.504  0.00  0.00    +0.000 C 
ATOM      3  O   UNL     1       1.194   9.725  21.609  0.00  0.00    +0.000 OA
ATOM      4  H   UNL     1       1.127  10.104  18.450  0.00  0.00    +0.000 HD
ENDROOT
BRANCH   1  11
ATOM      5  C   UNL     1       3.963   2.283  19.761  0.00  0.00    +0.000 C 
ATOM      6  C   UNL     1       3.678   3.756  20.034  0.00  0.00    +0.000 C 
ATOM      7  O   UNL     1       3.439   4.418  18.789  0.00  0.00    +0.000 OA
ATOM      8  C   UNL     1       2.950   5.689  18.951  0.00  0.00    +0.000 A 
ATOM      9  C   UNL     1       3.060   6.556  17.872  0.00  0.00    +0.000 A 
ATOM     10  C   UNL     1       2.557   7.860  17.967  0.00  0.00    +0.000 A 
ATOM     11  C   UNL     1       1.940   8.313  19.140  0.00  0.00    +0.000 A 
ATOM     12  C   UNL     1       1.791   7.419  20.209  0.00  0.00    +0.000 A 
ATOM     13  C   UNL     1       2.288   6.112  20.109  0.00  0.00    +0.000 A 
ATOM     14  N   UNL     1       2.060   5.198  21.142  0.00  0.00    +0.000 N 
ATOM     15  C   UNL     1       2.563   3.922  21.075  0.00  0.00    +0.000 C 
ATOM     16  O   UNL     1       2.204   3.054  21.871  0.00  0.00    +0.000 OA
ATOM     17  H   UNL     1       1.413   5.403  21.892  0.00  0.00    +0.000 HD
ENDBRANCH   1  11
BRANCH   2  18
ATOM     18  C   UNL     1       0.664  11.699  20.353  0.00  0.00    +0.000 C 
BRANCH  18  19
ATOM     19  N   UNL     1      -0.367  11.732  19.343  0.00  0.00    +0.000 N 
ATOM     20  C   UNL     1      -0.496  12.740  18.443  0.00  0.00    +0.000 C 
ATOM     21  O   UNL     1       0.201  13.740  18.373  0.00  0.00    +0.000 OA
ATOM     22  N   UNL     1      -1.548  12.456  17.611  0.00  0.00    +0.000 N 
ATOM     23  C   UNL     1      -2.169  11.179  17.912  0.00  0.00    +0.000 C 
ATOM     24  C   UNL     1      -1.889  10.147  16.806  0.00  0.00    +0.000 C 
ATOM     25  C   UNL     1      -2.667  10.444  15.526  0.00  0.00    +0.000 C 
ATOM     26  C   UNL     1      -4.161  10.586  15.796  0.00  0.00    +0.000 C 
ATOM     27  C   UNL     1      -4.450  11.610  16.891  0.00  0.00    +0.000 C 
ATOM     28  C   UNL     1      -3.681  11.304  18.190  0.00  0.00    +0.000 C 
ATOM     29  C   UNL     1      -4.027  12.354  19.252  0.00  0.00    +0.000 C 
ATOM     30  C   UNL     1      -1.344  10.791  19.161  0.00  0.00    +0.000 C 
ATOM     31  O   UNL     1      -1.536   9.801  19.852  0.00  0.00    +0.000 OA
ATOM     32  H   UNL     1      -1.826  13.091  16.873  0.00  0.00    +0.000 HD
ENDBRANCH  18  19
ENDBRANCH   2  18
TORSDOF 3
ENDMDL
