MODEL 1
REMARK VINA RESULT:      -8.8      0.000      0.000
REMARK  Name = 
REMARK  4 active torsions:
REMARK  status: ('A' for Active; 'I' for Inactive)
REMARK    1  A    between atoms: C_1  and  C_2
REMARK    2  A    between atoms: C_4  and  C_5
REMARK    3  A    between atoms: C_13  and  C_14
REMARK    4  A    between atoms: N_22  and  C_23
REMARK                            x       y       z     vdW  Elec       q    Type
REMARK                         _______ _______ _______ _____ _____    ______ ____
ROOT
ATOM      1  C   UNL     1       0.620  10.081  21.944  0.00  0.00    +0.000 C 
ATOM      2  O   UNL     1       1.151   9.404  22.827  0.00  0.00    +0.000 OA
ATOM      3  N   UNL     1       0.867   9.881  20.554  0.00  0.00    +0.000 N 
ATOM      4  C   UNL     1       0.523  10.914  19.568  0.00  0.00    +0.000 C 
ATOM      5  C   UNL     1       1.592  11.097  18.511  0.00  0.00    +0.000 C 
ATOM      6  C   UNL     1       1.793   9.807  17.754  0.00  0.00    +0.000 C 
ATOM      7  C   UNL     1       1.878   8.620  18.676  0.00  0.00    +0.000 A 
ATOM      8  C   UNL     1       2.384   7.424  18.123  0.00  0.00    +0.000 A 
ATOM      9  C   UNL     1       2.482   6.257  18.884  0.00  0.00    +0.000 A 
ATOM     10  C   UNL     1       2.061   6.301  20.215  0.00  0.00    +0.000 A 
ATOM     11  C   UNL     1       1.551   7.490  20.772  0.00  0.00    +0.000 A 
ATOM     12  C   UNL     1       1.444   8.667  20.019  0.00  0.00    +0.000 A 
ENDROOT
BRANCH   1  16
ATOM     13  C   UNL     1      -1.047  14.562  23.183  0.00  0.00    +0.000 C 
ATOM     14  C   UNL     1      -1.032  13.147  22.739  0.00  0.00    +0.000 A 
ATOM     15  N   UNL     1       0.024  12.523  22.271  0.00  0.00    +0.000 NA
ATOM     16  C   UNL     1      -0.317  11.184  22.326  0.00  0.00    +0.000 A 
ATOM     17  N   UNL     1      -1.573  10.981  22.772  0.00  0.00    +0.000 NA
ATOM     18  N   UNL     1      -2.066  12.239  22.895  0.00  0.00    +0.000 N 
BRANCH  18  19
ATOM     19  C   UNL     1      -3.448  12.475  23.125  0.00  0.00    +0.000 A 
ATOM     20  C   UNL     1      -3.976  12.360  24.421  0.00  0.00    +0.000 A 
ATOM     21  C   UNL     1      -5.339  12.587  24.641  0.00  0.00    +0.000 A 
ATOM     22  C   UNL     1      -6.170  12.897  23.570  0.00  0.00    +0.000 A 
ATOM     23  F   UNL     1      -7.477  13.103  23.778  0.00  0.00    +0.000 F 
ATOM     24  C   UNL     1      -5.666  12.980  22.278  0.00  0.00    +0.000 A 
ATOM     25  C   UNL     1      -4.304  12.771  22.054  0.00  0.00    +0.000 A 
ENDBRANCH  18  19
ENDBRANCH   1  16
BRANCH   9  26
ATOM     26  C   UNL     1       3.011   4.977  18.286  0.00  0.00    +0.000 C 
ATOM     27  F   UNL     1       2.068   4.265  17.607  0.00  0.00    +0.000 F 
ATOM     28  F   UNL     1       4.023   5.191  17.399  0.00  0.00    +0.000 F 
ATOM     29  F   UNL     1       3.510   4.129  19.226  0.00  0.00    +0.000 F 
ENDBRANCH   9  26
TORSDOF 3
ENDMDL
MODEL 2
REMARK VINA RESULT:      -8.7      0.423      1.135
REMARK  Name = 
REMARK  4 active torsions:
REMARK  status: ('A' for Active; 'I' for Inactive)
REMARK    1  A    between atoms: C_1  and  C_2
REMARK    2  A    between atoms: C_4  and  C_5
REMARK    3  A    between atoms: C_13  and  C_14
REMARK    4  A    between atoms: N_22  and  C_23
REMARK                            x       y       z     vdW  Elec       q    Type
REMARK                         _______ _______ _______ _____ _____    ______ ____
ROOT
ATOM      1  C   UNL     1       0.784   9.893  21.789  0.00  0.00    +0.000 C 
ATOM      2  O   UNL     1       1.313   9.259  22.704  0.00  0.00    +0.000 OA
ATOM      3  N   UNL     1       1.015   9.612  20.411  0.00  0.00    +0.000 N 
ATOM      4  C   UNL     1       0.676  10.594  19.371  0.00  0.00    +0.000 C 
ATOM      5  C   UNL     1       1.737  10.701  18.296  0.00  0.00    +0.000 C 
ATOM      6  C   UNL     1       1.911   9.367  17.611  0.00  0.00    +0.000 C 
ATOM      7  C   UNL     1       1.987   8.232  18.597  0.00  0.00    +0.000 A 
ATOM      8  C   UNL     1       2.469   7.000  18.109  0.00  0.00    +0.000 A 
ATOM      9  C   UNL     1       2.557   5.876  18.933  0.00  0.00    +0.000 A 
ATOM     10  C   UNL     1       2.150   6.001  20.263  0.00  0.00    +0.000 A 
ATOM     11  C   UNL     1       1.663   7.227  20.757  0.00  0.00    +0.000 A 
ATOM     12  C   UNL     1       1.567   8.361  19.940  0.00  0.00    +0.000 A 
ENDROOT
BRANCH   1  16
ATOM     13  C   UNL     1      -0.809  14.468  22.753  0.00  0.00    +0.000 C 
ATOM     14  C   UNL     1      -0.818  13.026  22.410  0.00  0.00    +0.000 A 
ATOM     15  N   UNL     1       0.219  12.359  21.959  0.00  0.00    +0.000 NA
ATOM     16  C   UNL     1      -0.133  11.031  22.117  0.00  0.00    +0.000 A 
ATOM     17  N   UNL     1      -1.378  10.874  22.609  0.00  0.00    +0.000 NA
ATOM     18  N   UNL     1      -1.856  12.142  22.656  0.00  0.00    +0.000 N 
BRANCH  18  19
ATOM     19  C   UNL     1      -3.229  12.410  22.905  0.00  0.00    +0.000 A 
ATOM     20  C   UNL     1      -4.078  12.778  21.848  0.00  0.00    +0.000 A 
ATOM     21  C   UNL     1      -5.428  13.047  22.100  0.00  0.00    +0.000 A 
ATOM     22  C   UNL     1      -5.916  12.976  23.401  0.00  0.00    +0.000 A 
ATOM     23  F   UNL     1      -7.205  13.245  23.643  0.00  0.00    +0.000 F 
ATOM     24  C   UNL     1      -5.079  12.647  24.459  0.00  0.00    +0.000 A 
ATOM     25  C   UNL     1      -3.735  12.361  24.213  0.00  0.00    +0.000 A 
ENDBRANCH  18  19
ENDBRANCH   1  16
BRANCH   9  26
ATOM     26  C   UNL     1       3.061   4.556  18.403  0.00  0.00    +0.000 C 
ATOM     27  F   UNL     1       3.604   4.645  17.155  0.00  0.00    +0.000 F 
ATOM     28  F   UNL     1       4.029   4.009  19.189  0.00  0.00    +0.000 F 
ATOM     29  F   UNL     1       2.077   3.620  18.312  0.00  0.00    +0.000 F 
ENDBRANCH   9  26
TORSDOF 3
ENDMDL
MODEL 3
REMARK VINA RESULT:      -8.6      3.273      4.029
REMARK  Name = 
REMARK  4 active torsions:
REMARK  status: ('A' for Active; 'I' for Inactive)
REMARK    1  A    between atoms: C_1  and  C_2
REMARK    2  A    between atoms: C_4  and  C_5
REMARK    3  A    between atoms: C_13  and  C_14
REMARK    4  A    between atoms: N_22  and  C_23
REMARK                            x       y       z     vdW  Elec       q    Type
REMARK                         _______ _______ _______ _____ _____    ______ ____
ROOT
ATOM      1  C   UNL     1       1.053   8.803  20.270  0.00  0.00    +0.000 C 
ATOM      2  O   UNL     1       1.076   8.577  21.482  0.00  0.00    +0.000 OA
ATOM      3  N   UNL     1       1.761   8.014  19.317  0.00  0.00    +0.000 N 
ATOM      4  C   UNL     1       2.013   8.514  17.959  0.00  0.00    +0.000 C 
ATOM      5  C   UNL     1       3.415   8.209  17.472  0.00  0.00    +0.000 C 
ATOM      6  C   UNL     1       3.637   6.717  17.446  0.00  0.00    +0.000 C 
ATOM      7  C   UNL     1       3.144   6.051  18.703  0.00  0.00    +0.000 A 
ATOM      8  C   UNL     1       3.584   4.732  18.936  0.00  0.00    +0.000 A 
ATOM      9  C   UNL     1       3.167   4.014  20.059  0.00  0.00    +0.000 A 
ATOM     10  C   UNL     1       2.295   4.638  20.953  0.00  0.00    +0.000 A 
ATOM     11  C   UNL     1       1.847   5.954  20.725  0.00  0.00    +0.000 A 
ATOM     12  C   UNL     1       2.255   6.684  19.601  0.00  0.00    +0.000 A 
ENDROOT
BRANCH   1  16
ATOM     13  C   UNL     1      -0.120  13.414  18.946  0.00  0.00    +0.000 C 
ATOM     14  C   UNL     1      -0.175  11.938  19.076  0.00  0.00    +0.000 A 
ATOM     15  N   UNL     1       0.842  11.180  19.417  0.00  0.00    +0.000 NA
ATOM     16  C   UNL     1       0.268   9.969  19.754  0.00  0.00    +0.000 A 
ATOM     17  N   UNL     1      -1.069   9.956  19.581  0.00  0.00    +0.000 NA
ATOM     18  N   UNL     1      -1.320  11.163  19.016  0.00  0.00    +0.000 N 
BRANCH  18  19
ATOM     19  C   UNL     1      -2.591  11.471  18.459  0.00  0.00    +0.000 A 
ATOM     20  C   UNL     1      -3.606  12.003  19.271  0.00  0.00    +0.000 A 
ATOM     21  C   UNL     1      -4.857  12.299  18.718  0.00  0.00    +0.000 A 
ATOM     22  C   UNL     1      -5.100  12.035  17.374  0.00  0.00    +0.000 A 
ATOM     23  F   UNL     1      -6.301  12.306  16.849  0.00  0.00    +0.000 F 
ATOM     24  C   UNL     1      -4.115  11.476  16.570  0.00  0.00    +0.000 A 
ATOM     25  C   UNL     1      -2.859  11.194  17.109  0.00  0.00    +0.000 A 
ENDBRANCH  18  19
ENDBRANCH   1  16
BRANCH   9  26
ATOM     26  C   UNL     1       3.630   2.598  20.297  0.00  0.00    +0.000 C 
ATOM     27  F   UNL     1       4.964   2.419  20.079  0.00  0.00    +0.000 F 
ATOM     28  F   UNL     1       3.404   2.178  21.573  0.00  0.00    +0.000 F 
ATOM     29  F   UNL     1       3.001   1.701  19.490  0.00  0.00    +0.000 F 
ENDBRANCH   9  26
TORSDOF 3
ENDMDL
MODEL 4
REMARK VINA RESULT:      -8.4      2.950      4.575
REMARK  Name = 
REMARK  4 active torsions:
REMARK  status: ('A' for Active; 'I' for Inactive)
REMARK    1  A    between atoms: C_1  and  C_2
REMARK    2  A    between atoms: C_4  and  C_5
REMARK    3  A    between atoms: C_13  and  C_14
REMARK    4  A    between atoms: N_22  and  C_23
REMARK                            x       y       z     vdW  Elec       q    Type
REMARK                         _______ _______ _______ _____ _____    ______ ____
ROOT
ATOM      1  C   UNL     1       1.932   8.403  18.633  0.00  0.00    +0.000 C 
ATOM      2  O   UNL     1       2.041   8.936  17.527  0.00  0.00    +0.000 OA
ATOM      3  N   UNL     1       2.457   7.111  18.930  0.00  0.00    +0.000 N 
ATOM      4  C   UNL     1       2.000   6.362  20.109  0.00  0.00    +0.000 C 
ATOM      5  C   UNL     1       1.778   4.892  19.821  0.00  0.00    +0.000 C 
ATOM      6  C   UNL     1       3.068   4.257  19.361  0.00  0.00    +0.000 C 
ATOM      7  C   UNL     1       3.776   5.101  18.334  0.00  0.00    +0.000 A 
ATOM      8  C   UNL     1       4.805   4.473  17.600  0.00  0.00    +0.000 A 
ATOM      9  C   UNL     1       5.542   5.171  16.641  0.00  0.00    +0.000 A 
ATOM     10  C   UNL     1       5.237   6.516  16.426  0.00  0.00    +0.000 A 
ATOM     11  C   UNL     1       4.215   7.151  17.158  0.00  0.00    +0.000 A 
ATOM     12  C   UNL     1       3.469   6.464  18.125  0.00  0.00    +0.000 A 
ENDROOT
BRANCH   1  16
ATOM     13  C   UNL     1       0.074   9.462  23.085  0.00  0.00    +0.000 C 
ATOM     14  C   UNL     1       0.510   9.619  21.677  0.00  0.00    +0.000 A 
ATOM     15  N   UNL     1       1.362   8.827  21.066  0.00  0.00    +0.000 NA
ATOM     16  C   UNL     1       1.199   9.118  19.724  0.00  0.00    +0.000 A 
ATOM     17  N   UNL     1       0.303  10.102  19.507  0.00  0.00    +0.000 NA
ATOM     18  N   UNL     1      -0.021  10.509  20.760  0.00  0.00    +0.000 N 
BRANCH  18  19
ATOM     19  C   UNL     1      -0.774  11.694  20.983  0.00  0.00    +0.000 A 
ATOM     20  C   UNL     1      -1.906  11.967  20.199  0.00  0.00    +0.000 A 
ATOM     21  C   UNL     1      -2.641  13.138  20.419  0.00  0.00    +0.000 A 
ATOM     22  C   UNL     1      -2.227  14.040  21.394  0.00  0.00    +0.000 A 
ATOM     23  F   UNL     1      -2.922  15.166  21.596  0.00  0.00    +0.000 F 
ATOM     24  C   UNL     1      -1.089  13.798  22.152  0.00  0.00    +0.000 A 
ATOM     25  C   UNL     1      -0.362  12.624  21.950  0.00  0.00    +0.000 A 
ENDBRANCH  18  19
ENDBRANCH   1  16
BRANCH   9  26
ATOM     26  C   UNL     1       6.650   4.499  15.868  0.00  0.00    +0.000 C 
ATOM     27  F   UNL     1       7.721   4.159  16.639  0.00  0.00    +0.000 F 
ATOM     28  F   UNL     1       6.246   3.347  15.265  0.00  0.00    +0.000 F 
ATOM     29  F   UNL     1       7.145   5.288  14.875  0.00  0.00    +0.000 F 
ENDBRANCH   9  26
TORSDOF 3
ENDMDL
MODEL 5
REMARK VINA RESULT:      -8.4      2.931      4.477
REMARK  Name = 
REMARK  4 active torsions:
REMARK  status: ('A' for Active; 'I' for Inactive)
REMARK    1  A    between atoms: C_1  and  C_2
REMARK    2  A    between atoms: C_4  and  C_5
REMARK    3  A    between atoms: C_13  and  C_14
REMARK    4  A    between atoms: N_22  and  C_23
REMARK                            x       y       z     vdW  Elec       q    Type
REMARK                         _______ _______ _______ _____ _____    ______ ____
ROOT
ATOM      1  C   UNL     1       1.941   8.404  18.632  0.00  0.00    +0.000 C 
ATOM      2  O   UNL     1       2.060   8.936  17.527  0.00  0.00    +0.000 OA
ATOM      3  N   UNL     1       2.453   7.107  18.932  0.00  0.00    +0.000 N 
ATOM      4  C   UNL     1       1.983   6.362  20.107  0.00  0.00    +0.000 C 
ATOM      5  C   UNL     1       1.750   4.894  19.818  0.00  0.00    +0.000 C 
ATOM      6  C   UNL     1       3.037   4.248  19.365  0.00  0.00    +0.000 C 
ATOM      7  C   UNL     1       3.759   5.086  18.342  0.00  0.00    +0.000 A 
ATOM      8  C   UNL     1       4.786   4.450  17.613  0.00  0.00    +0.000 A 
ATOM      9  C   UNL     1       5.534   5.142  16.658  0.00  0.00    +0.000 A 
ATOM     10  C   UNL     1       5.241   6.490  16.442  0.00  0.00    +0.000 A 
ATOM     11  C   UNL     1       4.220   7.133  17.169  0.00  0.00    +0.000 A 
ATOM     12  C   UNL     1       3.464   6.452  18.132  0.00  0.00    +0.000 A 
ENDROOT
BRANCH   1  16
ATOM     13  C   UNL     1       0.067   9.476  23.075  0.00  0.00    +0.000 C 
ATOM     14  C   UNL     1       0.513   9.630  21.669  0.00  0.00    +0.000 A 
ATOM     15  N   UNL     1       1.361   8.831  21.062  0.00  0.00    +0.000 NA
ATOM     16  C   UNL     1       1.208   9.125  19.720  0.00  0.00    +0.000 A 
ATOM     17  N   UNL     1       0.322  10.117  19.498  0.00  0.00    +0.000 NA
ATOM     18  N   UNL     1      -0.005  10.526  20.749  0.00  0.00    +0.000 N 
BRANCH  18  19
ATOM     19  C   UNL     1      -0.749  11.716  20.970  0.00  0.00    +0.000 A 
ATOM     20  C   UNL     1      -0.346  12.626  21.961  0.00  0.00    +0.000 A 
ATOM     21  C   UNL     1      -1.086  13.794  22.178  0.00  0.00    +0.000 A 
ATOM     22  C   UNL     1      -2.235  14.033  21.432  0.00  0.00    +0.000 A 
ATOM     23  F   UNL     1      -2.949  15.144  21.648  0.00  0.00    +0.000 F 
ATOM     24  C   UNL     1      -2.663  13.125  20.472  0.00  0.00    +0.000 A 
ATOM     25  C   UNL     1      -1.921  11.966  20.238  0.00  0.00    +0.000 A 
ENDBRANCH  18  19
ENDBRANCH   1  16
BRANCH   9  26
ATOM     26  C   UNL     1       6.640   4.461  15.890  0.00  0.00    +0.000 C 
ATOM     27  F   UNL     1       7.113   5.202  14.848  0.00  0.00    +0.000 F 
ATOM     28  F   UNL     1       7.724   4.181  16.667  0.00  0.00    +0.000 F 
ATOM     29  F   UNL     1       6.247   3.275  15.352  0.00  0.00    +0.000 F 
ENDBRANCH   9  26
TORSDOF 3
ENDMDL
MODEL 6
REMARK VINA RESULT:      -8.2      4.144      5.093
REMARK  Name = 
REMARK  4 active torsions:
REMARK  status: ('A' for Active; 'I' for Inactive)
REMARK    1  A    between atoms: C_1  and  C_2
REMARK    2  A    between atoms: C_4  and  C_5
REMARK    3  A    between atoms: C_13  and  C_14
REMARK    4  A    between atoms: N_22  and  C_23
REMARK                            x       y       z     vdW  Elec       q    Type
REMARK                         _______ _______ _______ _____ _____    ______ ____
ROOT
ATOM      1  C   UNL     1       1.288   8.964  20.177  0.00  0.00    +0.000 C 
ATOM      2  O   UNL     1       1.247   8.786  21.396  0.00  0.00    +0.000 OA
ATOM      3  N   UNL     1       1.937   8.066  19.280  0.00  0.00    +0.000 N 
ATOM      4  C   UNL     1       2.286   8.481  17.915  0.00  0.00    +0.000 C 
ATOM      5  C   UNL     1       3.661   8.008  17.491  0.00  0.00    +0.000 C 
ATOM      6  C   UNL     1       3.721   6.500  17.527  0.00  0.00    +0.000 C 
ATOM      7  C   UNL     1       3.117   5.943  18.790  0.00  0.00    +0.000 A 
ATOM      8  C   UNL     1       3.403   4.594  19.086  0.00  0.00    +0.000 A 
ATOM      9  C   UNL     1       2.874   3.971  20.219  0.00  0.00    +0.000 A 
ATOM     10  C   UNL     1       2.046   4.721  21.056  0.00  0.00    +0.000 A 
ATOM     11  C   UNL     1       1.752   6.067  20.765  0.00  0.00    +0.000 A 
ATOM     12  C   UNL     1       2.274   6.703  19.630  0.00  0.00    +0.000 A 
ENDROOT
BRANCH   1  16
ATOM     13  C   UNL     1      -1.875  11.847  17.711  0.00  0.00    +0.000 C 
ATOM     14  C   UNL     1      -0.788  11.424  18.627  0.00  0.00    +0.000 A 
ATOM     15  N   UNL     1      -0.639  10.207  19.098  0.00  0.00    +0.000 NA
ATOM     16  C   UNL     1       0.652  10.186  19.591  0.00  0.00    +0.000 A 
ATOM     17  N   UNL     1       1.277  11.375  19.475  0.00  0.00    +0.000 NA
ATOM     18  N   UNL     1       0.306  12.190  18.993  0.00  0.00    +0.000 N 
BRANCH  18  19
ATOM     19  C   UNL     1       0.480  13.599  18.937  0.00  0.00    +0.000 A 
ATOM     20  C   UNL     1       1.729  14.141  18.594  0.00  0.00    +0.000 A 
ATOM     21  C   UNL     1       1.897  15.530  18.547  0.00  0.00    +0.000 A 
ATOM     22  C   UNL     1       0.834  16.366  18.870  0.00  0.00    +0.000 A 
ATOM     23  F   UNL     1       0.998  17.694  18.837  0.00  0.00    +0.000 F 
ATOM     24  C   UNL     1      -0.397  15.842  19.245  0.00  0.00    +0.000 A 
ATOM     25  C   UNL     1      -0.576  14.458  19.277  0.00  0.00    +0.000 A 
ENDBRANCH  18  19
ENDBRANCH   1  16
BRANCH   9  26
ATOM     26  C   UNL     1       3.173   2.524  20.525  0.00  0.00    +0.000 C 
ATOM     27  F   UNL     1       4.499   2.217  20.454  0.00  0.00    +0.000 F 
ATOM     28  F   UNL     1       2.775   2.159  21.775  0.00  0.00    +0.000 F 
ATOM     29  F   UNL     1       2.549   1.670  19.668  0.00  0.00    +0.000 F 
ENDBRANCH   9  26
TORSDOF 3
ENDMDL
MODEL 7
REMARK VINA RESULT:      -8.2      3.860      4.820
REMARK  Name = 
REMARK  4 active torsions:
REMARK  status: ('A' for Active; 'I' for Inactive)
REMARK    1  A    between atoms: C_1  and  C_2
REMARK    2  A    between atoms: C_4  and  C_5
REMARK    3  A    between atoms: C_13  and  C_14
REMARK    4  A    between atoms: N_22  and  C_23
REMARK                            x       y       z     vdW  Elec       q    Type
REMARK                         _______ _______ _______ _____ _____    ______ ____
ROOT
ATOM      1  C   UNL     1       1.239   8.953  20.249  0.00  0.00    +0.000 C 
ATOM      2  O   UNL     1       1.226   8.753  21.465  0.00  0.00    +0.000 OA
ATOM      3  N   UNL     1       1.887   8.083  19.323  0.00  0.00    +0.000 N 
ATOM      4  C   UNL     1       2.199   8.529  17.959  0.00  0.00    +0.000 C 
ATOM      5  C   UNL     1       3.574   8.092  17.499  0.00  0.00    +0.000 C 
ATOM      6  C   UNL     1       3.665   6.585  17.508  0.00  0.00    +0.000 C 
ATOM      7  C   UNL     1       3.099   5.994  18.772  0.00  0.00    +0.000 A 
ATOM      8  C   UNL     1       3.418   4.646  19.038  0.00  0.00    +0.000 A 
ATOM      9  C   UNL     1       2.924   3.993  20.170  0.00  0.00    +0.000 A 
ATOM     10  C   UNL     1       2.099   4.711  21.038  0.00  0.00    +0.000 A 
ATOM     11  C   UNL     1       1.772   6.056  20.776  0.00  0.00    +0.000 A 
ATOM     12  C   UNL     1       2.258   6.722  19.643  0.00  0.00    +0.000 A 
ENDROOT
BRANCH   1  16
ATOM     13  C   UNL     1      -1.929  11.802  17.750  0.00  0.00    +0.000 C 
ATOM     14  C   UNL     1      -0.882  11.384  18.713  0.00  0.00    +0.000 A 
ATOM     15  N   UNL     1      -0.687  10.149  19.115  0.00  0.00    +0.000 NA
ATOM     16  C   UNL     1       0.566  10.171  19.697  0.00  0.00    +0.000 A 
ATOM     17  N   UNL     1       1.119  11.401  19.703  0.00  0.00    +0.000 NA
ATOM     18  N   UNL     1       0.133  12.187  19.205  0.00  0.00    +0.000 N 
BRANCH  18  19
ATOM     19  C   UNL     1       0.219  13.605  19.252  0.00  0.00    +0.000 A 
ATOM     20  C   UNL     1      -0.845  14.359  19.773  0.00  0.00    +0.000 A 
ATOM     21  C   UNL     1      -0.758  15.755  19.810  0.00  0.00    +0.000 A 
ATOM     22  C   UNL     1       0.371  16.391  19.304  0.00  0.00    +0.000 A 
ATOM     23  F   UNL     1       0.449  17.727  19.329  0.00  0.00    +0.000 F 
ATOM     24  C   UNL     1       1.415  15.658  18.755  0.00  0.00    +0.000 A 
ATOM     25  C   UNL     1       1.342  14.264  18.729  0.00  0.00    +0.000 A 
ENDBRANCH  18  19
ENDBRANCH   1  16
BRANCH   9  26
ATOM     26  C   UNL     1       3.258   2.548  20.445  0.00  0.00    +0.000 C 
ATOM     27  F   UNL     1       3.038   2.176  21.738  0.00  0.00    +0.000 F 
ATOM     28  F   UNL     1       2.529   1.686  19.683  0.00  0.00    +0.000 F 
ATOM     29  F   UNL     1       4.564   2.257  20.194  0.00  0.00    +0.000 F 
ENDBRANCH   9  26
TORSDOF 3
ENDMDL
MODEL 8
REMARK VINA RESULT:      -8.1      3.166      9.631
REMARK  Name = 
REMARK  4 active torsions:
REMARK  status: ('A' for Active; 'I' for Inactive)
REMARK    1  A    between atoms: C_1  and  C_2
REMARK    2  A    between atoms: C_4  and  C_5
REMARK    3  A    between atoms: C_13  and  C_14
REMARK    4  A    between atoms: N_22  and  C_23
REMARK                            x       y       z     vdW  Elec       q    Type
REMARK                         _______ _______ _______ _____ _____    ______ ____
ROOT
ATOM      1  C   UNL     1       1.963   9.178  18.269  0.00  0.00    +0.000 C 
ATOM      2  O   UNL     1       1.986  10.125  17.480  0.00  0.00    +0.000 OA
ATOM      3  N   UNL     1       1.244   9.207  19.499  0.00  0.00    +0.000 N 
ATOM      4  C   UNL     1       1.530   8.237  20.565  0.00  0.00    +0.000 C 
ATOM      5  C   UNL     1       1.551   8.867  21.942  0.00  0.00    +0.000 C 
ATOM      6  C   UNL     1       0.207   9.482  22.247  0.00  0.00    +0.000 C 
ATOM      7  C   UNL     1      -0.322  10.285  21.088  0.00  0.00    +0.000 A 
ATOM      8  C   UNL     1      -1.393  11.161  21.361  0.00  0.00    +0.000 A 
ATOM      9  C   UNL     1      -1.975  11.933  20.353  0.00  0.00    +0.000 A 
ATOM     10  C   UNL     1      -1.469  11.815  19.058  0.00  0.00    +0.000 A 
ATOM     11  C   UNL     1      -0.402  10.939  18.776  0.00  0.00    +0.000 A 
ATOM     12  C   UNL     1       0.188  10.156  19.777  0.00  0.00    +0.000 A 
ENDROOT
BRANCH   1  16
ATOM     13  C   UNL     1       5.412   6.192  16.376  0.00  0.00    +0.000 C 
ATOM     14  C   UNL     1       4.303   6.687  17.226  0.00  0.00    +0.000 A 
ATOM     15  N   UNL     1       4.009   7.955  17.406  0.00  0.00    +0.000 NA
ATOM     16  C   UNL     1       2.738   7.937  17.951  0.00  0.00    +0.000 A 
ATOM     17  N   UNL     1       2.271   6.689  18.152  0.00  0.00    +0.000 NA
ATOM     18  N   UNL     1       3.328   5.905  17.821  0.00  0.00    +0.000 N 
BRANCH  18  19
ATOM     19  C   UNL     1       3.338   4.513  18.108  0.00  0.00    +0.000 A 
ATOM     20  C   UNL     1       4.192   4.004  19.099  0.00  0.00    +0.000 A 
ATOM     21  C   UNL     1       4.202   2.631  19.372  0.00  0.00    +0.000 A 
ATOM     22  C   UNL     1       3.388   1.774  18.639  0.00  0.00    +0.000 A 
ATOM     23  F   UNL     1       3.407   0.460  18.893  0.00  0.00    +0.000 F 
ATOM     24  C   UNL     1       2.564   2.262  17.633  0.00  0.00    +0.000 A 
ATOM     25  C   UNL     1       2.536   3.632  17.366  0.00  0.00    +0.000 A 
ENDBRANCH  18  19
ENDBRANCH   1  16
BRANCH   9  26
ATOM     26  C   UNL     1      -3.129  12.860  20.647  0.00  0.00    +0.000 C 
ATOM     27  F   UNL     1      -2.783  14.178  20.639  0.00  0.00    +0.000 F 
ATOM     28  F   UNL     1      -4.143  12.738  19.746  0.00  0.00    +0.000 F 
ATOM     29  F   UNL     1      -3.683  12.631  21.869  0.00  0.00    +0.000 F 
ENDBRANCH   9  26
TORSDOF 3
ENDMDL
MODEL 9
REMARK VINA RESULT:      -8.0      2.070      3.397
REMARK  Name = 
REMARK  4 active torsions:
REMARK  status: ('A' for Active; 'I' for Inactive)
REMARK    1  A    between atoms: C_1  and  C_2
REMARK    2  A    between atoms: C_4  and  C_5
REMARK    3  A    between atoms: C_13  and  C_14
REMARK    4  A    between atoms: N_22  and  C_23
REMARK                            x       y       z     vdW  Elec       q    Type
REMARK                         _______ _______ _______ _____ _____    ______ ____
ROOT
ATOM      1  C   UNL     1       1.454   9.431  18.642  0.00  0.00    +0.000 C 
ATOM      2  O   UNL     1       1.488   9.590  17.420  0.00  0.00    +0.000 OA
ATOM      3  N   UNL     1       1.914   8.246  19.286  0.00  0.00    +0.000 N 
ATOM      4  C   UNL     1       1.528   7.938  20.670  0.00  0.00    +0.000 C 
ATOM      5  C   UNL     1       1.175   6.480  20.871  0.00  0.00    +0.000 C 
ATOM      6  C   UNL     1       2.364   5.612  20.537  0.00  0.00    +0.000 C 
ATOM      7  C   UNL     1       3.023   6.030  19.249  0.00  0.00    +0.000 A 
ATOM      8  C   UNL     1       3.925   5.112  18.672  0.00  0.00    +0.000 A 
ATOM      9  C   UNL     1       4.609   5.410  17.491  0.00  0.00    +0.000 A 
ATOM     10  C   UNL     1       4.379   6.649  16.892  0.00  0.00    +0.000 A 
ATOM     11  C   UNL     1       3.483   7.574  17.464  0.00  0.00    +0.000 A 
ATOM     12  C   UNL     1       2.793   7.289  18.650  0.00  0.00    +0.000 A 
ENDROOT
BRANCH   1  16
ATOM     13  C   UNL     1       1.106  13.600  21.268  0.00  0.00    +0.000 C 
ATOM     14  C   UNL     1       0.719  12.372  20.533  0.00  0.00    +0.000 A 
ATOM     15  N   UNL     1       1.480  11.752  19.660  0.00  0.00    +0.000 NA
ATOM     16  C   UNL     1       0.887  10.512  19.508  0.00  0.00    +0.000 A 
ATOM     17  N   UNL     1      -0.243  10.380  20.231  0.00  0.00    +0.000 NA
ATOM     18  N   UNL     1      -0.417  11.614  20.765  0.00  0.00    +0.000 N 
BRANCH  18  19
ATOM     19  C   UNL     1      -1.625  11.975  21.420  0.00  0.00    +0.000 A 
ATOM     20  C   UNL     1      -2.656  12.602  20.701  0.00  0.00    +0.000 A 
ATOM     21  C   UNL     1      -3.841  12.962  21.353  0.00  0.00    +0.000 A 
ATOM     22  C   UNL     1      -3.980  12.725  22.717  0.00  0.00    +0.000 A 
ATOM     23  F   UNL     1      -5.108  13.080  23.343  0.00  0.00    +0.000 F 
ATOM     24  C   UNL     1      -2.953  12.137  23.445  0.00  0.00    +0.000 A 
ATOM     25  C   UNL     1      -1.775  11.760  22.799  0.00  0.00    +0.000 A 
ENDBRANCH  18  19
ENDBRANCH   1  16
BRANCH   9  26
ATOM     26  C   UNL     1       5.583   4.430  16.885  0.00  0.00    +0.000 C 
ATOM     27  F   UNL     1       6.034   4.804  15.654  0.00  0.00    +0.000 F 
ATOM     28  F   UNL     1       6.696   4.254  17.649  0.00  0.00    +0.000 F 
ATOM     29  F   UNL     1       5.042   3.192  16.719  0.00  0.00    +0.000 F 
ENDBRANCH   9  26
TORSDOF 3
ENDMDL
