MODEL 1
REMARK VINA RESULT:      -7.9      0.000      0.000
REMARK  Name = 
REMARK  5 active torsions:
REMARK  status: ('A' for Active; 'I' for Inactive)
REMARK    1  A    between atoms: C_1  and  C_2
REMARK    2  A    between atoms: C_4  and  N_5
REMARK    3  A    between atoms: N_5  and  C_6
REMARK    4  A    between atoms: N_15  and  C_16
REMARK    5  A    between atoms: C_18  and  C_19
REMARK                            x       y       z     vdW  Elec       q    Type
REMARK                         _______ _______ _______ _____ _____    ______ ____
ROOT
ATOM      1  N   UNL     1       3.146   6.151  17.782  0.00  0.00    +0.000 N 
ATOM      2  H   UNL     1       2.525   5.637  17.164  0.00  0.00    +0.000 HD
ENDROOT
BRANCH   1   3
ATOM      3  C   UNL     1       2.501   7.198  18.483  0.00  0.00    +0.000 A 
ATOM      4  C   UNL     1       2.065   8.334  17.756  0.00  0.00    +0.000 A 
ATOM      5  C   UNL     1       1.412   9.407  18.383  0.00  0.00    +0.000 A 
ATOM      6  C   UNL     1       1.228   9.319  19.744  0.00  0.00    +0.000 A 
ATOM      7  C   UNL     1       1.654   8.229  20.469  0.00  0.00    +0.000 A 
ATOM      8  C   UNL     1       2.295   7.160  19.873  0.00  0.00    +0.000 A 
ATOM      9  O   UNL     1       1.376   8.344  21.823  0.00  0.00    +0.000 OA
ATOM     10  C   UNL     1       0.751   9.599  21.901  0.00  0.00    +0.000 A 
ATOM     11  O   UNL     1       0.356  10.082  22.955  0.00  0.00    +0.000 OA
ATOM     12  N   UNL     1       0.657  10.180  20.652  0.00  0.00    +0.000 N 
ATOM     13  C   UNL     1       0.113  11.475  20.356  0.00  0.00    +0.000 C 
ENDBRANCH   1   3
BRANCH   1  17
ATOM     14  C   UNL     1       7.749   7.859  17.625  0.00  0.00    +0.000 C 
ATOM     15  C   UNL     1       6.659   6.936  17.183  0.00  0.00    +0.000 A 
ATOM     16  C   UNL     1       5.394   7.025  17.709  0.00  0.00    +0.000 A 
ATOM     17  C   UNL     1       4.454   6.120  17.256  0.00  0.00    +0.000 A 
ATOM     18  N   UNL     1       4.764   5.156  16.364  0.00  0.00    +0.000 NA
ATOM     19  C   UNL     1       6.033   5.128  15.891  0.00  0.00    +0.000 A 
ATOM     20  N   UNL     1       6.983   6.006  16.273  0.00  0.00    +0.000 NA
BRANCH  19  21
ATOM     21  C   UNL     1       6.467   4.107  14.864  0.00  0.00    +0.000 C 
ATOM     22  C   UNL     1       6.999   4.449  13.497  0.00  0.00    +0.000 C 
ATOM     23  C   UNL     1       5.593   3.949  13.632  0.00  0.00    +0.000 C 
ENDBRANCH  19  21
ENDBRANCH   1  17
TORSDOF 3
ENDMDL
MODEL 2
REMARK VINA RESULT:      -7.9      2.046      3.008
REMARK  Name = 
REMARK  5 active torsions:
REMARK  status: ('A' for Active; 'I' for Inactive)
REMARK    1  A    between atoms: C_1  and  C_2
REMARK    2  A    between atoms: C_4  and  N_5
REMARK    3  A    between atoms: N_5  and  C_6
REMARK    4  A    between atoms: N_15  and  C_16
REMARK    5  A    between atoms: C_18  and  C_19
REMARK                            x       y       z     vdW  Elec       q    Type
REMARK                         _______ _______ _______ _____ _____    ______ ____
ROOT
ATOM      1  N   UNL     1       2.607   7.210  17.683  0.00  0.00    +0.000 N 
ATOM      2  H   UNL     1       3.087   7.695  16.931  0.00  0.00    +0.000 HD
ENDROOT
BRANCH   1   3
ATOM      3  C   UNL     1       1.993   8.082  18.612  0.00  0.00    +0.000 A 
ATOM      4  C   UNL     1       1.503   9.330  18.151  0.00  0.00    +0.000 A 
ATOM      5  C   UNL     1       0.875  10.243  19.013  0.00  0.00    +0.000 A 
ATOM      6  C   UNL     1       0.772   9.884  20.338  0.00  0.00    +0.000 A 
ATOM      7  C   UNL     1       1.252   8.681  20.807  0.00  0.00    +0.000 A 
ATOM      8  C   UNL     1       1.868   7.766  19.976  0.00  0.00    +0.000 A 
ATOM      9  O   UNL     1       1.051   8.520  22.170  0.00  0.00    +0.000 OA
ATOM     10  C   UNL     1       0.418   9.720  22.531  0.00  0.00    +0.000 A 
ATOM     11  O   UNL     1       0.080   9.976  23.680  0.00  0.00    +0.000 OA
ATOM     12  N   UNL     1       0.246  10.535  21.429  0.00  0.00    +0.000 N 
ATOM     13  C   UNL     1      -0.329  11.850  21.427  0.00  0.00    +0.000 C 
ENDBRANCH   1   3
BRANCH   1  17
ATOM     14  C   UNL     1       2.532   2.303  17.903  0.00  0.00    +0.000 C 
ATOM     15  C   UNL     1       3.214   3.628  18.026  0.00  0.00    +0.000 A 
ATOM     16  C   UNL     1       2.536   4.801  17.806  0.00  0.00    +0.000 A 
ATOM     17  C   UNL     1       3.249   5.977  17.924  0.00  0.00    +0.000 A 
ATOM     18  N   UNL     1       4.568   5.986  18.205  0.00  0.00    +0.000 NA
ATOM     19  C   UNL     1       5.172   4.790  18.409  0.00  0.00    +0.000 A 
ATOM     20  N   UNL     1       4.518   3.612  18.337  0.00  0.00    +0.000 NA
BRANCH  19  21
ATOM     21  C   UNL     1       6.638   4.700  18.762  0.00  0.00    +0.000 C 
ATOM     22  C   UNL     1       7.634   5.811  18.556  0.00  0.00    +0.000 C 
ATOM     23  C   UNL     1       7.627   4.649  17.609  0.00  0.00    +0.000 C 
ENDBRANCH  19  21
ENDBRANCH   1  17
TORSDOF 3
ENDMDL
MODEL 3
REMARK VINA RESULT:      -7.8      2.266      3.277
REMARK  Name = 
REMARK  5 active torsions:
REMARK  status: ('A' for Active; 'I' for Inactive)
REMARK    1  A    between atoms: C_1  and  C_2
REMARK    2  A    between atoms: C_4  and  N_5
REMARK    3  A    between atoms: N_5  and  C_6
REMARK    4  A    between atoms: N_15  and  C_16
REMARK    5  A    between atoms: C_18  and  C_19
REMARK                            x       y       z     vdW  Elec       q    Type
REMARK                         _______ _______ _______ _____ _____    ______ ____
ROOT
ATOM      1  N   UNL     1       2.963   7.033  17.789  0.00  0.00    +0.000 N 
ATOM      2  H   UNL     1       3.357   7.456  16.954  0.00  0.00    +0.000 HD
ENDROOT
BRANCH   1   3
ATOM      3  C   UNL     1       2.244   7.946  18.596  0.00  0.00    +0.000 A 
ATOM      4  C   UNL     1       1.697   9.104  17.988  0.00  0.00    +0.000 A 
ATOM      5  C   UNL     1       0.965  10.050  18.724  0.00  0.00    +0.000 A 
ATOM      6  C   UNL     1       0.816   9.816  20.072  0.00  0.00    +0.000 A 
ATOM      7  C   UNL     1       1.351   8.703  20.683  0.00  0.00    +0.000 A 
ATOM      8  C   UNL     1       2.070   7.757  19.977  0.00  0.00    +0.000 A 
ATOM      9  O   UNL     1       1.091   8.663  22.044  0.00  0.00    +0.000 OA
ATOM     10  C   UNL     1       0.360   9.844  22.252  0.00  0.00    +0.000 A 
ATOM     11  O   UNL     1      -0.054  10.187  23.352  0.00  0.00    +0.000 OA
ATOM     12  N   UNL     1       0.192  10.532  21.066  0.00  0.00    +0.000 N 
ATOM     13  C   UNL     1      -0.469  11.796  20.904  0.00  0.00    +0.000 C 
ENDBRANCH   1   3
BRANCH   1  17
ATOM     14  C   UNL     1       7.394   4.999  18.390  0.00  0.00    +0.000 C 
ATOM     15  C   UNL     1       5.902   4.983  18.483  0.00  0.00    +0.000 A 
ATOM     16  C   UNL     1       5.151   6.048  18.051  0.00  0.00    +0.000 A 
ATOM     17  C   UNL     1       3.780   5.956  18.192  0.00  0.00    +0.000 A 
ATOM     18  N   UNL     1       3.193   4.886  18.766  0.00  0.00    +0.000 NA
ATOM     19  C   UNL     1       3.997   3.873  19.170  0.00  0.00    +0.000 A 
ATOM     20  N   UNL     1       5.339   3.896  19.029  0.00  0.00    +0.000 NA
BRANCH  19  21
ATOM     21  C   UNL     1       3.430   2.619  19.794  0.00  0.00    +0.000 C 
ATOM     22  C   UNL     1       1.959   2.322  19.919  0.00  0.00    +0.000 C 
ATOM     23  C   UNL     1       2.722   2.767  21.130  0.00  0.00    +0.000 C 
ENDBRANCH  19  21
ENDBRANCH   1  17
TORSDOF 3
ENDMDL
MODEL 4
REMARK VINA RESULT:      -7.6      1.853      2.873
REMARK  Name = 
REMARK  5 active torsions:
REMARK  status: ('A' for Active; 'I' for Inactive)
REMARK    1  A    between atoms: C_1  and  C_2
REMARK    2  A    between atoms: C_4  and  N_5
REMARK    3  A    between atoms: N_5  and  C_6
REMARK    4  A    between atoms: N_15  and  C_16
REMARK    5  A    between atoms: C_18  and  C_19
REMARK                            x       y       z     vdW  Elec       q    Type
REMARK                         _______ _______ _______ _____ _____    ______ ____
ROOT
ATOM      1  N   UNL     1       3.022   6.582  19.754  0.00  0.00    +0.000 N 
ATOM      2  H   UNL     1       2.994   6.144  20.669  0.00  0.00    +0.000 HD
ENDROOT
BRANCH   1   3
ATOM      3  C   UNL     1       2.162   7.701  19.640  0.00  0.00    +0.000 A 
ATOM      4  C   UNL     1       2.037   8.335  18.379  0.00  0.00    +0.000 A 
ATOM      5  C   UNL     1       1.197   9.444  18.189  0.00  0.00    +0.000 A 
ATOM      6  C   UNL     1       0.512   9.907  19.290  0.00  0.00    +0.000 A 
ATOM      7  C   UNL     1       0.630   9.311  20.526  0.00  0.00    +0.000 A 
ATOM      8  C   UNL     1       1.446   8.216  20.734  0.00  0.00    +0.000 A 
ATOM      9  O   UNL     1      -0.140   9.936  21.496  0.00  0.00    +0.000 OA
ATOM     10  C   UNL     1      -0.745  10.981  20.781  0.00  0.00    +0.000 A 
ATOM     11  O   UNL     1      -1.507  11.788  21.299  0.00  0.00    +0.000 OA
ATOM     12  N   UNL     1      -0.358  10.959  19.456  0.00  0.00    +0.000 N 
ATOM     13  C   UNL     1      -0.746  11.897  18.442  0.00  0.00    +0.000 C 
ENDBRANCH   1   3
BRANCH   1  17
ATOM     14  C   UNL     1       2.320   2.157  17.740  0.00  0.00    +0.000 C 
ATOM     15  C   UNL     1       2.992   3.490  17.816  0.00  0.00    +0.000 A 
ATOM     16  C   UNL     1       2.673   4.393  18.799  0.00  0.00    +0.000 A 
ATOM     17  C   UNL     1       3.331   5.608  18.782  0.00  0.00    +0.000 A 
ATOM     18  N   UNL     1       4.224   5.921  17.821  0.00  0.00    +0.000 NA
ATOM     19  C   UNL     1       4.488   4.981  16.882  0.00  0.00    +0.000 A 
ATOM     20  N   UNL     1       3.899   3.767  16.868  0.00  0.00    +0.000 NA
BRANCH  19  21
ATOM     21  C   UNL     1       5.498   5.226  15.786  0.00  0.00    +0.000 C 
ATOM     22  C   UNL     1       6.074   4.151  14.902  0.00  0.00    +0.000 C 
ATOM     23  C   UNL     1       6.909   4.710  16.014  0.00  0.00    +0.000 C 
ENDBRANCH  19  21
ENDBRANCH   1  17
TORSDOF 3
ENDMDL
MODEL 5
REMARK VINA RESULT:      -7.6      2.286      3.449
REMARK  Name = 
REMARK  5 active torsions:
REMARK  status: ('A' for Active; 'I' for Inactive)
REMARK    1  A    between atoms: C_1  and  C_2
REMARK    2  A    between atoms: C_4  and  N_5
REMARK    3  A    between atoms: N_5  and  C_6
REMARK    4  A    between atoms: N_15  and  C_16
REMARK    5  A    between atoms: C_18  and  C_19
REMARK                            x       y       z     vdW  Elec       q    Type
REMARK                         _______ _______ _______ _____ _____    ______ ____
ROOT
ATOM      1  N   UNL     1       2.649   7.547  17.980  0.00  0.00    +0.000 N 
ATOM      2  H   UNL     1       3.263   8.147  17.438  0.00  0.00    +0.000 HD
ENDROOT
BRANCH   1   3
ATOM      3  C   UNL     1       1.892   8.247  18.950  0.00  0.00    +0.000 A 
ATOM      4  C   UNL     1       1.850   7.740  20.273  0.00  0.00    +0.000 A 
ATOM      5  C   UNL     1       1.126   8.386  21.289  0.00  0.00    +0.000 A 
ATOM      6  C   UNL     1       0.439   9.527  20.941  0.00  0.00    +0.000 A 
ATOM      7  C   UNL     1       0.459  10.027  19.657  0.00  0.00    +0.000 A 
ATOM      8  C   UNL     1       1.168   9.412  18.644  0.00  0.00    +0.000 A 
ATOM      9  O   UNL     1      -0.303  11.178  19.520  0.00  0.00    +0.000 OA
ATOM     10  C   UNL     1      -0.818  11.361  20.814  0.00  0.00    +0.000 A 
ATOM     11  O   UNL     1      -1.566  12.284  21.109  0.00  0.00    +0.000 OA
ATOM     12  N   UNL     1      -0.367  10.372  21.666  0.00  0.00    +0.000 N 
ATOM     13  C   UNL     1      -0.717  10.219  23.050  0.00  0.00    +0.000 C 
ENDBRANCH   1   3
BRANCH   1  17
ATOM     14  C   UNL     1       2.248   2.655  17.778  0.00  0.00    +0.000 C 
ATOM     15  C   UNL     1       3.027   3.917  17.970  0.00  0.00    +0.000 A 
ATOM     16  C   UNL     1       2.419   5.146  17.899  0.00  0.00    +0.000 A 
ATOM     17  C   UNL     1       3.219   6.259  18.070  0.00  0.00    +0.000 A 
ATOM     18  N   UNL     1       4.550   6.158  18.261  0.00  0.00    +0.000 NA
ATOM     19  C   UNL     1       5.081   4.913  18.318  0.00  0.00    +0.000 A 
ATOM     20  N   UNL     1       4.344   3.790  18.189  0.00  0.00    +0.000 NA
BRANCH  19  21
ATOM     21  C   UNL     1       6.556   4.697  18.561  0.00  0.00    +0.000 C 
ATOM     22  C   UNL     1       7.612   5.756  18.380  0.00  0.00    +0.000 C 
ATOM     23  C   UNL     1       7.465   4.683  17.344  0.00  0.00    +0.000 C 
ENDBRANCH  19  21
ENDBRANCH   1  17
TORSDOF 3
ENDMDL
MODEL 6
REMARK VINA RESULT:      -7.6      1.357      1.818
REMARK  Name = 
REMARK  5 active torsions:
REMARK  status: ('A' for Active; 'I' for Inactive)
REMARK    1  A    between atoms: C_1  and  C_2
REMARK    2  A    between atoms: C_4  and  N_5
REMARK    3  A    between atoms: N_5  and  C_6
REMARK    4  A    between atoms: N_15  and  C_16
REMARK    5  A    between atoms: C_18  and  C_19
REMARK                            x       y       z     vdW  Elec       q    Type
REMARK                         _______ _______ _______ _____ _____    ______ ____
ROOT
ATOM      1  N   UNL     1       3.306   5.912  17.963  0.00  0.00    +0.000 N 
ATOM      2  H   UNL     1       2.704   5.278  17.446  0.00  0.00    +0.000 HD
ENDROOT
BRANCH   1   3
ATOM      3  C   UNL     1       2.603   6.962  18.598  0.00  0.00    +0.000 A 
ATOM      4  C   UNL     1       2.281   6.830  19.973  0.00  0.00    +0.000 A 
ATOM      5  C   UNL     1       1.592   7.834  20.671  0.00  0.00    +0.000 A 
ATOM      6  C   UNL     1       1.220   8.951  19.958  0.00  0.00    +0.000 A 
ATOM      7  C   UNL     1       1.513   9.092  18.619  0.00  0.00    +0.000 A 
ATOM      8  C   UNL     1       2.194   8.120  17.913  0.00  0.00    +0.000 A 
ATOM      9  O   UNL     1       1.045  10.287  18.092  0.00  0.00    +0.000 OA
ATOM     10  C   UNL     1       0.421  10.886  19.198  0.00  0.00    +0.000 A 
ATOM     11  O   UNL     1      -0.139  11.973  19.139  0.00  0.00    +0.000 OA
ATOM     12  N   UNL     1       0.533  10.086  20.318  0.00  0.00    +0.000 N 
ATOM     13  C   UNL     1      -0.017  10.359  21.616  0.00  0.00    +0.000 C 
ENDBRANCH   1   3
BRANCH   1  17
ATOM     14  C   UNL     1       7.807   7.832  17.528  0.00  0.00    +0.000 C 
ATOM     15  C   UNL     1       6.733   6.866  17.144  0.00  0.00    +0.000 A 
ATOM     16  C   UNL     1       5.503   6.890  17.754  0.00  0.00    +0.000 A 
ATOM     17  C   UNL     1       4.576   5.948  17.350  0.00  0.00    +0.000 A 
ATOM     18  N   UNL     1       4.869   5.013  16.423  0.00  0.00    +0.000 NA
ATOM     19  C   UNL     1       6.103   5.049  15.865  0.00  0.00    +0.000 A 
ATOM     20  N   UNL     1       7.036   5.965  16.199  0.00  0.00    +0.000 NA
BRANCH  19  21
ATOM     21  C   UNL     1       6.511   4.065  14.795  0.00  0.00    +0.000 C 
ATOM     22  C   UNL     1       7.023   4.452  13.432  0.00  0.00    +0.000 C 
ATOM     23  C   UNL     1       5.615   3.957  13.573  0.00  0.00    +0.000 C 
ENDBRANCH  19  21
ENDBRANCH   1  17
TORSDOF 3
ENDMDL
MODEL 7
REMARK VINA RESULT:      -7.6      2.054      2.888
REMARK  Name = 
REMARK  5 active torsions:
REMARK  status: ('A' for Active; 'I' for Inactive)
REMARK    1  A    between atoms: C_1  and  C_2
REMARK    2  A    between atoms: C_4  and  N_5
REMARK    3  A    between atoms: N_5  and  C_6
REMARK    4  A    between atoms: N_15  and  C_16
REMARK    5  A    between atoms: C_18  and  C_19
REMARK                            x       y       z     vdW  Elec       q    Type
REMARK                         _______ _______ _______ _____ _____    ______ ____
ROOT
ATOM      1  N   UNL     1       2.648   6.695  18.069  0.00  0.00    +0.000 N 
ATOM      2  H   UNL     1       2.715   6.918  17.081  0.00  0.00    +0.000 HD
ENDROOT
BRANCH   1   3
ATOM      3  C   UNL     1       2.038   7.717  18.835  0.00  0.00    +0.000 A 
ATOM      4  C   UNL     1       1.691   8.932  18.192  0.00  0.00    +0.000 A 
ATOM      5  C   UNL     1       1.075   9.986  18.886  0.00  0.00    +0.000 A 
ATOM      6  C   UNL     1       0.840   9.798  20.230  0.00  0.00    +0.000 A 
ATOM      7  C   UNL     1       1.181   8.630  20.874  0.00  0.00    +0.000 A 
ATOM      8  C   UNL     1       1.782   7.578  20.210  0.00  0.00    +0.000 A 
ATOM      9  O   UNL     1       0.862   8.650  22.224  0.00  0.00    +0.000 OA
ATOM     10  C   UNL     1       0.304   9.929  22.387  0.00  0.00    +0.000 A 
ATOM     11  O   UNL     1      -0.099  10.346  23.466  0.00  0.00    +0.000 OA
ATOM     12  N   UNL     1       0.286  10.614  21.189  0.00  0.00    +0.000 N 
ATOM     13  C   UNL     1      -0.175  11.958  20.985  0.00  0.00    +0.000 C 
ENDBRANCH   1   3
BRANCH   1  17
ATOM     14  C   UNL     1       4.333   2.454  19.886  0.00  0.00    +0.000 C 
ATOM     15  C   UNL     1       4.522   3.813  19.294  0.00  0.00    +0.000 A 
ATOM     16  C   UNL     1       3.449   4.612  18.988  0.00  0.00    +0.000 A 
ATOM     17  C   UNL     1       3.716   5.846  18.427  0.00  0.00    +0.000 A 
ATOM     18  N   UNL     1       4.974   6.245  18.149  0.00  0.00    +0.000 NA
ATOM     19  C   UNL     1       5.984   5.404  18.477  0.00  0.00    +0.000 A 
ATOM     20  N   UNL     1       5.784   4.201  19.055  0.00  0.00    +0.000 NA
BRANCH  19  21
ATOM     21  C   UNL     1       7.428   5.777  18.236  0.00  0.00    +0.000 C 
ATOM     22  C   UNL     1       8.037   7.104  18.607  0.00  0.00    +0.000 C 
ATOM     23  C   UNL     1       7.705   6.825  17.172  0.00  0.00    +0.000 C 
ENDBRANCH  19  21
ENDBRANCH   1  17
TORSDOF 3
ENDMDL
MODEL 8
REMARK VINA RESULT:      -7.5      1.636      2.672
REMARK  Name = 
REMARK  5 active torsions:
REMARK  status: ('A' for Active; 'I' for Inactive)
REMARK    1  A    between atoms: C_1  and  C_2
REMARK    2  A    between atoms: C_4  and  N_5
REMARK    3  A    between atoms: N_5  and  C_6
REMARK    4  A    between atoms: N_15  and  C_16
REMARK    5  A    between atoms: C_18  and  C_19
REMARK                            x       y       z     vdW  Elec       q    Type
REMARK                         _______ _______ _______ _____ _____    ______ ____
ROOT
ATOM      1  N   UNL     1       2.841   7.540  17.624  0.00  0.00    +0.000 N 
ATOM      2  H   UNL     1       3.648   8.048  17.275  0.00  0.00    +0.000 HD
ENDROOT
BRANCH   1   3
ATOM      3  C   UNL     1       2.084   8.272  18.569  0.00  0.00    +0.000 A 
ATOM      4  C   UNL     1       1.295   9.358  18.113  0.00  0.00    +0.000 A 
ATOM      5  C   UNL     1       0.512  10.124  18.992  0.00  0.00    +0.000 A 
ATOM      6  C   UNL     1       0.557   9.788  20.326  0.00  0.00    +0.000 A 
ATOM      7  C   UNL     1       1.327   8.744  20.790  0.00  0.00    +0.000 A 
ATOM      8  C   UNL     1       2.100   7.974  19.943  0.00  0.00    +0.000 A 
ATOM      9  O   UNL     1       1.233   8.579  22.164  0.00  0.00    +0.000 OA
ATOM     10  C   UNL     1       0.354   9.609  22.536  0.00  0.00    +0.000 A 
ATOM     11  O   UNL     1       0.020   9.812  23.697  0.00  0.00    +0.000 OA
ATOM     12  N   UNL     1      -0.055  10.330  21.432  0.00  0.00    +0.000 N 
ATOM     13  C   UNL     1      -0.921  11.475  21.437  0.00  0.00    +0.000 C 
ENDBRANCH   1   3
BRANCH   1  17
ATOM     14  C   UNL     1       1.486   2.883  18.399  0.00  0.00    +0.000 C 
ATOM     15  C   UNL     1       2.465   3.927  17.965  0.00  0.00    +0.000 A 
ATOM     16  C   UNL     1       2.158   5.263  18.037  0.00  0.00    +0.000 A 
ATOM     17  C   UNL     1       3.115   6.157  17.597  0.00  0.00    +0.000 A 
ATOM     18  N   UNL     1       4.291   5.746  17.080  0.00  0.00    +0.000 NA
ATOM     19  C   UNL     1       4.524   4.412  17.040  0.00  0.00    +0.000 A 
ATOM     20  N   UNL     1       3.639   3.495  17.484  0.00  0.00    +0.000 NA
BRANCH  19  21
ATOM     21  C   UNL     1       5.825   3.856  16.510  0.00  0.00    +0.000 C 
ATOM     22  C   UNL     1       6.956   4.698  15.979  0.00  0.00    +0.000 C 
ATOM     23  C   UNL     1       6.070   3.971  15.014  0.00  0.00    +0.000 C 
ENDBRANCH  19  21
ENDBRANCH   1  17
TORSDOF 3
ENDMDL
MODEL 9
REMARK VINA RESULT:      -7.5      1.743      2.106
REMARK  Name = 
REMARK  5 active torsions:
REMARK  status: ('A' for Active; 'I' for Inactive)
REMARK    1  A    between atoms: C_1  and  C_2
REMARK    2  A    between atoms: C_4  and  N_5
REMARK    3  A    between atoms: N_5  and  C_6
REMARK    4  A    between atoms: N_15  and  C_16
REMARK    5  A    between atoms: C_18  and  C_19
REMARK                            x       y       z     vdW  Elec       q    Type
REMARK                         _______ _______ _______ _____ _____    ______ ____
ROOT
ATOM      1  N   UNL     1       3.149   5.395  18.435  0.00  0.00    +0.000 N 
ATOM      2  H   UNL     1       2.530   4.820  17.871  0.00  0.00    +0.000 HD
ENDROOT
BRANCH   1   3
ATOM      3  C   UNL     1       2.538   6.579  18.911  0.00  0.00    +0.000 A 
ATOM      4  C   UNL     1       2.063   6.607  20.247  0.00  0.00    +0.000 A 
ATOM      5  C   UNL     1       1.454   7.749  20.791  0.00  0.00    +0.000 A 
ATOM      6  C   UNL     1       1.315   8.840  19.963  0.00  0.00    +0.000 A 
ATOM      7  C   UNL     1       1.759   8.827  18.659  0.00  0.00    +0.000 A 
ATOM      8  C   UNL     1       2.366   7.717  18.105  0.00  0.00    +0.000 A 
ATOM      9  O   UNL     1       1.517  10.024  18.000  0.00  0.00    +0.000 OA
ATOM     10  C   UNL     1       0.874  10.791  18.984  0.00  0.00    +0.000 A 
ATOM     11  O   UNL     1       0.480  11.933  18.785  0.00  0.00    +0.000 OA
ATOM     12  N   UNL     1       0.759  10.082  20.163  0.00  0.00    +0.000 N 
ATOM     13  C   UNL     1       0.124  10.534  21.368  0.00  0.00    +0.000 C 
ENDBRANCH   1   3
BRANCH   1  17
ATOM     14  C   UNL     1       7.991   5.663  19.219  0.00  0.00    +0.000 C 
ATOM     15  C   UNL     1       6.798   5.329  18.383  0.00  0.00    +0.000 A 
ATOM     16  C   UNL     1       5.523   5.560  18.837  0.00  0.00    +0.000 A 
ATOM     17  C   UNL     1       4.479   5.203  18.005  0.00  0.00    +0.000 A 
ATOM     18  N   UNL     1       4.689   4.615  16.810  0.00  0.00    +0.000 NA
ATOM     19  C   UNL     1       5.974   4.416  16.428  0.00  0.00    +0.000 A 
ATOM     20  N   UNL     1       7.032   4.773  17.185  0.00  0.00    +0.000 NA
BRANCH  19  21
ATOM     21  C   UNL     1       6.310   3.794  15.093  0.00  0.00    +0.000 C 
ATOM     22  C   UNL     1       6.931   4.539  13.939  0.00  0.00    +0.000 C 
ATOM     23  C   UNL     1       5.468   4.216  13.900  0.00  0.00    +0.000 C 
ENDBRANCH  19  21
ENDBRANCH   1  17
TORSDOF 3
ENDMDL
