MODEL 1
REMARK VINA RESULT:      -8.7      0.000      0.000
REMARK  Name = 
REMARK  5 active torsions:
REMARK  status: ('A' for Active; 'I' for Inactive)
REMARK    1  A    between atoms: C_7  and  C_8
REMARK    2  A    between atoms: C_8  and  C_9
REMARK    3  A    between atoms: C_12  and  C_13
REMARK    4  A    between atoms: N_15  and  C_16
REMARK    5  A    between atoms: C_16  and  C_17
REMARK                            x       y       z     vdW  Elec       q    Type
REMARK                         _______ _______ _______ _____ _____    ______ ____
ROOT
ATOM      1  C   UNL     1       5.302   4.326  16.871  0.00  0.00    +0.000 A 
ATOM      2  N   UNL     1       6.331   3.941  16.103  0.00  0.00    +0.000 NA
ATOM      3  O   UNL     1       7.297   4.919  16.350  0.00  0.00    +0.000 OA
ATOM      4  C   UNL     1       6.754   5.811  17.243  0.00  0.00    +0.000 A 
ATOM      5  N   UNL     1       5.532   5.463  17.611  0.00  0.00    +0.000 NA
ENDROOT
BRANCH   4   6
ATOM      6  C   UNL     1       7.444   7.037  17.709  0.00  0.00    +0.000 A 
ATOM      7  C   UNL     1       7.292   8.302  17.186  0.00  0.00    +0.000 A 
ATOM      8  N   UNL     1       8.091   9.080  17.969  0.00  0.00    +0.000 N 
ATOM      9  N   UNL     1       8.732   8.340  18.898  0.00  0.00    +0.000 NA
ATOM     10  N   UNL     1       8.340   7.079  18.746  0.00  0.00    +0.000 NA
BRANCH   8  11
ATOM     11  C   UNL     1       8.168  10.533  18.005  0.00  0.00    +0.000 C 
BRANCH  11  12
ATOM     12  C   UNL     1       9.453  11.036  18.612  0.00  0.00    +0.000 A 
ATOM     13  C   UNL     1       9.555  11.233  19.998  0.00  0.00    +0.000 A 
ATOM     14  C   UNL     1      10.745  11.697  20.564  0.00  0.00    +0.000 A 
ATOM     15  C   UNL     1      11.849  11.956  19.755  0.00  0.00    +0.000 A 
ATOM     16  C   UNL     1      11.770  11.739  18.382  0.00  0.00    +0.000 A 
ATOM     17  C   UNL     1      10.582  11.277  17.813  0.00  0.00    +0.000 A 
ENDBRANCH  11  12
ENDBRANCH   8  11
ENDBRANCH   4   6
BRANCH   1  18
ATOM     18  C   UNL     1       3.953   3.716  16.762  0.00  0.00    +0.000 C 
BRANCH  18  25
ATOM     19  F   UNL     1       0.643   4.376  20.319  0.00  0.00    +0.000 F 
ATOM     20  C   UNL     1       1.793   3.822  19.911  0.00  0.00    +0.000 A 
ATOM     21  C   UNL     1       2.545   3.076  20.806  0.00  0.00    +0.000 A 
ATOM     22  C   UNL     1       3.737   2.518  20.370  0.00  0.00    +0.000 A 
ATOM     23  F   UNL     1       4.483   1.803  21.222  0.00  0.00    +0.000 F 
ATOM     24  C   UNL     1       4.183   2.700  19.061  0.00  0.00    +0.000 A 
ATOM     25  C   UNL     1       3.429   3.460  18.153  0.00  0.00    +0.000 A 
ATOM     26  C   UNL     1       2.218   4.019  18.595  0.00  0.00    +0.000 A 
ENDBRANCH  18  25
ENDBRANCH   1  18
TORSDOF 5
ENDMDL
MODEL 2
REMARK VINA RESULT:      -8.5      0.365      1.887
REMARK  Name = 
REMARK  5 active torsions:
REMARK  status: ('A' for Active; 'I' for Inactive)
REMARK    1  A    between atoms: C_7  and  C_8
REMARK    2  A    between atoms: C_8  and  C_9
REMARK    3  A    between atoms: C_12  and  C_13
REMARK    4  A    between atoms: N_15  and  C_16
REMARK    5  A    between atoms: C_16  and  C_17
REMARK                            x       y       z     vdW  Elec       q    Type
REMARK                         _______ _______ _______ _____ _____    ______ ____
ROOT
ATOM      1  C   UNL     1       5.372   4.622  17.006  0.00  0.00    +0.000 A 
ATOM      2  N   UNL     1       6.440   4.120  16.369  0.00  0.00    +0.000 NA
ATOM      3  O   UNL     1       7.438   5.063  16.630  0.00  0.00    +0.000 OA
ATOM      4  C   UNL     1       6.872   6.052  17.398  0.00  0.00    +0.000 A 
ATOM      5  N   UNL     1       5.603   5.801  17.675  0.00  0.00    +0.000 NA
ENDROOT
BRANCH   4   6
ATOM      6  C   UNL     1       7.590   7.273  17.832  0.00  0.00    +0.000 A 
ATOM      7  C   UNL     1       7.471   8.527  17.272  0.00  0.00    +0.000 A 
ATOM      8  N   UNL     1       8.287   9.307  18.036  0.00  0.00    +0.000 N 
ATOM      9  N   UNL     1       8.906   8.578  18.988  0.00  0.00    +0.000 NA
ATOM     10  N   UNL     1       8.484   7.323  18.870  0.00  0.00    +0.000 NA
BRANCH   8  11
ATOM     11  C   UNL     1       8.400  10.758  18.031  0.00  0.00    +0.000 C 
BRANCH  11  12
ATOM     12  C   UNL     1       9.657  11.249  18.701  0.00  0.00    +0.000 A 
ATOM     13  C   UNL     1      10.827  11.458  17.953  0.00  0.00    +0.000 A 
ATOM     14  C   UNL     1      11.993  11.915  18.572  0.00  0.00    +0.000 A 
ATOM     15  C   UNL     1      12.001  12.179  19.939  0.00  0.00    +0.000 A 
ATOM     16  C   UNL     1      10.841  12.001  20.688  0.00  0.00    +0.000 A 
ATOM     17  C   UNL     1       9.675  11.544  20.073  0.00  0.00    +0.000 A 
ENDBRANCH  11  12
ENDBRANCH   8  11
ENDBRANCH   4   6
BRANCH   1  18
ATOM     18  C   UNL     1       4.004   4.077  16.817  0.00  0.00    +0.000 C 
BRANCH  18  25
ATOM     19  F   UNL     1       4.536   1.868  21.163  0.00  0.00    +0.000 F 
ATOM     20  C   UNL     1       3.749   2.519  20.296  0.00  0.00    +0.000 A 
ATOM     21  C   UNL     1       2.412   2.717  20.608  0.00  0.00    +0.000 A 
ATOM     22  C   UNL     1       1.609   3.383  19.695  0.00  0.00    +0.000 A 
ATOM     23  F   UNL     1       0.312   3.576  19.972  0.00  0.00    +0.000 F 
ATOM     24  C   UNL     1       2.122   3.845  18.483  0.00  0.00    +0.000 A 
ATOM     25  C   UNL     1       3.473   3.641  18.160  0.00  0.00    +0.000 A 
ATOM     26  C   UNL     1       4.287   2.972  19.089  0.00  0.00    +0.000 A 
ENDBRANCH  18  25
ENDBRANCH   1  18
TORSDOF 5
ENDMDL
MODEL 3
REMARK VINA RESULT:      -8.3      5.582      8.196
REMARK  Name = 
REMARK  5 active torsions:
REMARK  status: ('A' for Active; 'I' for Inactive)
REMARK    1  A    between atoms: C_7  and  C_8
REMARK    2  A    between atoms: C_8  and  C_9
REMARK    3  A    between atoms: C_12  and  C_13
REMARK    4  A    between atoms: N_15  and  C_16
REMARK    5  A    between atoms: C_16  and  C_17
REMARK                            x       y       z     vdW  Elec       q    Type
REMARK                         _______ _______ _______ _____ _____    ______ ____
ROOT
ATOM      1  C   UNL     1       3.526   4.540  19.675  0.00  0.00    +0.000 A 
ATOM      2  N   UNL     1       2.576   4.063  20.493  0.00  0.00    +0.000 NA
ATOM      3  O   UNL     1       1.757   5.174  20.710  0.00  0.00    +0.000 OA
ATOM      4  C   UNL     1       2.298   6.222  20.006  0.00  0.00    +0.000 A 
ATOM      5  N   UNL     1       3.376   5.863  19.331  0.00  0.00    +0.000 NA
ENDROOT
BRANCH   4   6
ATOM      6  C   UNL     1       1.755   7.601  20.031  0.00  0.00    +0.000 A 
ATOM      7  C   UNL     1       1.797   8.508  18.995  0.00  0.00    +0.000 A 
ATOM      8  N   UNL     1       1.140   9.598  19.485  0.00  0.00    +0.000 N 
ATOM      9  N   UNL     1       0.748   9.397  20.760  0.00  0.00    +0.000 NA
ATOM     10  N   UNL     1       1.122   8.169  21.106  0.00  0.00    +0.000 NA
BRANCH   8  11
ATOM     11  C   UNL     1       0.706  10.782  18.759  0.00  0.00    +0.000 C 
BRANCH  11  12
ATOM     12  C   UNL     1      -0.766  10.761  18.433  0.00  0.00    +0.000 A 
ATOM     13  C   UNL     1      -1.641  11.676  19.040  0.00  0.00    +0.000 A 
ATOM     14  C   UNL     1      -3.006  11.659  18.738  0.00  0.00    +0.000 A 
ATOM     15  C   UNL     1      -3.507  10.740  17.820  0.00  0.00    +0.000 A 
ATOM     16  C   UNL     1      -2.646   9.844  17.192  0.00  0.00    +0.000 A 
ATOM     17  C   UNL     1      -1.283   9.858  17.492  0.00  0.00    +0.000 A 
ENDBRANCH  11  12
ENDBRANCH   8  11
ENDBRANCH   4   6
BRANCH   1  18
ATOM     18  C   UNL     1       4.758   3.776  19.354  0.00  0.00    +0.000 C 
BRANCH  18  25
ATOM     19  F   UNL     1       8.409   7.009  18.842  0.00  0.00    +0.000 F 
ATOM     20  C   UNL     1       7.447   6.267  18.278  0.00  0.00    +0.000 A 
ATOM     21  C   UNL     1       7.223   6.367  16.912  0.00  0.00    +0.000 A 
ATOM     22  C   UNL     1       6.216   5.599  16.347  0.00  0.00    +0.000 A 
ATOM     23  F   UNL     1       5.976   5.689  15.032  0.00  0.00    +0.000 F 
ATOM     24  C   UNL     1       5.435   4.745  17.124  0.00  0.00    +0.000 A 
ATOM     25  C   UNL     1       5.654   4.645  18.508  0.00  0.00    +0.000 A 
ATOM     26  C   UNL     1       6.679   5.418  19.078  0.00  0.00    +0.000 A 
ENDBRANCH  18  25
ENDBRANCH   1  18
TORSDOF 5
ENDMDL
MODEL 4
REMARK VINA RESULT:      -8.2      5.430      7.934
REMARK  Name = 
REMARK  5 active torsions:
REMARK  status: ('A' for Active; 'I' for Inactive)
REMARK    1  A    between atoms: C_7  and  C_8
REMARK    2  A    between atoms: C_8  and  C_9
REMARK    3  A    between atoms: C_12  and  C_13
REMARK    4  A    between atoms: N_15  and  C_16
REMARK    5  A    between atoms: C_16  and  C_17
REMARK                            x       y       z     vdW  Elec       q    Type
REMARK                         _______ _______ _______ _____ _____    ______ ____
ROOT
ATOM      1  C   UNL     1       3.030   4.271  18.665  0.00  0.00    +0.000 A 
ATOM      2  N   UNL     1       3.140   4.045  19.983  0.00  0.00    +0.000 NA
ATOM      3  O   UNL     1       2.687   5.239  20.549  0.00  0.00    +0.000 OA
ATOM      4  C   UNL     1       2.352   6.079  19.514  0.00  0.00    +0.000 A 
ATOM      5  N   UNL     1       2.523   5.506  18.335  0.00  0.00    +0.000 NA
ENDROOT
BRANCH   4   6
ATOM      6  C   UNL     1       1.887   7.474  19.700  0.00  0.00    +0.000 A 
ATOM      7  C   UNL     1       1.861   8.456  18.734  0.00  0.00    +0.000 A 
ATOM      8  N   UNL     1       1.320   9.532  19.374  0.00  0.00    +0.000 N 
ATOM      9  N   UNL     1       1.062   9.250  20.667  0.00  0.00    +0.000 NA
ATOM     10  N   UNL     1       1.408   7.984  20.879  0.00  0.00    +0.000 NA
BRANCH   8  11
ATOM     11  C   UNL     1       0.871  10.787  18.789  0.00  0.00    +0.000 C 
BRANCH  11  12
ATOM     12  C   UNL     1      -0.607  10.795  18.490  0.00  0.00    +0.000 A 
ATOM     13  C   UNL     1      -1.459  11.700  19.143  0.00  0.00    +0.000 A 
ATOM     14  C   UNL     1      -2.828  11.712  18.867  0.00  0.00    +0.000 A 
ATOM     15  C   UNL     1      -3.359  10.831  17.927  0.00  0.00    +0.000 A 
ATOM     16  C   UNL     1      -2.521   9.946  17.253  0.00  0.00    +0.000 A 
ATOM     17  C   UNL     1      -1.153   9.931  17.528  0.00  0.00    +0.000 A 
ENDBRANCH  11  12
ENDBRANCH   8  11
ENDBRANCH   4   6
BRANCH   1  18
ATOM     18  C   UNL     1       3.618   3.362  17.649  0.00  0.00    +0.000 C 
BRANCH  18  25
ATOM     19  F   UNL     1       6.682   4.675  14.053  0.00  0.00    +0.000 F 
ATOM     20  C   UNL     1       6.426   4.581  15.365  0.00  0.00    +0.000 A 
ATOM     21  C   UNL     1       7.399   4.965  16.277  0.00  0.00    +0.000 A 
ATOM     22  C   UNL     1       7.122   4.852  17.631  0.00  0.00    +0.000 A 
ATOM     23  F   UNL     1       8.051   5.207  18.527  0.00  0.00    +0.000 F 
ATOM     24  C   UNL     1       5.896   4.359  18.078  0.00  0.00    +0.000 A 
ATOM     25  C   UNL     1       4.911   3.963  17.160  0.00  0.00    +0.000 A 
ATOM     26  C   UNL     1       5.191   4.085  15.788  0.00  0.00    +0.000 A 
ENDBRANCH  18  25
ENDBRANCH   1  18
TORSDOF 5
ENDMDL
MODEL 5
REMARK VINA RESULT:      -8.2      5.470      7.961
REMARK  Name = 
REMARK  5 active torsions:
REMARK  status: ('A' for Active; 'I' for Inactive)
REMARK    1  A    between atoms: C_7  and  C_8
REMARK    2  A    between atoms: C_8  and  C_9
REMARK    3  A    between atoms: C_12  and  C_13
REMARK    4  A    between atoms: N_15  and  C_16
REMARK    5  A    between atoms: C_16  and  C_17
REMARK                            x       y       z     vdW  Elec       q    Type
REMARK                         _______ _______ _______ _____ _____    ______ ____
ROOT
ATOM      1  C   UNL     1       3.061   4.177  19.205  0.00  0.00    +0.000 A 
ATOM      2  N   UNL     1       2.826   3.951  20.506  0.00  0.00    +0.000 NA
ATOM      3  O   UNL     1       2.289   5.163  20.948  0.00  0.00    +0.000 OA
ATOM      4  C   UNL     1       2.258   6.011  19.868  0.00  0.00    +0.000 A 
ATOM      5  N   UNL     1       2.701   5.430  18.766  0.00  0.00    +0.000 NA
ENDROOT
BRANCH   4   6
ATOM      6  C   UNL     1       1.815   7.424  19.940  0.00  0.00    +0.000 A 
ATOM      7  C   UNL     1       1.885   8.349  18.921  0.00  0.00    +0.000 A 
ATOM      8  N   UNL     1       1.324   9.470  19.457  0.00  0.00    +0.000 N 
ATOM      9  N   UNL     1       0.963   9.269  20.741  0.00  0.00    +0.000 NA
ATOM     10  N   UNL     1       1.261   8.010  21.049  0.00  0.00    +0.000 NA
BRANCH   8  11
ATOM     11  C   UNL     1       0.950  10.698  18.771  0.00  0.00    +0.000 C 
BRANCH  11  12
ATOM     12  C   UNL     1      -0.530  10.788  18.499  0.00  0.00    +0.000 A 
ATOM     13  C   UNL     1      -1.142   9.903  17.597  0.00  0.00    +0.000 A 
ATOM     14  C   UNL     1      -2.514   9.982  17.345  0.00  0.00    +0.000 A 
ATOM     15  C   UNL     1      -3.291  10.936  17.998  0.00  0.00    +0.000 A 
ATOM     16  C   UNL     1      -2.701  11.804  18.914  0.00  0.00    +0.000 A 
ATOM     17  C   UNL     1      -1.331  11.727  19.168  0.00  0.00    +0.000 A 
ENDBRANCH  11  12
ENDBRANCH   8  11
ENDBRANCH   4   6
BRANCH   1  18
ATOM     18  C   UNL     1       3.851   3.243  18.365  0.00  0.00    +0.000 C 
BRANCH  18  25
ATOM     19  F   UNL     1       5.890   4.972  14.253  0.00  0.00    +0.000 F 
ATOM     20  C   UNL     1       5.920   4.856  15.588  0.00  0.00    +0.000 A 
ATOM     21  C   UNL     1       6.983   5.400  16.294  0.00  0.00    +0.000 A 
ATOM     22  C   UNL     1       7.004   5.262  17.674  0.00  0.00    +0.000 A 
ATOM     23  F   UNL     1       8.027   5.770  18.373  0.00  0.00    +0.000 F 
ATOM     24  C   UNL     1       5.985   4.590  18.348  0.00  0.00    +0.000 A 
ATOM     25  C   UNL     1       4.910   4.032  17.638  0.00  0.00    +0.000 A 
ATOM     26  C   UNL     1       4.887   4.179  16.241  0.00  0.00    +0.000 A 
ENDBRANCH  18  25
ENDBRANCH   1  18
TORSDOF 5
ENDMDL
MODEL 6
REMARK VINA RESULT:      -8.1      1.450      1.914
REMARK  Name = 
REMARK  5 active torsions:
REMARK  status: ('A' for Active; 'I' for Inactive)
REMARK    1  A    between atoms: C_7  and  C_8
REMARK    2  A    between atoms: C_8  and  C_9
REMARK    3  A    between atoms: C_12  and  C_13
REMARK    4  A    between atoms: N_15  and  C_16
REMARK    5  A    between atoms: C_16  and  C_17
REMARK                            x       y       z     vdW  Elec       q    Type
REMARK                         _______ _______ _______ _____ _____    ______ ____
ROOT
ATOM      1  C   UNL     1       5.454   3.977  18.345  0.00  0.00    +0.000 A 
ATOM      2  N   UNL     1       5.058   4.304  17.107  0.00  0.00    +0.000 NA
ATOM      3  O   UNL     1       5.756   5.487  16.852  0.00  0.00    +0.000 OA
ATOM      4  C   UNL     1       6.505   5.766  17.969  0.00  0.00    +0.000 A 
ATOM      5  N   UNL     1       6.367   4.841  18.904  0.00  0.00    +0.000 NA
ENDROOT
BRANCH   4   6
ATOM      6  C   UNL     1       7.340   6.981  18.121  0.00  0.00    +0.000 A 
ATOM      7  C   UNL     1       7.172   8.171  17.447  0.00  0.00    +0.000 A 
ATOM      8  N   UNL     1       8.145   8.978  17.957  0.00  0.00    +0.000 N 
ATOM      9  N   UNL     1       8.898   8.321  18.863  0.00  0.00    +0.000 NA
ATOM     10  N   UNL     1       8.410   7.089  18.972  0.00  0.00    +0.000 NA
BRANCH   8  11
ATOM     11  C   UNL     1       8.314  10.411  17.759  0.00  0.00    +0.000 C 
BRANCH  11  12
ATOM     12  C   UNL     1       9.495  10.969  18.510  0.00  0.00    +0.000 A 
ATOM     13  C   UNL     1      10.677  11.304  17.830  0.00  0.00    +0.000 A 
ATOM     14  C   UNL     1      11.773  11.823  18.523  0.00  0.00    +0.000 A 
ATOM     15  C   UNL     1      11.697  12.025  19.899  0.00  0.00    +0.000 A 
ATOM     16  C   UNL     1      10.523  11.721  20.583  0.00  0.00    +0.000 A 
ATOM     17  C   UNL     1       9.426  11.201  19.893  0.00  0.00    +0.000 A 
ENDBRANCH  11  12
ENDBRANCH   8  11
ENDBRANCH   4   6
BRANCH   1  18
ATOM     18  C   UNL     1       4.795   2.907  19.136  0.00  0.00    +0.000 C 
BRANCH  18  25
ATOM     19  F   UNL     1       1.356   5.816  21.075  0.00  0.00    +0.000 F 
ATOM     20  C   UNL     1       1.667   4.732  20.351  0.00  0.00    +0.000 A 
ATOM     21  C   UNL     1       0.650   3.917  19.875  0.00  0.00    +0.000 A 
ATOM     22  C   UNL     1       0.989   2.793  19.137  0.00  0.00    +0.000 A 
ATOM     23  F   UNL     1       0.023   1.988  18.678  0.00  0.00    +0.000 F 
ATOM     24  C   UNL     1       2.322   2.477  18.874  0.00  0.00    +0.000 A 
ATOM     25  C   UNL     1       3.355   3.295  19.359  0.00  0.00    +0.000 A 
ATOM     26  C   UNL     1       3.009   4.436  20.101  0.00  0.00    +0.000 A 
ENDBRANCH  18  25
ENDBRANCH   1  18
TORSDOF 5
ENDMDL
MODEL 7
REMARK VINA RESULT:      -8.1      5.457      8.049
REMARK  Name = 
REMARK  5 active torsions:
REMARK  status: ('A' for Active; 'I' for Inactive)
REMARK    1  A    between atoms: C_7  and  C_8
REMARK    2  A    between atoms: C_8  and  C_9
REMARK    3  A    between atoms: C_12  and  C_13
REMARK    4  A    between atoms: N_15  and  C_16
REMARK    5  A    between atoms: C_16  and  C_17
REMARK                            x       y       z     vdW  Elec       q    Type
REMARK                         _______ _______ _______ _____ _____    ______ ____
ROOT
ATOM      1  C   UNL     1       3.065   4.370  18.490  0.00  0.00    +0.000 A 
ATOM      2  N   UNL     1       3.307   4.168  19.793  0.00  0.00    +0.000 NA
ATOM      3  O   UNL     1       2.865   5.354  20.386  0.00  0.00    +0.000 OA
ATOM      4  C   UNL     1       2.404   6.166  19.378  0.00  0.00    +0.000 A 
ATOM      5  N   UNL     1       2.485   5.582  18.194  0.00  0.00    +0.000 NA
ENDROOT
BRANCH   4   6
ATOM      6  C   UNL     1       1.909   7.546  19.590  0.00  0.00    +0.000 A 
ATOM      7  C   UNL     1       1.880   8.551  18.648  0.00  0.00    +0.000 A 
ATOM      8  N   UNL     1       1.307   9.600  19.305  0.00  0.00    +0.000 N 
ATOM      9  N   UNL     1       1.033   9.281  20.587  0.00  0.00    +0.000 NA
ATOM     10  N   UNL     1       1.401   8.017  20.773  0.00  0.00    +0.000 NA
BRANCH   8  11
ATOM     11  C   UNL     1       0.842  10.861  18.744  0.00  0.00    +0.000 C 
BRANCH  11  12
ATOM     12  C   UNL     1      -0.637  10.860  18.453  0.00  0.00    +0.000 A 
ATOM     13  C   UNL     1      -1.181   9.947  17.536  0.00  0.00    +0.000 A 
ATOM     14  C   UNL     1      -2.552   9.944  17.266  0.00  0.00    +0.000 A 
ATOM     15  C   UNL     1      -3.394  10.842  17.917  0.00  0.00    +0.000 A 
ATOM     16  C   UNL     1      -2.871  11.736  18.848  0.00  0.00    +0.000 A 
ATOM     17  C   UNL     1      -1.502  11.742  19.119  0.00  0.00    +0.000 A 
ENDBRANCH  11  12
ENDBRANCH   8  11
ENDBRANCH   4   6
BRANCH   1  18
ATOM     18  C   UNL     1       3.588   3.467  17.433  0.00  0.00    +0.000 C 
BRANCH  18  25
ATOM     19  F   UNL     1       8.013   5.386  18.319  0.00  0.00    +0.000 F 
ATOM     20  C   UNL     1       7.101   4.967  17.430  0.00  0.00    +0.000 A 
ATOM     21  C   UNL     1       7.362   5.097  16.074  0.00  0.00    +0.000 A 
ATOM     22  C   UNL     1       6.403   4.669  15.169  0.00  0.00    +0.000 A 
ATOM     23  F   UNL     1       6.631   4.796  13.855  0.00  0.00    +0.000 F 
ATOM     24  C   UNL     1       5.196   4.120  15.601  0.00  0.00    +0.000 A 
ATOM     25  C   UNL     1       4.924   3.992  16.972  0.00  0.00    +0.000 A 
ATOM     26  C   UNL     1       5.900   4.420  17.888  0.00  0.00    +0.000 A 
ENDBRANCH  18  25
ENDBRANCH   1  18
TORSDOF 5
ENDMDL
MODEL 8
REMARK VINA RESULT:      -8.1      5.815      8.518
REMARK  Name = 
REMARK  5 active torsions:
REMARK  status: ('A' for Active; 'I' for Inactive)
REMARK    1  A    between atoms: C_7  and  C_8
REMARK    2  A    between atoms: C_8  and  C_9
REMARK    3  A    between atoms: C_12  and  C_13
REMARK    4  A    between atoms: N_15  and  C_16
REMARK    5  A    between atoms: C_16  and  C_17
REMARK                            x       y       z     vdW  Elec       q    Type
REMARK                         _______ _______ _______ _____ _____    ______ ____
ROOT
ATOM      1  C   UNL     1       1.089   9.787  19.651  0.00  0.00    +0.000 A 
ATOM      2  N   UNL     1       0.614   9.604  20.891  0.00  0.00    +0.000 NA
ATOM      3  O   UNL     1       1.007   8.298  21.193  0.00  0.00    +0.000 OA
ATOM      4  C   UNL     1       1.679   7.812  20.098  0.00  0.00    +0.000 A 
ATOM      5  N   UNL     1       1.775   8.713  19.134  0.00  0.00    +0.000 NA
ENDROOT
BRANCH   4   6
ATOM      6  C   UNL     1       2.201   6.429  19.996  0.00  0.00    +0.000 A 
ATOM      7  C   UNL     1       3.343   6.040  19.332  0.00  0.00    +0.000 A 
ATOM      8  N   UNL     1       3.417   4.698  19.562  0.00  0.00    +0.000 N 
ATOM      9  N   UNL     1       2.365   4.271  20.291  0.00  0.00    +0.000 NA
ATOM     10  N   UNL     1       1.609   5.330  20.563  0.00  0.00    +0.000 NA
BRANCH   8  11
ATOM     11  C   UNL     1       4.524   3.800  19.270  0.00  0.00    +0.000 C 
BRANCH  11  12
ATOM     12  C   UNL     1       5.247   4.157  17.997  0.00  0.00    +0.000 A 
ATOM     13  C   UNL     1       6.546   4.688  18.041  0.00  0.00    +0.000 A 
ATOM     14  C   UNL     1       7.218   5.019  16.862  0.00  0.00    +0.000 A 
ATOM     15  C   UNL     1       6.607   4.812  15.627  0.00  0.00    +0.000 A 
ATOM     16  C   UNL     1       5.329   4.263  15.568  0.00  0.00    +0.000 A 
ATOM     17  C   UNL     1       4.654   3.932  16.744  0.00  0.00    +0.000 A 
ENDBRANCH  11  12
ENDBRANCH   8  11
ENDBRANCH   4   6
BRANCH   1  18
ATOM     18  C   UNL     1       0.712  10.957  18.818  0.00  0.00    +0.000 C 
BRANCH  18  25
ATOM     19  F   UNL     1      -3.080   9.177  16.268  0.00  0.00    +0.000 F 
ATOM     20  C   UNL     1      -2.624  10.000  17.222  0.00  0.00    +0.000 A 
ATOM     21  C   UNL     1      -3.513  10.841  17.876  0.00  0.00    +0.000 A 
ATOM     22  C   UNL     1      -3.023  11.695  18.853  0.00  0.00    +0.000 A 
ATOM     23  F   UNL     1      -3.863  12.523  19.488  0.00  0.00    +0.000 F 
ATOM     24  C   UNL     1      -1.667  11.718  19.178  0.00  0.00    +0.000 A 
ATOM     25  C   UNL     1      -0.763  10.874  18.515  0.00  0.00    +0.000 A 
ATOM     26  C   UNL     1      -1.262  10.005  17.530  0.00  0.00    +0.000 A 
ENDBRANCH  18  25
ENDBRANCH   1  18
TORSDOF 5
ENDMDL
MODEL 9
REMARK VINA RESULT:      -8.0      4.541      7.045
REMARK  Name = 
REMARK  5 active torsions:
REMARK  status: ('A' for Active; 'I' for Inactive)
REMARK    1  A    between atoms: C_7  and  C_8
REMARK    2  A    between atoms: C_8  and  C_9
REMARK    3  A    between atoms: C_12  and  C_13
REMARK    4  A    between atoms: N_15  and  C_16
REMARK    5  A    between atoms: C_16  and  C_17
REMARK                            x       y       z     vdW  Elec       q    Type
REMARK                         _______ _______ _______ _____ _____    ______ ____
ROOT
ATOM      1  C   UNL     1       4.988   5.399  18.727  0.00  0.00    +0.000 A 
ATOM      2  N   UNL     1       5.871   4.492  19.170  0.00  0.00    +0.000 NA
ATOM      3  O   UNL     1       6.733   4.329  18.082  0.00  0.00    +0.000 OA
ATOM      4  C   UNL     1       6.281   5.151  17.078  0.00  0.00    +0.000 A 
ATOM      5  N   UNL     1       5.221   5.850  17.448  0.00  0.00    +0.000 NA
ENDROOT
BRANCH   4   6
ATOM      6  C   UNL     1       6.890   5.217  15.729  0.00  0.00    +0.000 A 
ATOM      7  C   UNL     1       6.383   4.648  14.581  0.00  0.00    +0.000 A 
ATOM      8  N   UNL     1       7.266   5.020  13.612  0.00  0.00    +0.000 N 
ATOM      9  N   UNL     1       8.281   5.743  14.129  0.00  0.00    +0.000 NA
ATOM     10  N   UNL     1       8.059   5.870  15.433  0.00  0.00    +0.000 NA
BRANCH   8  11
ATOM     11  C   UNL     1       7.128   4.872  12.170  0.00  0.00    +0.000 C 
BRANCH  11  12
ATOM     12  C   UNL     1       6.630   3.507  11.768  0.00  0.00    +0.000 A 
ATOM     13  C   UNL     1       7.538   2.490  11.433  0.00  0.00    +0.000 A 
ATOM     14  C   UNL     1       7.080   1.223  11.062  0.00  0.00    +0.000 A 
ATOM     15  C   UNL     1       5.714   0.955  11.034  0.00  0.00    +0.000 A 
ATOM     16  C   UNL     1       4.803   1.947  11.389  0.00  0.00    +0.000 A 
ATOM     17  C   UNL     1       5.258   3.214  11.759  0.00  0.00    +0.000 A 
ENDBRANCH  11  12
ENDBRANCH   8  11
ENDBRANCH   4   6
BRANCH   1  18
ATOM     18  C   UNL     1       3.738   5.718  19.460  0.00  0.00    +0.000 C 
BRANCH  18  25
ATOM     19  F   UNL     1       0.938   2.540  21.933  0.00  0.00    +0.000 F 
ATOM     20  C   UNL     1       1.534   2.893  20.785  0.00  0.00    +0.000 A 
ATOM     21  C   UNL     1       1.440   2.055  19.684  0.00  0.00    +0.000 A 
ATOM     22  C   UNL     1       2.071   2.430  18.508  0.00  0.00    +0.000 A 
ATOM     23  F   UNL     1       2.002   1.629  17.436  0.00  0.00    +0.000 F 
ATOM     24  C   UNL     1       2.792   3.620  18.423  0.00  0.00    +0.000 A 
ATOM     25  C   UNL     1       2.896   4.469  19.536  0.00  0.00    +0.000 A 
ATOM     26  C   UNL     1       2.250   4.091  20.725  0.00  0.00    +0.000 A 
ENDBRANCH  18  25
ENDBRANCH   1  18
TORSDOF 5
ENDMDL
