MODEL 1
REMARK VINA RESULT:      -9.0      0.000      0.000
REMARK  Name = 
REMARK  2 active torsions:
REMARK  status: ('A' for Active; 'I' for Inactive)
REMARK    1  A    between atoms: N_4  and  C_5
REMARK    2  A    between atoms: C_5  and  C_6
REMARK                            x       y       z     vdW  Elec       q    Type
REMARK                         _______ _______ _______ _____ _____    ______ ____
ROOT
ATOM      1  C   UNL     1       2.227   6.104  20.054  0.00  0.00    +0.000 A 
ATOM      2  C   UNL     1       1.328   5.157  20.431  0.00  0.00    +0.000 A 
ATOM      3  C   UNL     1       1.406   3.770  20.041  0.00  0.00    +0.000 A 
ATOM      4  O   UNL     1       0.543   2.969  20.442  0.00  0.00    +0.000 OA
ATOM      5  O   UNL     1       2.503   3.409  19.361  0.00  0.00    +0.000 OA
ATOM      6  C   UNL     1       3.204   4.437  18.784  0.00  0.00    +0.000 A 
ATOM      7  C   UNL     1       4.064   4.020  17.887  0.00  0.00    +0.000 A 
ATOM      8  C   UNL     1       4.644   4.947  16.969  0.00  0.00    +0.000 A 
ATOM      9  C   UNL     1       4.723   6.310  16.634  0.00  0.00    +0.000 A 
ATOM     10  C   UNL     1       4.003   6.629  17.847  0.00  0.00    +0.000 A 
ATOM     11  C   UNL     1       3.140   5.789  18.905  0.00  0.00    +0.000 A 
ATOM     12  C   UNL     1       5.576   5.888  15.191  0.00  0.00    +0.000 C 
ATOM     13  C   UNL     1       5.655   4.315  14.737  0.00  0.00    +0.000 C 
ATOM     14  C   UNL     1       5.155   3.958  16.029  0.00  0.00    +0.000 C 
ENDROOT
BRANCH   1  15
ATOM     15  C   UNL     1       2.158   7.355  20.865  0.00  0.00    +0.000 C 
BRANCH  15  19
ATOM     16  O   UNL     1       2.171  10.662  17.485  0.00  0.00    +0.000 OA
ATOM     17  C   UNL     1       1.632  10.277  18.529  0.00  0.00    +0.000 C 
ATOM     18  C   UNL     1       1.304   8.792  18.819  0.00  0.00    +0.000 C 
ATOM     19  N   UNL     1       1.355   8.436  20.249  0.00  0.00    +0.000 N 
ATOM     20  C   UNL     1       0.682   9.367  21.062  0.00  0.00    +0.000 A 
ATOM     21  C   UNL     1       0.069   9.002  22.265  0.00  0.00    +0.000 A 
ATOM     22  C   UNL     1      -0.698   9.931  22.995  0.00  0.00    +0.000 A 
ATOM     23  C   UNL     1      -0.776  11.253  22.608  0.00  0.00    +0.000 A 
ATOM     24  C   UNL     1      -0.119  11.657  21.453  0.00  0.00    +0.000 A 
ATOM     25  C   UNL     1       0.596  10.726  20.682  0.00  0.00    +0.000 A 
ATOM     26  N   UNL     1       1.164  11.176  19.470  0.00  0.00    +0.000 N 
ATOM     27  H   UNL     1       1.216  12.166  19.264  0.00  0.00    +0.000 HD
ENDBRANCH  15  19
ENDBRANCH   1  15
TORSDOF 2
ENDMDL
MODEL 2
REMARK VINA RESULT:      -8.9      3.011      7.558
REMARK  Name = 
REMARK  2 active torsions:
REMARK  status: ('A' for Active; 'I' for Inactive)
REMARK    1  A    between atoms: N_4  and  C_5
REMARK    2  A    between atoms: C_5  and  C_6
REMARK                            x       y       z     vdW  Elec       q    Type
REMARK                         _______ _______ _______ _____ _____    ______ ____
ROOT
ATOM      1  C   UNL     1       3.823   4.033  18.320  0.00  0.00    +0.000 A 
ATOM      2  C   UNL     1       4.204   3.066  19.196  0.00  0.00    +0.000 A 
ATOM      3  C   UNL     1       3.655   2.917  20.522  0.00  0.00    +0.000 A 
ATOM      4  O   UNL     1       4.055   1.994  21.254  0.00  0.00    +0.000 OA
ATOM      5  O   UNL     1       2.633   3.728  20.833  0.00  0.00    +0.000 OA
ATOM      6  C   UNL     1       2.497   4.836  20.036  0.00  0.00    +0.000 A 
ATOM      7  C   UNL     1       1.705   5.739  20.560  0.00  0.00    +0.000 A 
ATOM      8  C   UNL     1       1.695   7.068  20.040  0.00  0.00    +0.000 A 
ATOM      9  C   UNL     1       2.213   7.891  19.024  0.00  0.00    +0.000 A 
ATOM     10  C   UNL     1       2.788   6.720  18.398  0.00  0.00    +0.000 A 
ATOM     11  C   UNL     1       3.065   5.211  18.859  0.00  0.00    +0.000 A 
ATOM     12  C   UNL     1       1.515   9.266  19.805  0.00  0.00    +0.000 C 
ATOM     13  C   UNL     1       0.904   9.104  21.318  0.00  0.00    +0.000 C 
ATOM     14  C   UNL     1       1.002   7.685  21.163  0.00  0.00    +0.000 C 
ENDROOT
BRANCH   1  15
ATOM     15  C   UNL     1       4.240   3.768  16.912  0.00  0.00    +0.000 C 
BRANCH  15  19
ATOM     16  O   UNL     1       7.787   6.652  18.118  0.00  0.00    +0.000 OA
ATOM     17  C   UNL     1       7.353   5.877  17.257  0.00  0.00    +0.000 C 
ATOM     18  C   UNL     1       6.677   4.526  17.593  0.00  0.00    +0.000 C 
ATOM     19  N   UNL     1       5.649   4.114  16.619  0.00  0.00    +0.000 N 
ATOM     20  C   UNL     1       6.080   4.252  15.286  0.00  0.00    +0.000 A 
ATOM     21  C   UNL     1       5.615   3.423  14.261  0.00  0.00    +0.000 A 
ATOM     22  C   UNL     1       6.154   3.509  12.962  0.00  0.00    +0.000 A 
ATOM     23  C   UNL     1       7.074   4.483  12.634  0.00  0.00    +0.000 A 
ATOM     24  C   UNL     1       7.502   5.364  13.618  0.00  0.00    +0.000 A 
ATOM     25  C   UNL     1       7.019   5.248  14.933  0.00  0.00    +0.000 A 
ATOM     26  N   UNL     1       7.561   6.112  15.910  0.00  0.00    +0.000 N 
ATOM     27  H   UNL     1       8.129   6.905  15.636  0.00  0.00    +0.000 HD
ENDBRANCH  15  19
ENDBRANCH   1  15
TORSDOF 2
ENDMDL
MODEL 3
REMARK VINA RESULT:      -8.7      3.372      5.948
REMARK  Name = 
REMARK  2 active torsions:
REMARK  status: ('A' for Active; 'I' for Inactive)
REMARK    1  A    between atoms: N_4  and  C_5
REMARK    2  A    between atoms: C_5  and  C_6
REMARK                            x       y       z     vdW  Elec       q    Type
REMARK                         _______ _______ _______ _____ _____    ______ ____
ROOT
ATOM      1  C   UNL     1       6.182   5.133  18.372  0.00  0.00    +0.000 A 
ATOM      2  C   UNL     1       7.092   5.983  18.918  0.00  0.00    +0.000 A 
ATOM      3  C   UNL     1       7.879   6.920  18.155  0.00  0.00    +0.000 A 
ATOM      4  O   UNL     1       8.682   7.670  18.739  0.00  0.00    +0.000 OA
ATOM      5  O   UNL     1       7.589   7.009  16.848  0.00  0.00    +0.000 OA
ATOM      6  C   UNL     1       6.886   5.953  16.328  0.00  0.00    +0.000 A 
ATOM      7  C   UNL     1       6.904   5.932  15.017  0.00  0.00    +0.000 A 
ATOM      8  C   UNL     1       6.508   4.754  14.317  0.00  0.00    +0.000 A 
ATOM      9  C   UNL     1       5.979   3.461  14.482  0.00  0.00    +0.000 A 
ATOM     10  C   UNL     1       5.748   3.757  15.879  0.00  0.00    +0.000 A 
ATOM     11  C   UNL     1       6.240   4.898  16.891  0.00  0.00    +0.000 A 
ATOM     12  C   UNL     1       6.278   3.144  12.809  0.00  0.00    +0.000 C 
ATOM     13  C   UNL     1       7.184   4.199  11.942  0.00  0.00    +0.000 C 
ATOM     14  C   UNL     1       7.068   5.127  13.025  0.00  0.00    +0.000 C 
ENDROOT
BRANCH   1  15
ATOM     15  C   UNL     1       5.241   4.539  19.366  0.00  0.00    +0.000 C 
BRANCH  15  19
ATOM     16  O   UNL     1       1.879   7.550  20.775  0.00  0.00    +0.000 OA
ATOM     17  C   UNL     1       2.110   6.481  20.199  0.00  0.00    +0.000 C 
ATOM     18  C   UNL     1       3.272   6.292  19.193  0.00  0.00    +0.000 C 
ATOM     19  N   UNL     1       3.825   4.926  19.170  0.00  0.00    +0.000 N 
ATOM     20  C   UNL     1       2.824   3.937  19.120  0.00  0.00    +0.000 A 
ATOM     21  C   UNL     1       3.026   2.700  18.501  0.00  0.00    +0.000 A 
ATOM     22  C   UNL     1       1.968   1.780  18.363  0.00  0.00    +0.000 A 
ATOM     23  C   UNL     1       0.733   2.022  18.929  0.00  0.00    +0.000 A 
ATOM     24  C   UNL     1       0.526   3.215  19.609  0.00  0.00    +0.000 A 
ATOM     25  C   UNL     1       1.555   4.168  19.698  0.00  0.00    +0.000 A 
ATOM     26  N   UNL     1       1.256   5.400  20.320  0.00  0.00    +0.000 N 
ATOM     27  H   UNL     1       0.398   5.515  20.846  0.00  0.00    +0.000 HD
ENDBRANCH  15  19
ENDBRANCH   1  15
TORSDOF 2
ENDMDL
MODEL 4
REMARK VINA RESULT:      -8.4      4.174      8.761
REMARK  Name = 
REMARK  2 active torsions:
REMARK  status: ('A' for Active; 'I' for Inactive)
REMARK    1  A    between atoms: N_4  and  C_5
REMARK    2  A    between atoms: C_5  and  C_6
REMARK                            x       y       z     vdW  Elec       q    Type
REMARK                         _______ _______ _______ _____ _____    ______ ____
ROOT
ATOM      1  C   UNL     1      -2.026  11.820  18.387  0.00  0.00    +0.000 A 
ATOM      2  C   UNL     1      -1.986  10.913  17.375  0.00  0.00    +0.000 A 
ATOM      3  C   UNL     1      -3.157  10.397  16.707  0.00  0.00    +0.000 A 
ATOM      4  O   UNL     1      -3.027   9.576  15.782  0.00  0.00    +0.000 OA
ATOM      5  O   UNL     1      -4.327  10.951  17.055  0.00  0.00    +0.000 OA
ATOM      6  C   UNL     1      -4.326  11.630  18.247  0.00  0.00    +0.000 A 
ATOM      7  C   UNL     1      -5.536  11.874  18.689  0.00  0.00    +0.000 A 
ATOM      8  C   UNL     1      -5.733  12.277  20.044  0.00  0.00    +0.000 A 
ATOM      9  C   UNL     1      -5.064  12.624  21.232  0.00  0.00    +0.000 A 
ATOM     10  C   UNL     1      -3.811  12.600  20.508  0.00  0.00    +0.000 A 
ATOM     11  C   UNL     1      -3.337  12.036  19.085  0.00  0.00    +0.000 A 
ATOM     12  C   UNL     1      -6.580  12.636  22.062  0.00  0.00    +0.000 C 
ATOM     13  C   UNL     1      -7.909  12.037  21.313  0.00  0.00    +0.000 C 
ATOM     14  C   UNL     1      -7.168  12.030  20.089  0.00  0.00    +0.000 C 
ENDROOT
BRANCH   1  15
ATOM     15  C   UNL     1      -0.714  12.475  18.659  0.00  0.00    +0.000 C 
BRANCH  15  19
ATOM     16  O   UNL     1       2.251   9.008  17.419  0.00  0.00    +0.000 OA
ATOM     17  C   UNL     1       1.693   9.579  18.362  0.00  0.00    +0.000 C 
ATOM     18  C   UNL     1       1.543  11.117  18.455  0.00  0.00    +0.000 C 
ATOM     19  N   UNL     1       0.331  11.557  19.169  0.00  0.00    +0.000 N 
ATOM     20  C   UNL     1       0.132  10.863  20.377  0.00  0.00    +0.000 A 
ATOM     21  C   UNL     1      -0.510  11.443  21.476  0.00  0.00    +0.000 A 
ATOM     22  C   UNL     1      -0.587  10.765  22.708  0.00  0.00    +0.000 A 
ATOM     23  C   UNL     1      -0.134   9.469  22.839  0.00  0.00    +0.000 A 
ATOM     24  C   UNL     1       0.447   8.844  21.743  0.00  0.00    +0.000 A 
ATOM     25  C   UNL     1       0.588   9.533  20.526  0.00  0.00    +0.000 A 
ATOM     26  N   UNL     1       1.269   8.879  19.477  0.00  0.00    +0.000 N 
ATOM     27  H   UNL     1       1.477   7.889  19.537  0.00  0.00    +0.000 HD
ENDBRANCH  15  19
ENDBRANCH   1  15
TORSDOF 2
ENDMDL
MODEL 5
REMARK VINA RESULT:      -8.2      3.059      7.276
REMARK  Name = 
REMARK  2 active torsions:
REMARK  status: ('A' for Active; 'I' for Inactive)
REMARK    1  A    between atoms: N_4  and  C_5
REMARK    2  A    between atoms: C_5  and  C_6
REMARK                            x       y       z     vdW  Elec       q    Type
REMARK                         _______ _______ _______ _____ _____    ______ ____
ROOT
ATOM      1  C   UNL     1       3.617   4.377  18.554  0.00  0.00    +0.000 A 
ATOM      2  C   UNL     1       3.621   3.648  19.702  0.00  0.00    +0.000 A 
ATOM      3  C   UNL     1       2.816   3.959  20.858  0.00  0.00    +0.000 A 
ATOM      4  O   UNL     1       2.875   3.229  21.864  0.00  0.00    +0.000 OA
ATOM      5  O   UNL     1       1.943   4.967  20.716  0.00  0.00    +0.000 OA
ATOM      6  C   UNL     1       2.188   5.815  19.666  0.00  0.00    +0.000 A 
ATOM      7  C   UNL     1       1.514   6.936  19.757  0.00  0.00    +0.000 A 
ATOM      8  C   UNL     1       1.874   8.053  18.944  0.00  0.00    +0.000 A 
ATOM      9  C   UNL     1       2.729   8.472  17.909  0.00  0.00    +0.000 A 
ATOM     10  C   UNL     1       3.159   7.101  17.737  0.00  0.00    +0.000 A 
ATOM     11  C   UNL     1       3.029   5.757  18.601  0.00  0.00    +0.000 A 
ATOM     12  C   UNL     1       2.196  10.098  18.150  0.00  0.00    +0.000 C 
ATOM     13  C   UNL     1       1.294  10.459  19.471  0.00  0.00    +0.000 C 
ATOM     14  C   UNL     1       1.125   9.055  19.690  0.00  0.00    +0.000 C 
ENDROOT
BRANCH   1  15
ATOM     15  C   UNL     1       4.225   3.670  17.390  0.00  0.00    +0.000 C 
BRANCH  15  19
ATOM     16  O   UNL     1       7.644   6.714  18.572  0.00  0.00    +0.000 OA
ATOM     17  C   UNL     1       7.239   5.924  17.712  0.00  0.00    +0.000 C 
ATOM     18  C   UNL     1       6.631   4.540  18.048  0.00  0.00    +0.000 C 
ATOM     19  N   UNL     1       5.614   4.084  17.083  0.00  0.00    +0.000 N 
ATOM     20  C   UNL     1       6.023   4.249  15.747  0.00  0.00    +0.000 A 
ATOM     21  C   UNL     1       5.587   3.403  14.722  0.00  0.00    +0.000 A 
ATOM     22  C   UNL     1       6.107   3.520  13.419  0.00  0.00    +0.000 A 
ATOM     23  C   UNL     1       6.975   4.538  13.085  0.00  0.00    +0.000 A 
ATOM     24  C   UNL     1       7.372   5.434  14.069  0.00  0.00    +0.000 A 
ATOM     25  C   UNL     1       6.910   5.289  15.388  0.00  0.00    +0.000 A 
ATOM     26  N   UNL     1       7.420   6.174  16.364  0.00  0.00    +0.000 N 
ATOM     27  H   UNL     1       7.947   6.994  16.088  0.00  0.00    +0.000 HD
ENDBRANCH  15  19
ENDBRANCH   1  15
TORSDOF 2
ENDMDL
MODEL 6
REMARK VINA RESULT:      -8.2      4.603      9.254
REMARK  Name = 
REMARK  2 active torsions:
REMARK  status: ('A' for Active; 'I' for Inactive)
REMARK    1  A    between atoms: N_4  and  C_5
REMARK    2  A    between atoms: C_5  and  C_6
REMARK                            x       y       z     vdW  Elec       q    Type
REMARK                         _______ _______ _______ _____ _____    ______ ____
ROOT
ATOM      1  C   UNL     1      -2.390  12.376  19.280  0.00  0.00    +0.000 A 
ATOM      2  C   UNL     1      -2.486  11.591  18.175  0.00  0.00    +0.000 A 
ATOM      3  C   UNL     1      -3.737  11.176  17.587  0.00  0.00    +0.000 A 
ATOM      4  O   UNL     1      -3.731  10.465  16.566  0.00  0.00    +0.000 OA
ATOM      5  O   UNL     1      -4.846  11.707  18.122  0.00  0.00    +0.000 OA
ATOM      6  C   UNL     1      -4.696  12.244  19.375  0.00  0.00    +0.000 A 
ATOM      7  C   UNL     1      -5.844  12.456  19.972  0.00  0.00    +0.000 A 
ATOM      8  C   UNL     1      -5.882  12.704  21.377  0.00  0.00    +0.000 A 
ATOM      9  C   UNL     1      -5.079  12.900  22.515  0.00  0.00    +0.000 A 
ATOM     10  C   UNL     1      -3.913  12.937  21.660  0.00  0.00    +0.000 A 
ATOM     11  C   UNL     1      -3.611  12.534  20.139  0.00  0.00    +0.000 A 
ATOM     12  C   UNL     1      -6.496  12.843  23.503  0.00  0.00    +0.000 C 
ATOM     13  C   UNL     1      -7.915  12.358  22.843  0.00  0.00    +0.000 C 
ATOM     14  C   UNL     1      -7.310  12.478  21.552  0.00  0.00    +0.000 C 
ENDROOT
BRANCH   1  15
ATOM     15  C   UNL     1      -1.037  12.973  19.479  0.00  0.00    +0.000 C 
BRANCH  15  19
ATOM     16  O   UNL     1       1.853   9.793  17.505  0.00  0.00    +0.000 OA
ATOM     17  C   UNL     1       1.342  10.187  18.560  0.00  0.00    +0.000 C 
ATOM     18  C   UNL     1       1.203  11.683  18.930  0.00  0.00    +0.000 C 
ATOM     19  N   UNL     1       0.028  11.984  19.768  0.00  0.00    +0.000 N 
ATOM     20  C   UNL     1      -0.115  11.087  20.843  0.00  0.00    +0.000 A 
ATOM     21  C   UNL     1      -0.701  11.461  22.056  0.00  0.00    +0.000 A 
ATOM     22  C   UNL     1      -0.722  10.576  23.151  0.00  0.00    +0.000 A 
ATOM     23  C   UNL     1      -0.267   9.279  23.030  0.00  0.00    +0.000 A 
ATOM     24  C   UNL     1       0.258   8.861  21.814  0.00  0.00    +0.000 A 
ATOM     25  C   UNL     1       0.343   9.754  20.733  0.00  0.00    +0.000 A 
ATOM     26  N   UNL     1       0.970   9.299  19.553  0.00  0.00    +0.000 N 
ATOM     27  H   UNL     1       1.177   8.315  19.428  0.00  0.00    +0.000 HD
ENDBRANCH  15  19
ENDBRANCH   1  15
TORSDOF 2
ENDMDL
MODEL 7
REMARK VINA RESULT:      -8.0      3.298      5.099
REMARK  Name = 
REMARK  2 active torsions:
REMARK  status: ('A' for Active; 'I' for Inactive)
REMARK    1  A    between atoms: N_4  and  C_5
REMARK    2  A    between atoms: C_5  and  C_6
REMARK                            x       y       z     vdW  Elec       q    Type
REMARK                         _______ _______ _______ _____ _____    ______ ____
ROOT
ATOM      1  C   UNL     1       0.761  10.375  20.063  0.00  0.00    +0.000 A 
ATOM      2  C   UNL     1      -0.010  10.506  21.174  0.00  0.00    +0.000 A 
ATOM      3  C   UNL     1      -0.030   9.553  22.258  0.00  0.00    +0.000 A 
ATOM      4  O   UNL     1      -0.760   9.758  23.244  0.00  0.00    +0.000 OA
ATOM      5  O   UNL     1       0.859   8.552  22.181  0.00  0.00    +0.000 OA
ATOM      6  C   UNL     1       1.386   8.328  20.935  0.00  0.00    +0.000 A 
ATOM      7  C   UNL     1       1.990   7.168  20.845  0.00  0.00    +0.000 A 
ATOM      8  C   UNL     1       2.314   6.629  19.564  0.00  0.00    +0.000 A 
ATOM      9  C   UNL     1       2.302   6.902  18.184  0.00  0.00    +0.000 A 
ATOM     10  C   UNL     1       1.914   8.264  18.478  0.00  0.00    +0.000 A 
ATOM     11  C   UNL     1       1.351   9.027  19.771  0.00  0.00    +0.000 A 
ATOM     12  C   UNL     1       2.760   5.264  17.874  0.00  0.00    +0.000 C 
ATOM     13  C   UNL     1       2.724   4.176  19.099  0.00  0.00    +0.000 C 
ATOM     14  C   UNL     1       2.572   5.267  20.012  0.00  0.00    +0.000 C 
ENDROOT
BRANCH   1  15
ATOM     15  C   UNL     1       0.898  11.635  19.275  0.00  0.00    +0.000 C 
BRANCH  15  19
ATOM     16  O   UNL     1      -2.321  14.600  21.064  0.00  0.00    +0.000 OA
ATOM     17  C   UNL     1      -2.093  13.749  20.196  0.00  0.00    +0.000 C 
ATOM     18  C   UNL     1      -0.768  13.682  19.400  0.00  0.00    +0.000 C 
ATOM     19  N   UNL     1      -0.385  12.318  18.991  0.00  0.00    +0.000 N 
ATOM     20  C   UNL     1      -1.457  11.601  18.428  0.00  0.00    +0.000 A 
ATOM     21  C   UNL     1      -1.268  10.612  17.457  0.00  0.00    +0.000 A 
ATOM     22  C   UNL     1      -2.368   9.997  16.829  0.00  0.00    +0.000 A 
ATOM     23  C   UNL     1      -3.661  10.268  17.227  0.00  0.00    +0.000 A 
ATOM     24  C   UNL     1      -3.874  11.197  18.237  0.00  0.00    +0.000 A 
ATOM     25  C   UNL     1      -2.788  11.864  18.828  0.00  0.00    +0.000 A 
ATOM     26  N   UNL     1      -3.072  12.864  19.783  0.00  0.00    +0.000 N 
ATOM     27  H   UNL     1      -4.006  12.960  20.164  0.00  0.00    +0.000 HD
ENDBRANCH  15  19
ENDBRANCH   1  15
TORSDOF 2
ENDMDL
MODEL 8
REMARK VINA RESULT:      -8.0      3.160      6.759
REMARK  Name = 
REMARK  2 active torsions:
REMARK  status: ('A' for Active; 'I' for Inactive)
REMARK    1  A    between atoms: N_4  and  C_5
REMARK    2  A    between atoms: C_5  and  C_6
REMARK                            x       y       z     vdW  Elec       q    Type
REMARK                         _______ _______ _______ _____ _____    ______ ____
ROOT
ATOM      1  C   UNL     1       3.240   7.323  17.292  0.00  0.00    +0.000 A 
ATOM      2  C   UNL     1       2.612   8.502  17.540  0.00  0.00    +0.000 A 
ATOM      3  C   UNL     1       1.958   8.821  18.786  0.00  0.00    +0.000 A 
ATOM      4  O   UNL     1       1.416   9.931  18.930  0.00  0.00    +0.000 OA
ATOM      5  O   UNL     1       2.096   7.923  19.772  0.00  0.00    +0.000 OA
ATOM      6  C   UNL     1       2.482   6.668  19.375  0.00  0.00    +0.000 A 
ATOM      7  C   UNL     1       2.297   5.766  20.308  0.00  0.00    +0.000 A 
ATOM      8  C   UNL     1       2.338   4.378  19.977  0.00  0.00    +0.000 A 
ATOM      9  C   UNL     1       2.590   3.469  18.934  0.00  0.00    +0.000 A 
ATOM     10  C   UNL     1       3.052   4.569  18.116  0.00  0.00    +0.000 A 
ATOM     11  C   UNL     1       2.949   6.166  18.202  0.00  0.00    +0.000 A 
ATOM     12  C   UNL     1       2.024   2.183  19.941  0.00  0.00    +0.000 C 
ATOM     13  C   UNL     1       1.267   2.542  21.350  0.00  0.00    +0.000 C 
ATOM     14  C   UNL     1       1.716   3.892  21.201  0.00  0.00    +0.000 C 
ENDROOT
BRANCH   1  15
ATOM     15  C   UNL     1       4.147   7.361  16.107  0.00  0.00    +0.000 C 
BRANCH  15  19
ATOM     16  O   UNL     1       5.260   2.767  16.134  0.00  0.00    +0.000 OA
ATOM     17  C   UNL     1       5.656   3.911  16.383  0.00  0.00    +0.000 C 
ATOM     18  C   UNL     1       5.390   5.123  15.458  0.00  0.00    +0.000 C 
ATOM     19  N   UNL     1       5.277   6.407  16.174  0.00  0.00    +0.000 N 
ATOM     20  C   UNL     1       6.302   6.591  17.120  0.00  0.00    +0.000 A 
ATOM     21  C   UNL     1       6.784   7.858  17.463  0.00  0.00    +0.000 A 
ATOM     22  C   UNL     1       7.890   8.002  18.323  0.00  0.00    +0.000 A 
ATOM     23  C   UNL     1       8.461   6.909  18.941  0.00  0.00    +0.000 A 
ATOM     24  C   UNL     1       7.957   5.643  18.670  0.00  0.00    +0.000 A 
ATOM     25  C   UNL     1       6.895   5.481  17.764  0.00  0.00    +0.000 A 
ATOM     26  N   UNL     1       6.488   4.164  17.459  0.00  0.00    +0.000 N 
ATOM     27  H   UNL     1       6.818   3.383  18.013  0.00  0.00    +0.000 HD
ENDBRANCH  15  19
ENDBRANCH   1  15
TORSDOF 2
ENDMDL
MODEL 9
REMARK VINA RESULT:      -7.9      3.138      5.580
REMARK  Name = 
REMARK  2 active torsions:
REMARK  status: ('A' for Active; 'I' for Inactive)
REMARK    1  A    between atoms: N_4  and  C_5
REMARK    2  A    between atoms: C_5  and  C_6
REMARK                            x       y       z     vdW  Elec       q    Type
REMARK                         _______ _______ _______ _____ _____    ______ ____
ROOT
ATOM      1  C   UNL     1       5.155   3.962  17.413  0.00  0.00    +0.000 A 
ATOM      2  C   UNL     1       6.054   4.227  18.397  0.00  0.00    +0.000 A 
ATOM      3  C   UNL     1       7.278   4.965  18.195  0.00  0.00    +0.000 A 
ATOM      4  O   UNL     1       8.039   5.171  19.157  0.00  0.00    +0.000 OA
ATOM      5  O   UNL     1       7.450   5.502  16.978  0.00  0.00    +0.000 OA
ATOM      6  C   UNL     1       6.669   4.968  15.984  0.00  0.00    +0.000 A 
ATOM      7  C   UNL     1       7.089   5.293  14.786  0.00  0.00    +0.000 A 
ATOM      8  C   UNL     1       6.607   4.584  13.644  0.00  0.00    +0.000 A 
ATOM      9  C   UNL     1       5.702   3.593  13.225  0.00  0.00    +0.000 A 
ATOM     10  C   UNL     1       5.142   3.571  14.559  0.00  0.00    +0.000 A 
ATOM     11  C   UNL     1       5.602   4.127  15.990  0.00  0.00    +0.000 A 
ATOM     12  C   UNL     1       6.402   3.645  11.646  0.00  0.00    +0.000 C 
ATOM     13  C   UNL     1       7.800   4.470  11.415  0.00  0.00    +0.000 C 
ATOM     14  C   UNL     1       7.627   5.048  12.713  0.00  0.00    +0.000 C 
ENDROOT
BRANCH   1  15
ATOM     15  C   UNL     1       3.821   3.526  17.918  0.00  0.00    +0.000 C 
BRANCH  15  19
ATOM     16  O   UNL     1       1.933   2.253  22.062  0.00  0.00    +0.000 OA
ATOM     17  C   UNL     1       2.271   3.203  21.347  0.00  0.00    +0.000 C 
ATOM     18  C   UNL     1       3.587   3.229  20.533  0.00  0.00    +0.000 C 
ATOM     19  N   UNL     1       3.500   4.006  19.282  0.00  0.00    +0.000 N 
ATOM     20  C   UNL     1       2.885   5.258  19.464  0.00  0.00    +0.000 A 
ATOM     21  C   UNL     1       3.206   6.370  18.678  0.00  0.00    +0.000 A 
ATOM     22  C   UNL     1       2.660   7.636  18.963  0.00  0.00    +0.000 A 
ATOM     23  C   UNL     1       1.712   7.800  19.951  0.00  0.00    +0.000 A 
ATOM     24  C   UNL     1       1.325   6.698  20.702  0.00  0.00    +0.000 A 
ATOM     25  C   UNL     1       1.909   5.441  20.470  0.00  0.00    +0.000 A 
ATOM     26  N   UNL     1       1.543   4.380  21.327  0.00  0.00    +0.000 N 
ATOM     27  H   UNL     1       0.755   4.475  21.955  0.00  0.00    +0.000 HD
ENDBRANCH  15  19
ENDBRANCH   1  15
TORSDOF 2
ENDMDL
