MODEL 1
REMARK VINA RESULT:      -8.5      0.000      0.000
REMARK  Name = 
REMARK  4 active torsions:
REMARK  status: ('A' for Active; 'I' for Inactive)
REMARK    1  A    between atoms: C_6  and  N_7
REMARK    2  A    between atoms: N_7  and  S_8
REMARK    3  A    between atoms: S_8  and  C_11
REMARK    4  A    between atoms: N_14  and  C_15
REMARK                            x       y       z     vdW  Elec       q    Type
REMARK                         _______ _______ _______ _____ _____    ______ ____
ROOT
ATOM      1  S   UNL     1       4.624   4.283  19.077  0.00  0.00    +0.000 S 
ATOM      2  O   UNL     1       5.077   5.307  19.998  0.00  0.00    +0.000 OA
ATOM      3  O   UNL     1       4.644   2.884  19.430  0.00  0.00    +0.000 OA
ENDROOT
BRANCH   1   4
ATOM      4  C   UNL     1       5.700   4.422  17.753  0.00  0.00    +0.000 A 
ATOM      5  C   UNL     1       7.069   4.690  17.786  0.00  0.00    +0.000 A 
ATOM      6  N   UNL     1       7.619   4.649  16.568  0.00  0.00    +0.000 NA
ATOM      7  N   UNL     1       6.573   4.442  15.723  0.00  0.00    +0.000 N 
ATOM      8  C   UNL     1       5.396   4.286  16.419  0.00  0.00    +0.000 A 
BRANCH   7   9
ATOM      9  C   UNL     1       6.745   4.393  14.316  0.00  0.00    +0.000 A 
ATOM     10  C   UNL     1       6.028   3.462  13.552  0.00  0.00    +0.000 A 
ATOM     11  C   UNL     1       6.188   3.426  12.171  0.00  0.00    +0.000 A 
ATOM     12  C   UNL     1       7.079   4.303  11.543  0.00  0.00    +0.000 A 
ATOM     13  C   UNL     1       7.803   5.225  12.296  0.00  0.00    +0.000 A 
ATOM     14  C   UNL     1       7.630   5.275  13.684  0.00  0.00    +0.000 A 
ENDBRANCH   7   9
ENDBRANCH   1   4
BRANCH   1  15
ATOM     15  N   UNL     1       3.070   4.735  18.578  0.00  0.00    +0.000 N 
ATOM     16  H   UNL     1       2.932   4.530  17.591  0.00  0.00    +0.000 HD
BRANCH  15  22
ATOM     17  O   UNL     1       0.880  11.616  18.705  0.00  0.00    +0.000 OA
ATOM     18  C   UNL     1       1.211  10.451  18.853  0.00  0.00    +0.000 C 
ATOM     19  C   UNL     1       1.924   9.562  17.828  0.00  0.00    +0.000 C 
ATOM     20  C   UNL     1       2.049   8.267  18.570  0.00  0.00    +0.000 A 
ATOM     21  C   UNL     1       2.590   7.061  18.159  0.00  0.00    +0.000 A 
ATOM     22  C   UNL     1       2.558   5.982  19.047  0.00  0.00    +0.000 A 
ATOM     23  C   UNL     1       1.995   6.130  20.333  0.00  0.00    +0.000 A 
ATOM     24  C   UNL     1       1.451   7.358  20.740  0.00  0.00    +0.000 A 
ATOM     25  C   UNL     1       1.491   8.402  19.837  0.00  0.00    +0.000 A 
ATOM     26  N   UNL     1       1.003   9.686  19.998  0.00  0.00    +0.000 N 
ATOM     27  H   UNL     1       0.537  10.052  20.815  0.00  0.00    +0.000 HD
ENDBRANCH  15  22
ENDBRANCH   1  15
TORSDOF 4
ENDMDL
MODEL 2
REMARK VINA RESULT:      -8.5      0.861      1.475
REMARK  Name = 
REMARK  4 active torsions:
REMARK  status: ('A' for Active; 'I' for Inactive)
REMARK    1  A    between atoms: C_6  and  N_7
REMARK    2  A    between atoms: N_7  and  S_8
REMARK    3  A    between atoms: S_8  and  C_11
REMARK    4  A    between atoms: N_14  and  C_15
REMARK                            x       y       z     vdW  Elec       q    Type
REMARK                         _______ _______ _______ _____ _____    ______ ____
ROOT
ATOM      1  S   UNL     1       4.937   4.341  19.157  0.00  0.00    +0.000 S 
ATOM      2  O   UNL     1       5.330   5.495  19.941  0.00  0.00    +0.000 OA
ATOM      3  O   UNL     1       5.115   2.996  19.648  0.00  0.00    +0.000 OA
ENDROOT
BRANCH   1   4
ATOM      4  C   UNL     1       5.927   4.439  17.763  0.00  0.00    +0.000 A 
ATOM      5  C   UNL     1       7.299   4.688  17.703  0.00  0.00    +0.000 A 
ATOM      6  N   UNL     1       7.768   4.616  16.453  0.00  0.00    +0.000 NA
ATOM      7  N   UNL     1       6.667   4.407  15.682  0.00  0.00    +0.000 N 
ATOM      8  C   UNL     1       5.536   4.281  16.455  0.00  0.00    +0.000 A 
BRANCH   7   9
ATOM      9  C   UNL     1       6.747   4.327  14.268  0.00  0.00    +0.000 A 
ATOM     10  C   UNL     1       5.936   3.425  13.567  0.00  0.00    +0.000 A 
ATOM     11  C   UNL     1       6.006   3.359  12.180  0.00  0.00    +0.000 A 
ATOM     12  C   UNL     1       6.900   4.180  11.481  0.00  0.00    +0.000 A 
ATOM     13  C   UNL     1       7.717   5.073  12.171  0.00  0.00    +0.000 A 
ATOM     14  C   UNL     1       7.635   5.152  13.566  0.00  0.00    +0.000 A 
ENDBRANCH   7   9
ENDBRANCH   1   4
BRANCH   1  15
ATOM     15  N   UNL     1       3.322   4.589  18.708  0.00  0.00    +0.000 N 
ATOM     16  H   UNL     1       3.097   4.066  17.865  0.00  0.00    +0.000 HD
BRANCH  15  22
ATOM     17  O   UNL     1       0.294  10.592  21.342  0.00  0.00    +0.000 OA
ATOM     18  C   UNL     1       0.816   9.664  20.746  0.00  0.00    +0.000 C 
ATOM     19  C   UNL     1       1.011   8.235  21.264  0.00  0.00    +0.000 C 
ATOM     20  C   UNL     1       1.701   7.575  20.110  0.00  0.00    +0.000 A 
ATOM     21  C   UNL     1       2.162   6.276  19.980  0.00  0.00    +0.000 A 
ATOM     22  C   UNL     1       2.806   5.916  18.793  0.00  0.00    +0.000 A 
ATOM     23  C   UNL     1       2.966   6.855  17.753  0.00  0.00    +0.000 A 
ATOM     24  C   UNL     1       2.492   8.169  17.893  0.00  0.00    +0.000 A 
ATOM     25  C   UNL     1       1.870   8.496  19.081  0.00  0.00    +0.000 A 
ATOM     26  N   UNL     1       1.346   9.720  19.460  0.00  0.00    +0.000 N 
ATOM     27  H   UNL     1       1.345  10.566  18.911  0.00  0.00    +0.000 HD
ENDBRANCH  15  22
ENDBRANCH   1  15
TORSDOF 4
ENDMDL
MODEL 3
REMARK VINA RESULT:      -8.4      3.041      6.637
REMARK  Name = 
REMARK  4 active torsions:
REMARK  status: ('A' for Active; 'I' for Inactive)
REMARK    1  A    between atoms: C_6  and  N_7
REMARK    2  A    between atoms: N_7  and  S_8
REMARK    3  A    between atoms: S_8  and  C_11
REMARK    4  A    between atoms: N_14  and  C_15
REMARK                            x       y       z     vdW  Elec       q    Type
REMARK                         _______ _______ _______ _____ _____    ______ ____
ROOT
ATOM      1  S   UNL     1       3.284   2.627  18.108  0.00  0.00    +0.000 S 
ATOM      2  O   UNL     1       2.221   2.517  17.129  0.00  0.00    +0.000 OA
ATOM      3  O   UNL     1       3.454   1.647  19.154  0.00  0.00    +0.000 OA
ENDROOT
BRANCH   1   4
ATOM      4  C   UNL     1       2.936   4.091  18.924  0.00  0.00    +0.000 A 
ATOM      5  C   UNL     1       3.034   4.353  20.291  0.00  0.00    +0.000 A 
ATOM      6  N   UNL     1       2.762   5.631  20.578  0.00  0.00    +0.000 NA
ATOM      7  N   UNL     1       2.394   6.181  19.390  0.00  0.00    +0.000 N 
ATOM      8  C   UNL     1       2.505   5.271  18.365  0.00  0.00    +0.000 A 
BRANCH   7   9
ATOM      9  C   UNL     1       1.971   7.531  19.289  0.00  0.00    +0.000 A 
ATOM     10  C   UNL     1       1.372   8.164  20.387  0.00  0.00    +0.000 A 
ATOM     11  C   UNL     1       0.971   9.492  20.291  0.00  0.00    +0.000 A 
ATOM     12  C   UNL     1       1.146  10.195  19.093  0.00  0.00    +0.000 A 
ATOM     13  C   UNL     1       1.731   9.570  17.994  0.00  0.00    +0.000 A 
ATOM     14  C   UNL     1       2.151   8.239  18.094  0.00  0.00    +0.000 A 
ENDBRANCH   7   9
ENDBRANCH   1   4
BRANCH   1  15
ATOM     15  N   UNL     1       4.726   2.806  17.238  0.00  0.00    +0.000 N 
ATOM     16  H   UNL     1       5.382   2.061  17.465  0.00  0.00    +0.000 HD
BRANCH  15  22
ATOM     17  O   UNL     1       8.761   8.672  18.449  0.00  0.00    +0.000 OA
ATOM     18  C   UNL     1       8.004   7.774  18.118  0.00  0.00    +0.000 C 
ATOM     19  C   UNL     1       7.784   6.444  18.846  0.00  0.00    +0.000 C 
ATOM     20  C   UNL     1       6.768   5.772  17.975  0.00  0.00    +0.000 A 
ATOM     21  C   UNL     1       6.182   4.524  18.097  0.00  0.00    +0.000 A 
ATOM     22  C   UNL     1       5.271   4.119  17.118  0.00  0.00    +0.000 A 
ATOM     23  C   UNL     1       4.952   4.972  16.041  0.00  0.00    +0.000 A 
ATOM     24  C   UNL     1       5.550   6.237  15.926  0.00  0.00    +0.000 A 
ATOM     25  C   UNL     1       6.452   6.605  16.905  0.00  0.00    +0.000 A 
ATOM     26  N   UNL     1       7.180   7.778  16.996  0.00  0.00    +0.000 N 
ATOM     27  H   UNL     1       7.155   8.550  16.346  0.00  0.00    +0.000 HD
ENDBRANCH  15  22
ENDBRANCH   1  15
TORSDOF 4
ENDMDL
MODEL 4
REMARK VINA RESULT:      -8.3      4.316      6.342
REMARK  Name = 
REMARK  4 active torsions:
REMARK  status: ('A' for Active; 'I' for Inactive)
REMARK    1  A    between atoms: C_6  and  N_7
REMARK    2  A    between atoms: N_7  and  S_8
REMARK    3  A    between atoms: S_8  and  C_11
REMARK    4  A    between atoms: N_14  and  C_15
REMARK                            x       y       z     vdW  Elec       q    Type
REMARK                         _______ _______ _______ _____ _____    ______ ____
ROOT
ATOM      1  S   UNL     1       6.013   5.672  16.510  0.00  0.00    +0.000 S 
ATOM      2  O   UNL     1       6.344   4.344  16.985  0.00  0.00    +0.000 OA
ATOM      3  O   UNL     1       6.246   6.068  15.142  0.00  0.00    +0.000 OA
ENDROOT
BRANCH   1   4
ATOM      4  C   UNL     1       7.012   6.701  17.446  0.00  0.00    +0.000 A 
ATOM      5  C   UNL     1       7.796   6.360  18.550  0.00  0.00    +0.000 A 
ATOM      6  N   UNL     1       8.515   7.397  18.994  0.00  0.00    +0.000 NA
ATOM      7  N   UNL     1       8.122   8.446  18.222  0.00  0.00    +0.000 N 
ATOM      8  C   UNL     1       7.220   8.047  17.263  0.00  0.00    +0.000 A 
BRANCH   7   9
ATOM      9  C   UNL     1       8.627   9.756  18.426  0.00  0.00    +0.000 A 
ATOM     10  C   UNL     1       8.258  10.795  17.561  0.00  0.00    +0.000 A 
ATOM     11  C   UNL     1       8.743  12.080  17.772  0.00  0.00    +0.000 A 
ATOM     12  C   UNL     1       9.616  12.338  18.836  0.00  0.00    +0.000 A 
ATOM     13  C   UNL     1       9.996  11.309  19.694  0.00  0.00    +0.000 A 
ATOM     14  C   UNL     1       9.495  10.017  19.494  0.00  0.00    +0.000 A 
ENDBRANCH   7   9
ENDBRANCH   1   4
BRANCH   1  15
ATOM     15  N   UNL     1       4.394   5.945  16.927  0.00  0.00    +0.000 N 
ATOM     16  H   UNL     1       4.255   6.905  17.234  0.00  0.00    +0.000 HD
BRANCH  15  22
ATOM     17  O   UNL     1       1.178   2.478  22.385  0.00  0.00    +0.000 OA
ATOM     18  C   UNL     1       1.692   2.919  21.371  0.00  0.00    +0.000 C 
ATOM     19  C   UNL     1       2.478   4.228  21.234  0.00  0.00    +0.000 C 
ATOM     20  C   UNL     1       2.841   4.226  19.782  0.00  0.00    +0.000 A 
ATOM     21  C   UNL     1       3.539   5.165  19.042  0.00  0.00    +0.000 A 
ATOM     22  C   UNL     1       3.722   4.933  17.676  0.00  0.00    +0.000 A 
ATOM     23  C   UNL     1       3.214   3.762  17.075  0.00  0.00    +0.000 A 
ATOM     24  C   UNL     1       2.509   2.814  17.834  0.00  0.00    +0.000 A 
ATOM     25  C   UNL     1       2.338   3.077  19.179  0.00  0.00    +0.000 A 
ATOM     26  N   UNL     1       1.667   2.313  20.118  0.00  0.00    +0.000 N 
ATOM     27  H   UNL     1       1.196   1.437  19.950  0.00  0.00    +0.000 HD
ENDBRANCH  15  22
ENDBRANCH   1  15
TORSDOF 4
ENDMDL
MODEL 5
REMARK VINA RESULT:      -8.3      3.060      6.784
REMARK  Name = 
REMARK  4 active torsions:
REMARK  status: ('A' for Active; 'I' for Inactive)
REMARK    1  A    between atoms: C_6  and  N_7
REMARK    2  A    between atoms: N_7  and  S_8
REMARK    3  A    between atoms: S_8  and  C_11
REMARK    4  A    between atoms: N_14  and  C_15
REMARK                            x       y       z     vdW  Elec       q    Type
REMARK                         _______ _______ _______ _____ _____    ______ ____
ROOT
ATOM      1  S   UNL     1       2.880   2.822  18.220  0.00  0.00    +0.000 S 
ATOM      2  O   UNL     1       2.094   2.934  17.008  0.00  0.00    +0.000 OA
ATOM      3  O   UNL     1       2.633   1.782  19.189  0.00  0.00    +0.000 OA
ENDROOT
BRANCH   1   4
ATOM      4  C   UNL     1       2.560   4.286  19.049  0.00  0.00    +0.000 A 
ATOM      5  C   UNL     1       2.541   4.502  20.428  0.00  0.00    +0.000 A 
ATOM      6  N   UNL     1       2.335   5.788  20.732  0.00  0.00    +0.000 NA
ATOM      7  N   UNL     1       2.127   6.397  19.533  0.00  0.00    +0.000 N 
ATOM      8  C   UNL     1       2.273   5.510  18.492  0.00  0.00    +0.000 A 
BRANCH   7   9
ATOM      9  C   UNL     1       1.815   7.778  19.440  0.00  0.00    +0.000 A 
ATOM     10  C   UNL     1       2.002   8.461  18.230  0.00  0.00    +0.000 A 
ATOM     11  C   UNL     1       1.683   9.811  18.137  0.00  0.00    +0.000 A 
ATOM     12  C   UNL     1       1.191  10.496  19.254  0.00  0.00    +0.000 A 
ATOM     13  C   UNL     1       1.011   9.827  20.463  0.00  0.00    +0.000 A 
ATOM     14  C   UNL     1       1.317   8.464  20.554  0.00  0.00    +0.000 A 
ENDBRANCH   7   9
ENDBRANCH   1   4
BRANCH   1  15
ATOM     15  N   UNL     1       4.505   2.799  17.743  0.00  0.00    +0.000 N 
ATOM     16  H   UNL     1       5.041   2.151  18.315  0.00  0.00    +0.000 HD
BRANCH  15  22
ATOM     17  O   UNL     1       8.702   8.652  18.269  0.00  0.00    +0.000 OA
ATOM     18  C   UNL     1       7.936   7.733  18.031  0.00  0.00    +0.000 C 
ATOM     19  C   UNL     1       7.576   6.573  18.966  0.00  0.00    +0.000 C 
ATOM     20  C   UNL     1       6.617   5.783  18.130  0.00  0.00    +0.000 A 
ATOM     21  C   UNL     1       5.958   4.601  18.419  0.00  0.00    +0.000 A 
ATOM     22  C   UNL     1       5.126   4.048  17.441  0.00  0.00    +0.000 A 
ATOM     23  C   UNL     1       4.958   4.692  16.197  0.00  0.00    +0.000 A 
ATOM     24  C   UNL     1       5.629   5.893  15.915  0.00  0.00    +0.000 A 
ATOM     25  C   UNL     1       6.450   6.408  16.898  0.00  0.00    +0.000 A 
ATOM     26  N   UNL     1       7.226   7.553  16.848  0.00  0.00    +0.000 N 
ATOM     27  H   UNL     1       7.304   8.189  16.068  0.00  0.00    +0.000 HD
ENDBRANCH  15  22
ENDBRANCH   1  15
TORSDOF 4
ENDMDL
MODEL 6
REMARK VINA RESULT:      -8.3      1.297      2.056
REMARK  Name = 
REMARK  4 active torsions:
REMARK  status: ('A' for Active; 'I' for Inactive)
REMARK    1  A    between atoms: C_6  and  N_7
REMARK    2  A    between atoms: N_7  and  S_8
REMARK    3  A    between atoms: S_8  and  C_11
REMARK    4  A    between atoms: N_14  and  C_15
REMARK                            x       y       z     vdW  Elec       q    Type
REMARK                         _______ _______ _______ _____ _____    ______ ____
ROOT
ATOM      1  S   UNL     1       3.235   4.534  18.868  0.00  0.00    +0.000 S 
ATOM      2  O   UNL     1       3.502   3.415  19.748  0.00  0.00    +0.000 OA
ATOM      3  O   UNL     1       2.066   4.572  18.023  0.00  0.00    +0.000 OA
ENDROOT
BRANCH   1   4
ATOM      4  C   UNL     1       4.563   4.529  17.787  0.00  0.00    +0.000 A 
ATOM      5  C   UNL     1       5.922   4.601  18.100  0.00  0.00    +0.000 A 
ATOM      6  N   UNL     1       6.694   4.491  17.014  0.00  0.00    +0.000 NA
ATOM      7  N   UNL     1       5.819   4.438  15.972  0.00  0.00    +0.000 N 
ATOM      8  C   UNL     1       4.517   4.444  16.416  0.00  0.00    +0.000 A 
BRANCH   7   9
ATOM      9  C   UNL     1       6.262   4.374  14.626  0.00  0.00    +0.000 A 
ATOM     10  C   UNL     1       7.348   5.152  14.205  0.00  0.00    +0.000 A 
ATOM     11  C   UNL     1       7.789   5.077  12.889  0.00  0.00    +0.000 A 
ATOM     12  C   UNL     1       7.138   4.239  11.975  0.00  0.00    +0.000 A 
ATOM     13  C   UNL     1       6.051   3.469  12.383  0.00  0.00    +0.000 A 
ATOM     14  C   UNL     1       5.617   3.531  13.713  0.00  0.00    +0.000 A 
ENDBRANCH   7   9
ENDBRANCH   1   4
BRANCH   1  15
ATOM     15  N   UNL     1       3.306   5.930  19.825  0.00  0.00    +0.000 N 
ATOM     16  H   UNL     1       3.192   5.700  20.810  0.00  0.00    +0.000 HD
BRANCH  15  22
ATOM     17  O   UNL     1      -0.840  11.841  19.717  0.00  0.00    +0.000 OA
ATOM     18  C   UNL     1      -0.116  10.872  19.565  0.00  0.00    +0.000 C 
ATOM     19  C   UNL     1       0.168   9.769  20.591  0.00  0.00    +0.000 C 
ATOM     20  C   UNL     1       1.116   8.882  19.844  0.00  0.00    +0.000 A 
ATOM     21  C   UNL     1       1.751   7.722  20.252  0.00  0.00    +0.000 A 
ATOM     22  C   UNL     1       2.621   7.091  19.358  0.00  0.00    +0.000 A 
ATOM     23  C   UNL     1       2.832   7.624  18.069  0.00  0.00    +0.000 A 
ATOM     24  C   UNL     1       2.182   8.800  17.664  0.00  0.00    +0.000 A 
ATOM     25  C   UNL     1       1.336   9.404  18.573  0.00  0.00    +0.000 A 
ATOM     26  N   UNL     1       0.608  10.570  18.415  0.00  0.00    +0.000 N 
ATOM     27  H   UNL     1       0.592  11.160  17.596  0.00  0.00    +0.000 HD
ENDBRANCH  15  22
ENDBRANCH   1  15
TORSDOF 4
ENDMDL
MODEL 7
REMARK VINA RESULT:      -8.3      4.441      6.507
REMARK  Name = 
REMARK  4 active torsions:
REMARK  status: ('A' for Active; 'I' for Inactive)
REMARK    1  A    between atoms: C_6  and  N_7
REMARK    2  A    between atoms: N_7  and  S_8
REMARK    3  A    between atoms: S_8  and  C_11
REMARK    4  A    between atoms: N_14  and  C_15
REMARK                            x       y       z     vdW  Elec       q    Type
REMARK                         _______ _______ _______ _____ _____    ______ ____
ROOT
ATOM      1  S   UNL     1       7.282   5.129  18.445  0.00  0.00    +0.000 S 
ATOM      2  O   UNL     1       6.980   5.068  19.861  0.00  0.00    +0.000 OA
ATOM      3  O   UNL     1       8.405   4.420  17.879  0.00  0.00    +0.000 OA
ENDROOT
BRANCH   1   4
ATOM      4  C   UNL     1       7.619   6.785  18.171  0.00  0.00    +0.000 A 
ATOM      5  C   UNL     1       7.091   7.614  17.180  0.00  0.00    +0.000 A 
ATOM      6  N   UNL     1       7.512   8.876  17.304  0.00  0.00    +0.000 NA
ATOM      7  N   UNL     1       8.397   8.845  18.336  0.00  0.00    +0.000 N 
ATOM      8  C   UNL     1       8.471   7.589  18.891  0.00  0.00    +0.000 A 
BRANCH   7   9
ATOM      9  C   UNL     1       9.112  10.001  18.744  0.00  0.00    +0.000 A 
ATOM     10  C   UNL     1       9.668  10.859  17.786  0.00  0.00    +0.000 A 
ATOM     11  C   UNL     1      10.356  11.998  18.188  0.00  0.00    +0.000 A 
ATOM     12  C   UNL     1      10.511  12.283  19.550  0.00  0.00    +0.000 A 
ATOM     13  C   UNL     1       9.969  11.430  20.509  0.00  0.00    +0.000 A 
ATOM     14  C   UNL     1       9.262  10.291  20.106  0.00  0.00    +0.000 A 
ENDBRANCH   7   9
ENDBRANCH   1   4
BRANCH   1  15
ATOM     15  N   UNL     1       5.858   4.711  17.629  0.00  0.00    +0.000 N 
ATOM     16  H   UNL     1       5.796   5.195  16.736  0.00  0.00    +0.000 HD
BRANCH  15  22
ATOM     17  O   UNL     1       0.941   2.458  22.415  0.00  0.00    +0.000 OA
ATOM     18  C   UNL     1       1.655   2.960  21.562  0.00  0.00    +0.000 C 
ATOM     19  C   UNL     1       2.991   2.414  21.046  0.00  0.00    +0.000 C 
ATOM     20  C   UNL     1       3.384   3.448  20.037  0.00  0.00    +0.000 A 
ATOM     21  C   UNL     1       4.515   3.526  19.243  0.00  0.00    +0.000 A 
ATOM     22  C   UNL     1       4.655   4.626  18.392  0.00  0.00    +0.000 A 
ATOM     23  C   UNL     1       3.658   5.622  18.341  0.00  0.00    +0.000 A 
ATOM     24  C   UNL     1       2.513   5.533  19.148  0.00  0.00    +0.000 A 
ATOM     25  C   UNL     1       2.408   4.439  19.984  0.00  0.00    +0.000 A 
ATOM     26  N   UNL     1       1.396   4.145  20.880  0.00  0.00    +0.000 N 
ATOM     27  H   UNL     1       0.572   4.701  21.055  0.00  0.00    +0.000 HD
ENDBRANCH  15  22
ENDBRANCH   1  15
TORSDOF 4
ENDMDL
MODEL 8
REMARK VINA RESULT:      -8.2      3.459      6.585
REMARK  Name = 
REMARK  4 active torsions:
REMARK  status: ('A' for Active; 'I' for Inactive)
REMARK    1  A    between atoms: C_6  and  N_7
REMARK    2  A    between atoms: N_7  and  S_8
REMARK    3  A    between atoms: S_8  and  C_11
REMARK    4  A    between atoms: N_14  and  C_15
REMARK                            x       y       z     vdW  Elec       q    Type
REMARK                         _______ _______ _______ _____ _____    ______ ____
ROOT
ATOM      1  S   UNL     1       6.050   4.469  17.079  0.00  0.00    +0.000 S 
ATOM      2  O   UNL     1       6.645   4.455  18.400  0.00  0.00    +0.000 OA
ATOM      3  O   UNL     1       6.850   4.634  15.889  0.00  0.00    +0.000 OA
ENDROOT
BRANCH   1   4
ATOM      4  C   UNL     1       5.017   5.834  17.112  0.00  0.00    +0.000 A 
ATOM      5  C   UNL     1       4.811   6.776  16.103  0.00  0.00    +0.000 A 
ATOM      6  N   UNL     1       3.873   7.670  16.434  0.00  0.00    +0.000 NA
ATOM      7  N   UNL     1       3.533   7.356  17.714  0.00  0.00    +0.000 N 
ATOM      8  C   UNL     1       4.203   6.235  18.145  0.00  0.00    +0.000 A 
BRANCH   7   9
ATOM      9  C   UNL     1       2.592   8.122  18.448  0.00  0.00    +0.000 A 
ATOM     10  C   UNL     1       2.134   7.670  19.693  0.00  0.00    +0.000 A 
ATOM     11  C   UNL     1       1.223   8.430  20.416  0.00  0.00    +0.000 A 
ATOM     12  C   UNL     1       0.744   9.639  19.897  0.00  0.00    +0.000 A 
ATOM     13  C   UNL     1       1.187  10.091  18.656  0.00  0.00    +0.000 A 
ATOM     14  C   UNL     1       2.118   9.335  17.933  0.00  0.00    +0.000 A 
ENDBRANCH   7   9
ENDBRANCH   1   4
BRANCH   1  15
ATOM     15  N   UNL     1       5.109   3.066  16.958  0.00  0.00    +0.000 N 
ATOM     16  H   UNL     1       5.009   2.780  15.986  0.00  0.00    +0.000 HD
BRANCH  15  22
ATOM     17  O   UNL     1       0.845   2.434  22.752  0.00  0.00    +0.000 OA
ATOM     18  C   UNL     1       1.418   2.547  21.681  0.00  0.00    +0.000 C 
ATOM     19  C   UNL     1       2.924   2.416  21.427  0.00  0.00    +0.000 C 
ATOM     20  C   UNL     1       3.016   2.660  19.952  0.00  0.00    +0.000 A 
ATOM     21  C   UNL     1       4.128   2.697  19.129  0.00  0.00    +0.000 A 
ATOM     22  C   UNL     1       3.941   2.977  17.772  0.00  0.00    +0.000 A 
ATOM     23  C   UNL     1       2.646   3.204  17.261  0.00  0.00    +0.000 A 
ATOM     24  C   UNL     1       1.524   3.163  18.104  0.00  0.00    +0.000 A 
ATOM     25  C   UNL     1       1.743   2.893  19.440  0.00  0.00    +0.000 A 
ATOM     26  N   UNL     1       0.810   2.822  20.459  0.00  0.00    +0.000 N 
ATOM     27  H   UNL     1      -0.185   2.963  20.370  0.00  0.00    +0.000 HD
ENDBRANCH  15  22
ENDBRANCH   1  15
TORSDOF 4
ENDMDL
MODEL 9
REMARK VINA RESULT:      -8.1      3.633      5.705
REMARK  Name = 
REMARK  4 active torsions:
REMARK  status: ('A' for Active; 'I' for Inactive)
REMARK    1  A    between atoms: C_6  and  N_7
REMARK    2  A    between atoms: N_7  and  S_8
REMARK    3  A    between atoms: S_8  and  C_11
REMARK    4  A    between atoms: N_14  and  C_15
REMARK                            x       y       z     vdW  Elec       q    Type
REMARK                         _______ _______ _______ _____ _____    ______ ____
ROOT
ATOM      1  S   UNL     1       0.870   8.965  21.319  0.00  0.00    +0.000 S 
ATOM      2  O   UNL     1       1.676   9.174  22.505  0.00  0.00    +0.000 OA
ATOM      3  O   UNL     1      -0.523   8.596  21.406  0.00  0.00    +0.000 OA
ENDROOT
BRANCH   1   4
ATOM      4  C   UNL     1       1.629   7.644  20.537  0.00  0.00    +0.000 A 
ATOM      5  C   UNL     1       1.603   6.299  20.908  0.00  0.00    +0.000 A 
ATOM      6  N   UNL     1       2.240   5.522  20.025  0.00  0.00    +0.000 NA
ATOM      7  N   UNL     1       2.764   6.389  19.118  0.00  0.00    +0.000 N 
ATOM      8  C   UNL     1       2.396   7.685  19.397  0.00  0.00    +0.000 A 
BRANCH   7   9
ATOM      9  C   UNL     1       3.570   5.945  18.038  0.00  0.00    +0.000 A 
ATOM     10  C   UNL     1       4.268   6.873  17.253  0.00  0.00    +0.000 A 
ATOM     11  C   UNL     1       5.068   6.435  16.204  0.00  0.00    +0.000 A 
ATOM     12  C   UNL     1       5.165   5.068  15.917  0.00  0.00    +0.000 A 
ATOM     13  C   UNL     1       4.467   4.140  16.686  0.00  0.00    +0.000 A 
ATOM     14  C   UNL     1       3.674   4.578  17.753  0.00  0.00    +0.000 A 
ENDBRANCH   7   9
ENDBRANCH   1   4
BRANCH   1  15
ATOM     15  N   UNL     1       1.047  10.351  20.363  0.00  0.00    +0.000 N 
ATOM     16  H   UNL     1       1.607  11.053  20.842  0.00  0.00    +0.000 HD
BRANCH  15  22
ATOM     17  O   UNL     1      -4.275  10.839  15.506  0.00  0.00    +0.000 OA
ATOM     18  C   UNL     1      -3.441  10.904  16.393  0.00  0.00    +0.000 C 
ATOM     19  C   UNL     1      -2.194  10.025  16.547  0.00  0.00    +0.000 C 
ATOM     20  C   UNL     1      -1.583  10.564  17.803  0.00  0.00    +0.000 A 
ATOM     21  C   UNL     1      -0.442  10.163  18.476  0.00  0.00    +0.000 A 
ATOM     22  C   UNL     1      -0.102  10.824  19.659  0.00  0.00    +0.000 A 
ATOM     23  C   UNL     1      -0.900  11.882  20.143  0.00  0.00    +0.000 A 
ATOM     24  C   UNL     1      -2.054  12.283  19.452  0.00  0.00    +0.000 A 
ATOM     25  C   UNL     1      -2.368  11.605  18.292  0.00  0.00    +0.000 A 
ATOM     26  N   UNL     1      -3.455  11.800  17.458  0.00  0.00    +0.000 N 
ATOM     27  H   UNL     1      -4.190  12.480  17.582  0.00  0.00    +0.000 HD
ENDBRANCH  15  22
ENDBRANCH   1  15
TORSDOF 4
ENDMDL
