MODEL 1
REMARK VINA RESULT:      -9.3      0.000      0.000
REMARK  Name = 
REMARK  8 active torsions:
REMARK  status: ('A' for Active; 'I' for Inactive)
REMARK    1  A    between atoms: C_1  and  C_2
REMARK    2  A    between atoms: C_6  and  N_7
REMARK    3  A    between atoms: N_7  and  S_8
REMARK    4  A    between atoms: S_8  and  C_11
REMARK    5  A    between atoms: C_13  and  N_14
REMARK    6  A    between atoms: C_15  and  C_17
REMARK    7  A    between atoms: C_19  and  C_20
REMARK    8  A    between atoms: C_27  and  C_28
REMARK                            x       y       z     vdW  Elec       q    Type
REMARK                         _______ _______ _______ _____ _____    ______ ____
ROOT
ATOM      1  C   UNL     1       3.722   4.656  19.111  0.00  0.00    +0.000 A 
ATOM      2  C   UNL     1       3.208   5.773  19.782  0.00  0.00    +0.000 A 
ATOM      3  C   UNL     1       2.008   5.710  20.497  0.00  0.00    +0.000 A 
ATOM      4  C   UNL     1       1.300   4.496  20.502  0.00  0.00    +0.000 A 
ATOM      5  C   UNL     1       1.809   3.372  19.835  0.00  0.00    +0.000 A 
ATOM      6  C   UNL     1       3.023   3.432  19.132  0.00  0.00    +0.000 A 
ATOM      7  C   UNL     1       3.513   2.202  18.420  0.00  0.00    +0.000 C 
ENDROOT
BRANCH   3   8
ATOM      8  N   UNL     1       1.474   6.809  21.198  0.00  0.00    +0.000 N 
ATOM      9  C   UNL     1       1.373   8.114  20.723  0.00  0.00    +0.000 C 
ATOM     10  O   UNL     1       1.771   8.505  19.630  0.00  0.00    +0.000 OA
ATOM     11  H   UNL     1       1.198   6.678  22.166  0.00  0.00    +0.000 HD
BRANCH   9  12
ATOM     12  C   UNL     1       0.752   9.053  21.658  0.00  0.00    +0.000 A 
ATOM     13  C   UNL     1      -0.366   9.905  21.415  0.00  0.00    +0.000 A 
ATOM     14  C   UNL     1      -0.582  10.542  22.609  0.00  0.00    +0.000 A 
ATOM     15  O   UNL     1       0.353  10.131  23.506  0.00  0.00    +0.000 OA
ATOM     16  N   UNL     1       1.202   9.208  22.915  0.00  0.00    +0.000 NA
BRANCH  14  17
ATOM     17  C   UNL     1      -1.686  11.538  22.924  0.00  0.00    +0.000 C 
ATOM     18  C   UNL     1      -2.083  12.528  21.848  0.00  0.00    +0.000 C 
ATOM     19  C   UNL     1      -1.302  13.005  23.023  0.00  0.00    +0.000 C 
ENDBRANCH  14  17
ENDBRANCH   9  12
ENDBRANCH   3   8
BRANCH   1  20
ATOM     20  S   UNL     1       5.252   4.782  18.180  0.00  0.00    +0.000 S 
ATOM     21  O   UNL     1       6.285   4.255  19.047  0.00  0.00    +0.000 OA
ATOM     22  O   UNL     1       5.322   6.123  17.646  0.00  0.00    +0.000 OA
BRANCH  20  23
ATOM     23  N   UNL     1       5.128   3.667  16.913  0.00  0.00    +0.000 N 
ATOM     24  H   UNL     1       5.178   2.703  17.245  0.00  0.00    +0.000 HD
BRANCH  23  30
ATOM     25  C   UNL     1       5.525   3.243  11.935  0.00  0.00    +0.000 C 
ATOM     26  C   UNL     1       5.993   3.780  13.257  0.00  0.00    +0.000 A 
ATOM     27  C   UNL     1       7.100   4.639  13.305  0.00  0.00    +0.000 A 
ATOM     28  C   UNL     1       7.542   5.147  14.525  0.00  0.00    +0.000 A 
ATOM     29  C   UNL     1       6.887   4.800  15.703  0.00  0.00    +0.000 A 
ATOM     30  C   UNL     1       5.782   3.951  15.673  0.00  0.00    +0.000 A 
ATOM     31  C   UNL     1       5.333   3.437  14.453  0.00  0.00    +0.000 A 
ENDBRANCH  23  30
ENDBRANCH  20  23
ENDBRANCH   1  20
TORSDOF 6
ENDMDL
MODEL 2
REMARK VINA RESULT:      -8.9      3.536      9.749
REMARK  Name = 
REMARK  8 active torsions:
REMARK  status: ('A' for Active; 'I' for Inactive)
REMARK    1  A    between atoms: C_1  and  C_2
REMARK    2  A    between atoms: C_6  and  N_7
REMARK    3  A    between atoms: N_7  and  S_8
REMARK    4  A    between atoms: S_8  and  C_11
REMARK    5  A    between atoms: C_13  and  N_14
REMARK    6  A    between atoms: C_15  and  C_17
REMARK    7  A    between atoms: C_19  and  C_20
REMARK    8  A    between atoms: C_27  and  C_28
REMARK                            x       y       z     vdW  Elec       q    Type
REMARK                         _______ _______ _______ _____ _____    ______ ____
ROOT
ATOM      1  C   UNL     1       1.512   8.763  19.387  0.00  0.00    +0.000 A 
ATOM      2  C   UNL     1       2.380   8.297  18.391  0.00  0.00    +0.000 A 
ATOM      3  C   UNL     1       2.952   7.023  18.455  0.00  0.00    +0.000 A 
ATOM      4  C   UNL     1       2.662   6.219  19.571  0.00  0.00    +0.000 A 
ATOM      5  C   UNL     1       1.793   6.677  20.571  0.00  0.00    +0.000 A 
ATOM      6  C   UNL     1       1.205   7.951  20.497  0.00  0.00    +0.000 A 
ATOM      7  C   UNL     1       0.294   8.398  21.606  0.00  0.00    +0.000 C 
ENDROOT
BRANCH   3   8
ATOM      8  N   UNL     1       3.812   6.516  17.461  0.00  0.00    +0.000 N 
ATOM      9  C   UNL     1       5.075   5.968  17.671  0.00  0.00    +0.000 C 
ATOM     10  O   UNL     1       5.638   5.878  18.758  0.00  0.00    +0.000 OA
ATOM     11  H   UNL     1       3.541   6.617  16.487  0.00  0.00    +0.000 HD
BRANCH   9  12
ATOM     12  C   UNL     1       5.741   5.497  16.457  0.00  0.00    +0.000 A 
ATOM     13  C   UNL     1       5.378   4.380  15.648  0.00  0.00    +0.000 A 
ATOM     14  C   UNL     1       6.278   4.394  14.614  0.00  0.00    +0.000 A 
ATOM     15  O   UNL     1       7.144   5.426  14.794  0.00  0.00    +0.000 OA
ATOM     16  N   UNL     1       6.824   6.114  15.953  0.00  0.00    +0.000 NA
BRANCH  14  17
ATOM     17  C   UNL     1       6.322   3.441  13.431  0.00  0.00    +0.000 C 
ATOM     18  C   UNL     1       6.800   3.979  12.098  0.00  0.00    +0.000 C 
ATOM     19  C   UNL     1       5.351   3.692  12.289  0.00  0.00    +0.000 C 
ENDBRANCH  14  17
ENDBRANCH   9  12
ENDBRANCH   3   8
BRANCH   1  20
ATOM     20  S   UNL     1       0.819  10.416  19.285  0.00  0.00    +0.000 S 
ATOM     21  O   UNL     1       1.076  11.031  20.571  0.00  0.00    +0.000 OA
ATOM     22  O   UNL     1      -0.522  10.289  18.760  0.00  0.00    +0.000 OA
BRANCH  20  23
ATOM     23  N   UNL     1       1.785  11.267  18.187  0.00  0.00    +0.000 N 
ATOM     24  H   UNL     1       2.647  10.769  17.969  0.00  0.00    +0.000 HD
BRANCH  23  30
ATOM     25  C   UNL     1      -0.265  15.782  18.920  0.00  0.00    +0.000 C 
ATOM     26  C   UNL     1       0.920  14.893  18.677  0.00  0.00    +0.000 A 
ATOM     27  C   UNL     1       2.204  15.452  18.600  0.00  0.00    +0.000 A 
ATOM     28  C   UNL     1       3.312  14.637  18.379  0.00  0.00    +0.000 A 
ATOM     29  C   UNL     1       3.149  13.263  18.229  0.00  0.00    +0.000 A 
ATOM     30  C   UNL     1       1.881  12.690  18.307  0.00  0.00    +0.000 A 
ATOM     31  C   UNL     1       0.764  13.500  18.529  0.00  0.00    +0.000 A 
ENDBRANCH  23  30
ENDBRANCH  20  23
ENDBRANCH   1  20
TORSDOF 6
ENDMDL
MODEL 3
REMARK VINA RESULT:      -8.9      2.866     10.050
REMARK  Name = 
REMARK  8 active torsions:
REMARK  status: ('A' for Active; 'I' for Inactive)
REMARK    1  A    between atoms: C_1  and  C_2
REMARK    2  A    between atoms: C_6  and  N_7
REMARK    3  A    between atoms: N_7  and  S_8
REMARK    4  A    between atoms: S_8  and  C_11
REMARK    5  A    between atoms: C_13  and  N_14
REMARK    6  A    between atoms: C_15  and  C_17
REMARK    7  A    between atoms: C_19  and  C_20
REMARK    8  A    between atoms: C_27  and  C_28
REMARK                            x       y       z     vdW  Elec       q    Type
REMARK                         _______ _______ _______ _____ _____    ______ ____
ROOT
ATOM      1  C   UNL     1       1.891   8.522  18.986  0.00  0.00    +0.000 A 
ATOM      2  C   UNL     1       2.723   7.956  18.012  0.00  0.00    +0.000 A 
ATOM      3  C   UNL     1       3.289   6.689  18.178  0.00  0.00    +0.000 A 
ATOM      4  C   UNL     1       3.031   5.997  19.374  0.00  0.00    +0.000 A 
ATOM      5  C   UNL     1       2.198   6.555  20.354  0.00  0.00    +0.000 A 
ATOM      6  C   UNL     1       1.616   7.822  20.177  0.00  0.00    +0.000 A 
ATOM      7  C   UNL     1       0.745   8.381  21.268  0.00  0.00    +0.000 C 
ENDROOT
BRANCH   3   8
ATOM      8  N   UNL     1       4.113   6.083  17.209  0.00  0.00    +0.000 N 
ATOM      9  C   UNL     1       5.424   6.444  16.906  0.00  0.00    +0.000 C 
ATOM     10  O   UNL     1       6.041   7.373  17.418  0.00  0.00    +0.000 OA
ATOM     11  H   UNL     1       3.714   5.363  16.614  0.00  0.00    +0.000 HD
BRANCH   9  12
ATOM     12  C   UNL     1       6.053   5.625  15.869  0.00  0.00    +0.000 A 
ATOM     13  C   UNL     1       5.429   4.646  15.042  0.00  0.00    +0.000 A 
ATOM     14  C   UNL     1       6.428   4.205  14.214  0.00  0.00    +0.000 A 
ATOM     15  O   UNL     1       7.584   4.846  14.531  0.00  0.00    +0.000 OA
ATOM     16  N   UNL     1       7.362   5.728  15.577  0.00  0.00    +0.000 NA
BRANCH  14  17
ATOM     17  C   UNL     1       6.301   3.181  13.098  0.00  0.00    +0.000 C 
ATOM     18  C   UNL     1       6.760   3.578  11.709  0.00  0.00    +0.000 C 
ATOM     19  C   UNL     1       5.301   3.469  11.990  0.00  0.00    +0.000 C 
ENDBRANCH  14  17
ENDBRANCH   9  12
ENDBRANCH   3   8
BRANCH   1  20
ATOM     20  S   UNL     1       1.205  10.164  18.750  0.00  0.00    +0.000 S 
ATOM     21  O   UNL     1       2.178  10.888  17.958  0.00  0.00    +0.000 OA
ATOM     22  O   UNL     1       0.777  10.642  20.046  0.00  0.00    +0.000 OA
BRANCH  20  23
ATOM     23  N   UNL     1      -0.137   9.976  17.737  0.00  0.00    +0.000 N 
ATOM     24  H   UNL     1       0.116  10.041  16.751  0.00  0.00    +0.000 HD
BRANCH  23  30
ATOM     25  C   UNL     1      -2.828  13.252  20.410  0.00  0.00    +0.000 C 
ATOM     26  C   UNL     1      -2.714  12.158  19.388  0.00  0.00    +0.000 A 
ATOM     27  C   UNL     1      -3.864  11.701  18.729  0.00  0.00    +0.000 A 
ATOM     28  C   UNL     1      -3.772  10.689  17.776  0.00  0.00    +0.000 A 
ATOM     29  C   UNL     1      -2.536  10.123  17.477  0.00  0.00    +0.000 A 
ATOM     30  C   UNL     1      -1.382  10.568  18.119  0.00  0.00    +0.000 A 
ATOM     31  C   UNL     1      -1.466  11.583  19.076  0.00  0.00    +0.000 A 
ENDBRANCH  23  30
ENDBRANCH  20  23
ENDBRANCH   1  20
TORSDOF 6
ENDMDL
MODEL 4
REMARK VINA RESULT:      -8.9      2.803      3.166
REMARK  Name = 
REMARK  8 active torsions:
REMARK  status: ('A' for Active; 'I' for Inactive)
REMARK    1  A    between atoms: C_1  and  C_2
REMARK    2  A    between atoms: C_6  and  N_7
REMARK    3  A    between atoms: N_7  and  S_8
REMARK    4  A    between atoms: S_8  and  C_11
REMARK    5  A    between atoms: C_13  and  N_14
REMARK    6  A    between atoms: C_15  and  C_17
REMARK    7  A    between atoms: C_19  and  C_20
REMARK    8  A    between atoms: C_27  and  C_28
REMARK                            x       y       z     vdW  Elec       q    Type
REMARK                         _______ _______ _______ _____ _____    ______ ____
ROOT
ATOM      1  C   UNL     1       4.483   6.437  17.654  0.00  0.00    +0.000 A 
ATOM      2  C   UNL     1       3.400   7.324  17.674  0.00  0.00    +0.000 A 
ATOM      3  C   UNL     1       2.454   7.304  18.704  0.00  0.00    +0.000 A 
ATOM      4  C   UNL     1       2.597   6.340  19.717  0.00  0.00    +0.000 A 
ATOM      5  C   UNL     1       3.679   5.450  19.706  0.00  0.00    +0.000 A 
ATOM      6  C   UNL     1       4.638   5.483  18.679  0.00  0.00    +0.000 A 
ATOM      7  C   UNL     1       5.769   4.493  18.707  0.00  0.00    +0.000 C 
ENDROOT
BRANCH   3   8
ATOM      8  N   UNL     1       1.365   8.195  18.765  0.00  0.00    +0.000 N 
ATOM      9  C   UNL     1       1.332   9.487  18.246  0.00  0.00    +0.000 C 
ATOM     10  O   UNL     1       2.268  10.052  17.689  0.00  0.00    +0.000 OA
ATOM     11  H   UNL     1       0.543   7.920  19.294  0.00  0.00    +0.000 HD
BRANCH   9  12
ATOM     12  C   UNL     1       0.058  10.182  18.431  0.00  0.00    +0.000 A 
ATOM     13  C   UNL     1      -1.014  10.288  17.496  0.00  0.00    +0.000 A 
ATOM     14  C   UNL     1      -1.985  10.990  18.161  0.00  0.00    +0.000 A 
ATOM     15  O   UNL     1      -1.529  11.314  19.400  0.00  0.00    +0.000 OA
ATOM     16  N   UNL     1      -0.244  10.825  19.573  0.00  0.00    +0.000 NA
BRANCH  14  17
ATOM     17  C   UNL     1      -3.366  11.350  17.641  0.00  0.00    +0.000 C 
ATOM     18  C   UNL     1      -4.397  11.847  18.635  0.00  0.00    +0.000 C 
ATOM     19  C   UNL     1      -4.531  10.474  18.072  0.00  0.00    +0.000 C 
ENDBRANCH  14  17
ENDBRANCH   9  12
ENDBRANCH   3   8
BRANCH   1  20
ATOM     20  S   UNL     1       5.660   6.474  16.299  0.00  0.00    +0.000 S 
ATOM     21  O   UNL     1       6.905   6.944  16.872  0.00  0.00    +0.000 OA
ATOM     22  O   UNL     1       5.027   7.161  15.196  0.00  0.00    +0.000 OA
BRANCH  20  23
ATOM     23  N   UNL     1       5.949   4.860  15.879  0.00  0.00    +0.000 N 
ATOM     24  H   UNL     1       6.452   4.358  16.611  0.00  0.00    +0.000 HD
BRANCH  23  30
ATOM     25  C   UNL     1       5.127   2.512  11.527  0.00  0.00    +0.000 C 
ATOM     26  C   UNL     1       5.926   3.439  12.399  0.00  0.00    +0.000 A 
ATOM     27  C   UNL     1       7.061   4.076  11.878  0.00  0.00    +0.000 A 
ATOM     28  C   UNL     1       7.808   4.940  12.675  0.00  0.00    +0.000 A 
ATOM     29  C   UNL     1       7.433   5.171  13.996  0.00  0.00    +0.000 A 
ATOM     30  C   UNL     1       6.306   4.549  14.529  0.00  0.00    +0.000 A 
ATOM     31  C   UNL     1       5.551   3.681  13.735  0.00  0.00    +0.000 A 
ENDBRANCH  23  30
ENDBRANCH  20  23
ENDBRANCH   1  20
TORSDOF 6
ENDMDL
MODEL 5
REMARK VINA RESULT:      -8.8      2.381      4.543
REMARK  Name = 
REMARK  8 active torsions:
REMARK  status: ('A' for Active; 'I' for Inactive)
REMARK    1  A    between atoms: C_1  and  C_2
REMARK    2  A    between atoms: C_6  and  N_7
REMARK    3  A    between atoms: N_7  and  S_8
REMARK    4  A    between atoms: S_8  and  C_11
REMARK    5  A    between atoms: C_13  and  N_14
REMARK    6  A    between atoms: C_15  and  C_17
REMARK    7  A    between atoms: C_19  and  C_20
REMARK    8  A    between atoms: C_27  and  C_28
REMARK                            x       y       z     vdW  Elec       q    Type
REMARK                         _______ _______ _______ _____ _____    ______ ____
ROOT
ATOM      1  C   UNL     1       5.654   5.681  17.675  0.00  0.00    +0.000 A 
ATOM      2  C   UNL     1       4.665   6.541  18.168  0.00  0.00    +0.000 A 
ATOM      3  C   UNL     1       3.909   7.355  17.318  0.00  0.00    +0.000 A 
ATOM      4  C   UNL     1       4.190   7.316  15.940  0.00  0.00    +0.000 A 
ATOM      5  C   UNL     1       5.176   6.457  15.438  0.00  0.00    +0.000 A 
ATOM      6  C   UNL     1       5.922   5.628  16.292  0.00  0.00    +0.000 A 
ATOM      7  C   UNL     1       6.981   4.738  15.702  0.00  0.00    +0.000 C 
ENDROOT
BRANCH   3   8
ATOM      8  N   UNL     1       2.894   8.215  17.779  0.00  0.00    +0.000 N 
ATOM      9  C   UNL     1       2.191   8.087  18.974  0.00  0.00    +0.000 C 
ATOM     10  O   UNL     1       2.331   7.178  19.786  0.00  0.00    +0.000 OA
ATOM     11  H   UNL     1       2.578   8.963  17.169  0.00  0.00    +0.000 HD
BRANCH   9  12
ATOM     12  C   UNL     1       1.205   9.141  19.213  0.00  0.00    +0.000 A 
ATOM     13  C   UNL     1       0.532   9.935  18.237  0.00  0.00    +0.000 A 
ATOM     14  C   UNL     1      -0.314  10.732  18.962  0.00  0.00    +0.000 A 
ATOM     15  O   UNL     1      -0.150  10.465  20.285  0.00  0.00    +0.000 OA
ATOM     16  N   UNL     1       0.810   9.480  20.453  0.00  0.00    +0.000 NA
BRANCH  14  17
ATOM     17  C   UNL     1      -1.303  11.747  18.414  0.00  0.00    +0.000 C 
ATOM     18  C   UNL     1      -2.311  12.352  19.372  0.00  0.00    +0.000 C 
ATOM     19  C   UNL     1      -2.769  11.348  18.371  0.00  0.00    +0.000 C 
ENDBRANCH  14  17
ENDBRANCH   9  12
ENDBRANCH   3   8
BRANCH   1  20
ATOM     20  S   UNL     1       6.623   4.673  18.801  0.00  0.00    +0.000 S 
ATOM     21  O   UNL     1       6.657   5.402  20.052  0.00  0.00    +0.000 OA
ATOM     22  O   UNL     1       7.835   4.298  18.108  0.00  0.00    +0.000 OA
BRANCH  20  23
ATOM     23  N   UNL     1       5.695   3.294  19.118  0.00  0.00    +0.000 N 
ATOM     24  H   UNL     1       6.189   2.436  18.873  0.00  0.00    +0.000 HD
BRANCH  23  30
ATOM     25  C   UNL     1       0.946   4.091  20.508  0.00  0.00    +0.000 C 
ATOM     26  C   UNL     1       1.978   3.720  19.482  0.00  0.00    +0.000 A 
ATOM     27  C   UNL     1       1.579   3.423  18.171  0.00  0.00    +0.000 A 
ATOM     28  C   UNL     1       2.527   3.080  17.210  0.00  0.00    +0.000 A 
ATOM     29  C   UNL     1       3.877   3.028  17.548  0.00  0.00    +0.000 A 
ATOM     30  C   UNL     1       4.292   3.325  18.845  0.00  0.00    +0.000 A 
ATOM     31  C   UNL     1       3.346   3.669  19.815  0.00  0.00    +0.000 A 
ENDBRANCH  23  30
ENDBRANCH  20  23
ENDBRANCH   1  20
TORSDOF 6
ENDMDL
MODEL 6
REMARK VINA RESULT:      -8.6      2.430      2.815
REMARK  Name = 
REMARK  8 active torsions:
REMARK  status: ('A' for Active; 'I' for Inactive)
REMARK    1  A    between atoms: C_1  and  C_2
REMARK    2  A    between atoms: C_6  and  N_7
REMARK    3  A    between atoms: N_7  and  S_8
REMARK    4  A    between atoms: S_8  and  C_11
REMARK    5  A    between atoms: C_13  and  N_14
REMARK    6  A    between atoms: C_15  and  C_17
REMARK    7  A    between atoms: C_19  and  C_20
REMARK    8  A    between atoms: C_27  and  C_28
REMARK                            x       y       z     vdW  Elec       q    Type
REMARK                         _______ _______ _______ _____ _____    ______ ____
ROOT
ATOM      1  C   UNL     1       4.472   6.458  17.615  0.00  0.00    +0.000 A 
ATOM      2  C   UNL     1       3.433   7.394  17.684  0.00  0.00    +0.000 A 
ATOM      3  C   UNL     1       2.502   7.381  18.728  0.00  0.00    +0.000 A 
ATOM      4  C   UNL     1       2.612   6.374  19.703  0.00  0.00    +0.000 A 
ATOM      5  C   UNL     1       3.650   5.434  19.643  0.00  0.00    +0.000 A 
ATOM      6  C   UNL     1       4.595   5.460  18.603  0.00  0.00    +0.000 A 
ATOM      7  C   UNL     1       5.678   4.418  18.577  0.00  0.00    +0.000 C 
ENDROOT
BRANCH   3   8
ATOM      8  N   UNL     1       1.457   8.319  18.837  0.00  0.00    +0.000 N 
ATOM      9  C   UNL     1       1.429   9.586  18.259  0.00  0.00    +0.000 C 
ATOM     10  O   UNL     1       2.333  10.084  17.596  0.00  0.00    +0.000 OA
ATOM     11  H   UNL     1       0.674   8.104  19.448  0.00  0.00    +0.000 HD
BRANCH   9  12
ATOM     12  C   UNL     1       0.203  10.342  18.518  0.00  0.00    +0.000 A 
ATOM     13  C   UNL     1       0.033  11.431  19.424  0.00  0.00    +0.000 A 
ATOM     14  C   UNL     1      -1.271  11.817  19.261  0.00  0.00    +0.000 A 
ATOM     15  O   UNL     1      -1.863  11.006  18.344  0.00  0.00    +0.000 OA
ATOM     16  N   UNL     1      -0.950  10.070  17.884  0.00  0.00    +0.000 NA
BRANCH  14  17
ATOM     17  C   UNL     1      -1.975  12.970  19.958  0.00  0.00    +0.000 C 
ATOM     18  C   UNL     1      -1.562  13.306  21.377  0.00  0.00    +0.000 C 
ATOM     19  C   UNL     1      -2.870  12.636  21.139  0.00  0.00    +0.000 C 
ENDBRANCH  14  17
ENDBRANCH   9  12
ENDBRANCH   3   8
BRANCH   1  20
ATOM     20  S   UNL     1       5.631   6.490  16.245  0.00  0.00    +0.000 S 
ATOM     21  O   UNL     1       6.879   6.977  16.795  0.00  0.00    +0.000 OA
ATOM     22  O   UNL     1       4.977   7.158  15.143  0.00  0.00    +0.000 OA
BRANCH  20  23
ATOM     23  N   UNL     1       5.929   4.874  15.839  0.00  0.00    +0.000 N 
ATOM     24  H   UNL     1       6.460   4.389  16.563  0.00  0.00    +0.000 HD
BRANCH  23  30
ATOM     25  C   UNL     1       4.870   2.671  11.463  0.00  0.00    +0.000 C 
ATOM     26  C   UNL     1       5.756   3.506  12.342  0.00  0.00    +0.000 A 
ATOM     27  C   UNL     1       6.945   4.039  11.824  0.00  0.00    +0.000 A 
ATOM     28  C   UNL     1       7.775   4.817  12.628  0.00  0.00    +0.000 A 
ATOM     29  C   UNL     1       7.429   5.066  13.953  0.00  0.00    +0.000 A 
ATOM     30  C   UNL     1       6.249   4.548  14.484  0.00  0.00    +0.000 A 
ATOM     31  C   UNL     1       5.411   3.765  13.683  0.00  0.00    +0.000 A 
ENDBRANCH  23  30
ENDBRANCH  20  23
ENDBRANCH   1  20
TORSDOF 6
ENDMDL
MODEL 7
REMARK VINA RESULT:      -8.6      2.157      9.555
REMARK  Name = 
REMARK  8 active torsions:
REMARK  status: ('A' for Active; 'I' for Inactive)
REMARK    1  A    between atoms: C_1  and  C_2
REMARK    2  A    between atoms: C_6  and  N_7
REMARK    3  A    between atoms: N_7  and  S_8
REMARK    4  A    between atoms: S_8  and  C_11
REMARK    5  A    between atoms: C_13  and  N_14
REMARK    6  A    between atoms: C_15  and  C_17
REMARK    7  A    between atoms: C_19  and  C_20
REMARK    8  A    between atoms: C_27  and  C_28
REMARK                            x       y       z     vdW  Elec       q    Type
REMARK                         _______ _______ _______ _____ _____    ______ ____
ROOT
ATOM      1  C   UNL     1       2.602   4.033  19.662  0.00  0.00    +0.000 A 
ATOM      2  C   UNL     1       3.336   4.334  18.508  0.00  0.00    +0.000 A 
ATOM      3  C   UNL     1       3.950   3.334  17.747  0.00  0.00    +0.000 A 
ATOM      4  C   UNL     1       3.842   2.003  18.189  0.00  0.00    +0.000 A 
ATOM      5  C   UNL     1       3.108   1.693  19.342  0.00  0.00    +0.000 A 
ATOM      6  C   UNL     1       2.477   2.698  20.094  0.00  0.00    +0.000 A 
ATOM      7  C   UNL     1       1.717   2.311  21.333  0.00  0.00    +0.000 C 
ENDROOT
BRANCH   3   8
ATOM      8  N   UNL     1       4.678   3.600  16.571  0.00  0.00    +0.000 N 
ATOM      9  C   UNL     1       5.888   4.285  16.494  0.00  0.00    +0.000 C 
ATOM     10  O   UNL     1       6.480   4.790  17.443  0.00  0.00    +0.000 OA
ATOM     11  H   UNL     1       4.268   3.344  15.678  0.00  0.00    +0.000 HD
BRANCH   9  12
ATOM     12  C   UNL     1       6.436   4.397  15.142  0.00  0.00    +0.000 A 
ATOM     13  C   UNL     1       6.124   3.585  14.011  0.00  0.00    +0.000 A 
ATOM     14  C   UNL     1       6.857   4.123  12.986  0.00  0.00    +0.000 A 
ATOM     15  O   UNL     1       7.585   5.168  13.461  0.00  0.00    +0.000 OA
ATOM     16  N   UNL     1       7.339   5.338  14.814  0.00  0.00    +0.000 NA
BRANCH  14  17
ATOM     17  C   UNL     1       6.868   3.666  11.537  0.00  0.00    +0.000 C 
ATOM     18  C   UNL     1       6.090   2.416  11.175  0.00  0.00    +0.000 C 
ATOM     19  C   UNL     1       7.578   2.361  11.216  0.00  0.00    +0.000 C 
ENDBRANCH  14  17
ENDBRANCH   9  12
ENDBRANCH   3   8
BRANCH   1  20
ATOM     20  S   UNL     1       1.852   5.347  20.628  0.00  0.00    +0.000 S 
ATOM     21  O   UNL     1       2.450   5.259  21.944  0.00  0.00    +0.000 OA
ATOM     22  O   UNL     1       0.421   5.258  20.439  0.00  0.00    +0.000 OA
BRANCH  20  23
ATOM     23  N   UNL     1       2.426   6.800  19.977  0.00  0.00    +0.000 N 
ATOM     24  H   UNL     1       3.439   6.882  20.059  0.00  0.00    +0.000 HD
BRANCH  23  30
ATOM     25  C   UNL     1      -0.234   9.899  22.883  0.00  0.00    +0.000 C 
ATOM     26  C   UNL     1       0.389   9.530  21.567  0.00  0.00    +0.000 A 
ATOM     27  C   UNL     1       0.273  10.401  20.475  0.00  0.00    +0.000 A 
ATOM     28  C   UNL     1       0.849  10.072  19.250  0.00  0.00    +0.000 A 
ATOM     29  C   UNL     1       1.540   8.872  19.104  0.00  0.00    +0.000 A 
ATOM     30  C   UNL     1       1.669   7.996  20.180  0.00  0.00    +0.000 A 
ATOM     31  C   UNL     1       1.093   8.319  21.412  0.00  0.00    +0.000 A 
ENDBRANCH  23  30
ENDBRANCH  20  23
ENDBRANCH   1  20
TORSDOF 6
ENDMDL
MODEL 8
REMARK VINA RESULT:      -8.6      2.503     10.276
REMARK  Name = 
REMARK  8 active torsions:
REMARK  status: ('A' for Active; 'I' for Inactive)
REMARK    1  A    between atoms: C_1  and  C_2
REMARK    2  A    between atoms: C_6  and  N_7
REMARK    3  A    between atoms: N_7  and  S_8
REMARK    4  A    between atoms: S_8  and  C_11
REMARK    5  A    between atoms: C_13  and  N_14
REMARK    6  A    between atoms: C_15  and  C_17
REMARK    7  A    between atoms: C_19  and  C_20
REMARK    8  A    between atoms: C_27  and  C_28
REMARK                            x       y       z     vdW  Elec       q    Type
REMARK                         _______ _______ _______ _____ _____    ______ ____
ROOT
ATOM      1  C   UNL     1       1.763   8.527  19.156  0.00  0.00    +0.000 A 
ATOM      2  C   UNL     1       2.607   8.002  18.169  0.00  0.00    +0.000 A 
ATOM      3  C   UNL     1       3.174   6.730  18.290  0.00  0.00    +0.000 A 
ATOM      4  C   UNL     1       2.905   5.991  19.455  0.00  0.00    +0.000 A 
ATOM      5  C   UNL     1       2.059   6.507  20.447  0.00  0.00    +0.000 A 
ATOM      6  C   UNL     1       1.476   7.779  20.315  0.00  0.00    +0.000 A 
ATOM      7  C   UNL     1       0.592   8.292  21.417  0.00  0.00    +0.000 C 
ENDROOT
BRANCH   3   8
ATOM      8  N   UNL     1       4.011   6.165  17.307  0.00  0.00    +0.000 N 
ATOM      9  C   UNL     1       5.357   6.461  17.107  0.00  0.00    +0.000 C 
ATOM     10  O   UNL     1       6.003   7.290  17.740  0.00  0.00    +0.000 OA
ATOM     11  H   UNL     1       3.599   5.536  16.624  0.00  0.00    +0.000 HD
BRANCH   9  12
ATOM     12  C   UNL     1       5.989   5.705  16.026  0.00  0.00    +0.000 A 
ATOM     13  C   UNL     1       5.408   4.666  15.241  0.00  0.00    +0.000 A 
ATOM     14  C   UNL     1       6.384   4.323  14.343  0.00  0.00    +0.000 A 
ATOM     15  O   UNL     1       7.490   5.077  14.579  0.00  0.00    +0.000 OA
ATOM     16  N   UNL     1       7.257   5.936  15.641  0.00  0.00    +0.000 NA
BRANCH  14  17
ATOM     17  C   UNL     1       6.280   3.287  13.235  0.00  0.00    +0.000 C 
ATOM     18  C   UNL     1       6.789   3.661  11.857  0.00  0.00    +0.000 C 
ATOM     19  C   UNL     1       5.321   3.574  12.092  0.00  0.00    +0.000 C 
ENDBRANCH  14  17
ENDBRANCH   9  12
ENDBRANCH   3   8
BRANCH   1  20
ATOM     20  S   UNL     1       1.076  10.176  18.978  0.00  0.00    +0.000 S 
ATOM     21  O   UNL     1      -0.323   9.987  18.654  0.00  0.00    +0.000 OA
ATOM     22  O   UNL     1       1.961  10.920  18.111  0.00  0.00    +0.000 OA
BRANCH  20  23
ATOM     23  N   UNL     1       1.082  10.861  20.526  0.00  0.00    +0.000 N 
ATOM     24  H   UNL     1       1.228  10.161  21.254  0.00  0.00    +0.000 HD
BRANCH  23  30
ATOM     25  C   UNL     1      -0.794  15.443  19.745  0.00  0.00    +0.000 C 
ATOM     26  C   UNL     1      -0.788  14.121  20.457  0.00  0.00    +0.000 A 
ATOM     27  C   UNL     1      -1.753  13.857  21.440  0.00  0.00    +0.000 A 
ATOM     28  C   UNL     1      -1.761  12.634  22.105  0.00  0.00    +0.000 A 
ATOM     29  C   UNL     1      -0.808  11.667  21.800  0.00  0.00    +0.000 A 
ATOM     30  C   UNL     1       0.156  11.910  20.823  0.00  0.00    +0.000 A 
ATOM     31  C   UNL     1       0.171  13.135  20.151  0.00  0.00    +0.000 A 
ENDBRANCH  23  30
ENDBRANCH  20  23
ENDBRANCH   1  20
TORSDOF 6
ENDMDL
MODEL 9
REMARK VINA RESULT:      -8.6      1.477      1.777
REMARK  Name = 
REMARK  8 active torsions:
REMARK  status: ('A' for Active; 'I' for Inactive)
REMARK    1  A    between atoms: C_1  and  C_2
REMARK    2  A    between atoms: C_6  and  N_7
REMARK    3  A    between atoms: N_7  and  S_8
REMARK    4  A    between atoms: S_8  and  C_11
REMARK    5  A    between atoms: C_13  and  N_14
REMARK    6  A    between atoms: C_15  and  C_17
REMARK    7  A    between atoms: C_19  and  C_20
REMARK    8  A    between atoms: C_27  and  C_28
REMARK                            x       y       z     vdW  Elec       q    Type
REMARK                         _______ _______ _______ _____ _____    ______ ____
ROOT
ATOM      1  C   UNL     1       3.252   4.099  19.794  0.00  0.00    +0.000 A 
ATOM      2  C   UNL     1       3.028   5.440  20.130  0.00  0.00    +0.000 A 
ATOM      3  C   UNL     1       1.752   5.913  20.450  0.00  0.00    +0.000 A 
ATOM      4  C   UNL     1       0.676   5.009  20.395  0.00  0.00    +0.000 A 
ATOM      5  C   UNL     1       0.891   3.665  20.062  0.00  0.00    +0.000 A 
ATOM      6  C   UNL     1       2.178   3.188  19.758  0.00  0.00    +0.000 A 
ATOM      7  C   UNL     1       2.349   1.740  19.390  0.00  0.00    +0.000 C 
ENDROOT
BRANCH   3   8
ATOM      8  N   UNL     1       1.496   7.250  20.810  0.00  0.00    +0.000 N 
ATOM      9  C   UNL     1       1.504   8.347  19.952  0.00  0.00    +0.000 C 
ATOM     10  O   UNL     1       1.773   8.310  18.755  0.00  0.00    +0.000 OA
ATOM     11  H   UNL     1       1.363   7.470  21.793  0.00  0.00    +0.000 HD
BRANCH   9  12
ATOM     12  C   UNL     1       1.179   9.621  20.593  0.00  0.00    +0.000 A 
ATOM     13  C   UNL     1       0.934  10.873  19.957  0.00  0.00    +0.000 A 
ATOM     14  C   UNL     1       0.629  11.730  20.982  0.00  0.00    +0.000 A 
ATOM     15  O   UNL     1       0.711  11.057  22.161  0.00  0.00    +0.000 OA
ATOM     16  N   UNL     1       1.068   9.739  21.928  0.00  0.00    +0.000 NA
BRANCH  14  17
ATOM     17  C   UNL     1       0.241  13.194  20.861  0.00  0.00    +0.000 C 
ATOM     18  C   UNL     1      -0.047  13.964  22.135  0.00  0.00    +0.000 C 
ATOM     19  C   UNL     1      -1.178  13.579  21.246  0.00  0.00    +0.000 C 
ENDBRANCH  14  17
ENDBRANCH   9  12
ENDBRANCH   3   8
BRANCH   1  20
ATOM     20  S   UNL     1       4.901   3.535  19.362  0.00  0.00    +0.000 S 
ATOM     21  O   UNL     1       5.114   2.322  20.123  0.00  0.00    +0.000 OA
ATOM     22  O   UNL     1       5.789   4.670  19.480  0.00  0.00    +0.000 OA
BRANCH  20  23
ATOM     23  N   UNL     1       4.822   3.036  17.747  0.00  0.00    +0.000 N 
ATOM     24  H   UNL     1       5.167   2.085  17.623  0.00  0.00    +0.000 HD
BRANCH  23  30
ATOM     25  C   UNL     1       6.713   4.165  13.244  0.00  0.00    +0.000 C 
ATOM     26  C   UNL     1       6.039   4.552  14.529  0.00  0.00    +0.000 A 
ATOM     27  C   UNL     1       5.660   5.885  14.740  0.00  0.00    +0.000 A 
ATOM     28  C   UNL     1       5.031   6.256  15.926  0.00  0.00    +0.000 A 
ATOM     29  C   UNL     1       4.779   5.304  16.910  0.00  0.00    +0.000 A 
ATOM     30  C   UNL     1       5.145   3.974  16.716  0.00  0.00    +0.000 A 
ATOM     31  C   UNL     1       5.777   3.593  15.528  0.00  0.00    +0.000 A 
ENDBRANCH  23  30
ENDBRANCH  20  23
ENDBRANCH   1  20
TORSDOF 6
ENDMDL
