MODEL 1
REMARK VINA RESULT:      -8.4      0.000      0.000
REMARK  Name = 
REMARK  7 active torsions:
REMARK  status: ('A' for Active; 'I' for Inactive)
REMARK    1  A    between atoms: C_1  and  C_2
REMARK    2  A    between atoms: C_6  and  N_7
REMARK    3  A    between atoms: C_8  and  C_10
REMARK    4  A    between atoms: N_12  and  C_13
REMARK    5  A    between atoms: C_13  and  C_14
REMARK    6  A    between atoms: C_21  and  C_22
REMARK    7  A    between atoms: C_28  and  C_29
REMARK                            x       y       z     vdW  Elec       q    Type
REMARK                         _______ _______ _______ _____ _____    ______ ____
ROOT
ATOM      1  C   UNL     1       4.767   5.870  16.447  0.00  0.00    +0.000 A 
ATOM      2  C   UNL     1       5.468   5.985  15.260  0.00  0.00    +0.000 A 
ATOM      3  N   UNL     1       5.819   4.710  14.908  0.00  0.00    +0.000 N 
ATOM      4  N   UNL     1       5.314   3.772  15.730  0.00  0.00    +0.000 NA
ATOM      5  C   UNL     1       4.629   4.460  16.660  0.00  0.00    +0.000 A 
ENDROOT
BRANCH   5   6
ATOM      6  C   UNL     1       3.871   3.757  17.697  0.00  0.00    +0.000 A 
ATOM      7  C   UNL     1       2.536   3.394  17.503  0.00  0.00    +0.000 A 
ATOM      8  C   UNL     1       1.836   2.756  18.526  0.00  0.00    +0.000 A 
ATOM      9  C   UNL     1       2.491   2.501  19.719  0.00  0.00    +0.000 A 
ATOM     10  N   UNL     1       3.774   2.838  19.954  0.00  0.00    +0.000 NA
ATOM     11  C   UNL     1       4.429   3.453  18.939  0.00  0.00    +0.000 A 
ENDBRANCH   5   6
BRANCH   1  13
ATOM     12  N   UNL     1       2.972   7.140  17.408  0.00  0.00    +0.000 N 
ATOM     13  C   UNL     1       4.333   6.924  17.353  0.00  0.00    +0.000 C 
ATOM     14  O   UNL     1       5.180   7.528  18.000  0.00  0.00    +0.000 OA
ATOM     15  H   UNL     1       2.409   6.550  16.818  0.00  0.00    +0.000 HD
BRANCH  12  21
ATOM     16  C   UNL     1       0.867   8.382  21.812  0.00  0.00    +0.000 C 
ATOM     17  C   UNL     1       1.266   8.680  20.389  0.00  0.00    +0.000 A 
ATOM     18  C   UNL     1       0.950   9.945  19.878  0.00  0.00    +0.000 A 
ATOM     19  C   UNL     1       1.295  10.280  18.583  0.00  0.00    +0.000 A 
ATOM     20  C   UNL     1       1.959   9.354  17.784  0.00  0.00    +0.000 A 
ATOM     21  C   UNL     1       2.294   8.069  18.250  0.00  0.00    +0.000 A 
ATOM     22  C   UNL     1       1.944   7.725  19.580  0.00  0.00    +0.000 A 
ATOM     23  C   UNL     1       2.245   6.376  20.193  0.00  0.00    +0.000 C 
ENDBRANCH  12  21
ENDBRANCH   1  13
BRANCH   3  24
ATOM     24  C   UNL     1       6.753   4.315  13.858  0.00  0.00    +0.000 C 
BRANCH  24  25
ATOM     25  C   UNL     1       6.085   3.524  12.762  0.00  0.00    +0.000 A 
ATOM     26  C   UNL     1       4.791   3.855  12.333  0.00  0.00    +0.000 A 
ATOM     27  C   UNL     1       4.167   3.114  11.327  0.00  0.00    +0.000 A 
ATOM     28  C   UNL     1       4.832   2.047  10.730  0.00  0.00    +0.000 A 
ATOM     29  C   UNL     1       6.129   1.727  11.124  0.00  0.00    +0.000 A 
ATOM     30  C   UNL     1       6.753   2.463  12.130  0.00  0.00    +0.000 A 
ENDBRANCH  24  25
ENDBRANCH   3  24
TORSDOF 5
ENDMDL
MODEL 2
REMARK VINA RESULT:      -8.2      0.508      1.264
REMARK  Name = 
REMARK  7 active torsions:
REMARK  status: ('A' for Active; 'I' for Inactive)
REMARK    1  A    between atoms: C_1  and  C_2
REMARK    2  A    between atoms: C_6  and  N_7
REMARK    3  A    between atoms: C_8  and  C_10
REMARK    4  A    between atoms: N_12  and  C_13
REMARK    5  A    between atoms: C_13  and  C_14
REMARK    6  A    between atoms: C_21  and  C_22
REMARK    7  A    between atoms: C_28  and  C_29
REMARK                            x       y       z     vdW  Elec       q    Type
REMARK                         _______ _______ _______ _____ _____    ______ ____
ROOT
ATOM      1  C   UNL     1       4.786   5.875  16.453  0.00  0.00    +0.000 A 
ATOM      2  C   UNL     1       5.466   5.974  15.253  0.00  0.00    +0.000 A 
ATOM      3  N   UNL     1       5.833   4.698  14.924  0.00  0.00    +0.000 N 
ATOM      4  N   UNL     1       5.359   3.771  15.776  0.00  0.00    +0.000 NA
ATOM      5  C   UNL     1       4.676   4.468  16.701  0.00  0.00    +0.000 A 
ENDROOT
BRANCH   5   6
ATOM      6  C   UNL     1       3.949   3.776  17.766  0.00  0.00    +0.000 A 
ATOM      7  C   UNL     1       4.569   3.437  18.971  0.00  0.00    +0.000 A 
ATOM      8  C   UNL     1       3.853   2.748  19.949  0.00  0.00    +0.000 A 
ATOM      9  C   UNL     1       2.534   2.413  19.693  0.00  0.00    +0.000 A 
ATOM     10  N   UNL     1       1.896   2.713  18.545  0.00  0.00    +0.000 NA
ATOM     11  C   UNL     1       2.617   3.386  17.616  0.00  0.00    +0.000 A 
ENDBRANCH   5   6
BRANCH   1  13
ATOM     12  N   UNL     1       2.984   7.130  17.421  0.00  0.00    +0.000 N 
ATOM     13  C   UNL     1       4.348   6.942  17.343  0.00  0.00    +0.000 C 
ATOM     14  O   UNL     1       5.195   7.579  17.956  0.00  0.00    +0.000 OA
ATOM     15  H   UNL     1       2.422   6.513  16.858  0.00  0.00    +0.000 HD
BRANCH  12  21
ATOM     16  C   UNL     1       0.840   8.393  21.800  0.00  0.00    +0.000 C 
ATOM     17  C   UNL     1       1.257   8.686  20.382  0.00  0.00    +0.000 A 
ATOM     18  C   UNL     1       0.955   9.953  19.865  0.00  0.00    +0.000 A 
ATOM     19  C   UNL     1       1.318  10.284  18.574  0.00  0.00    +0.000 A 
ATOM     20  C   UNL     1       1.983   9.351  17.784  0.00  0.00    +0.000 A 
ATOM     21  C   UNL     1       2.303   8.065  18.255  0.00  0.00    +0.000 A 
ATOM     22  C   UNL     1       1.937   7.725  19.581  0.00  0.00    +0.000 A 
ATOM     23  C   UNL     1       2.222   6.375  20.199  0.00  0.00    +0.000 C 
ENDBRANCH  12  21
ENDBRANCH   1  13
BRANCH   3  24
ATOM     24  C   UNL     1       6.757   4.295  13.868  0.00  0.00    +0.000 C 
BRANCH  24  25
ATOM     25  C   UNL     1       6.072   3.524  12.768  0.00  0.00    +0.000 A 
ATOM     26  C   UNL     1       6.715   2.440  12.151  0.00  0.00    +0.000 A 
ATOM     27  C   UNL     1       6.085   1.735  11.124  0.00  0.00    +0.000 A 
ATOM     28  C   UNL     1       4.803   2.092  10.713  0.00  0.00    +0.000 A 
ATOM     29  C   UNL     1       4.141   3.146  11.338  0.00  0.00    +0.000 A 
ATOM     30  C   UNL     1       4.769   3.854  12.363  0.00  0.00    +0.000 A 
ENDBRANCH  24  25
ENDBRANCH   3  24
TORSDOF 5
ENDMDL
MODEL 3
REMARK VINA RESULT:      -7.9      3.131      4.319
REMARK  Name = 
REMARK  7 active torsions:
REMARK  status: ('A' for Active; 'I' for Inactive)
REMARK    1  A    between atoms: C_1  and  C_2
REMARK    2  A    between atoms: C_6  and  N_7
REMARK    3  A    between atoms: C_8  and  C_10
REMARK    4  A    between atoms: N_12  and  C_13
REMARK    5  A    between atoms: C_13  and  C_14
REMARK    6  A    between atoms: C_21  and  C_22
REMARK    7  A    between atoms: C_28  and  C_29
REMARK                            x       y       z     vdW  Elec       q    Type
REMARK                         _______ _______ _______ _____ _____    ______ ____
ROOT
ATOM      1  C   UNL     1       5.439   4.804  15.830  0.00  0.00    +0.000 A 
ATOM      2  C   UNL     1       5.462   4.315  14.537  0.00  0.00    +0.000 A 
ATOM      3  N   UNL     1       6.662   4.706  14.010  0.00  0.00    +0.000 N 
ATOM      4  N   UNL     1       7.456   5.330  14.899  0.00  0.00    +0.000 NA
ATOM      5  C   UNL     1       6.741   5.365  16.037  0.00  0.00    +0.000 A 
ENDROOT
BRANCH   5   6
ATOM      6  C   UNL     1       7.321   5.915  17.263  0.00  0.00    +0.000 A 
ATOM      7  C   UNL     1       7.654   7.268  17.368  0.00  0.00    +0.000 A 
ATOM      8  C   UNL     1       8.236   7.749  18.540  0.00  0.00    +0.000 A 
ATOM      9  C   UNL     1       8.473   6.861  19.576  0.00  0.00    +0.000 A 
ATOM     10  N   UNL     1       8.175   5.548  19.518  0.00  0.00    +0.000 NA
ATOM     11  C   UNL     1       7.607   5.112  18.367  0.00  0.00    +0.000 A 
ENDBRANCH   5   6
BRANCH   1  13
ATOM     12  N   UNL     1       3.868   3.615  17.201  0.00  0.00    +0.000 N 
ATOM     13  C   UNL     1       4.326   4.842  16.769  0.00  0.00    +0.000 C 
ATOM     14  O   UNL     1       3.888   5.933  17.115  0.00  0.00    +0.000 OA
ATOM     15  H   UNL     1       4.344   2.812  16.828  0.00  0.00    +0.000 HD
BRANCH  12  21
ATOM     16  C   UNL     1       2.340   2.470  21.862  0.00  0.00    +0.000 C 
ATOM     17  C   UNL     1       2.083   2.826  20.420  0.00  0.00    +0.000 A 
ATOM     18  C   UNL     1       0.749   2.936  20.007  0.00  0.00    +0.000 A 
ATOM     19  C   UNL     1       0.449   3.266  18.699  0.00  0.00    +0.000 A 
ATOM     20  C   UNL     1       1.480   3.488  17.790  0.00  0.00    +0.000 A 
ATOM     21  C   UNL     1       2.834   3.385  18.156  0.00  0.00    +0.000 A 
ATOM     22  C   UNL     1       3.144   3.051  19.497  0.00  0.00    +0.000 A 
ATOM     23  C   UNL     1       4.559   2.906  20.010  0.00  0.00    +0.000 C 
ENDBRANCH  12  21
ENDBRANCH   1  13
BRANCH   3  24
ATOM     24  C   UNL     1       7.073   4.630  12.611  0.00  0.00    +0.000 C 
BRANCH  24  25
ATOM     25  C   UNL     1       6.629   3.350  11.950  0.00  0.00    +0.000 A 
ATOM     26  C   UNL     1       5.266   3.099  11.731  0.00  0.00    +0.000 A 
ATOM     27  C   UNL     1       4.853   1.907  11.131  0.00  0.00    +0.000 A 
ATOM     28  C   UNL     1       5.795   0.963  10.730  0.00  0.00    +0.000 A 
ATOM     29  C   UNL     1       7.153   1.214  10.914  0.00  0.00    +0.000 A 
ATOM     30  C   UNL     1       7.568   2.402  11.515  0.00  0.00    +0.000 A 
ENDBRANCH  24  25
ENDBRANCH   3  24
TORSDOF 5
ENDMDL
MODEL 4
REMARK VINA RESULT:      -7.8      0.503      1.482
REMARK  Name = 
REMARK  7 active torsions:
REMARK  status: ('A' for Active; 'I' for Inactive)
REMARK    1  A    between atoms: C_1  and  C_2
REMARK    2  A    between atoms: C_6  and  N_7
REMARK    3  A    between atoms: C_8  and  C_10
REMARK    4  A    between atoms: N_12  and  C_13
REMARK    5  A    between atoms: C_13  and  C_14
REMARK    6  A    between atoms: C_21  and  C_22
REMARK    7  A    between atoms: C_28  and  C_29
REMARK                            x       y       z     vdW  Elec       q    Type
REMARK                         _______ _______ _______ _____ _____    ______ ____
ROOT
ATOM      1  C   UNL     1       4.663   5.764  16.646  0.00  0.00    +0.000 A 
ATOM      2  C   UNL     1       5.368   6.002  15.480  0.00  0.00    +0.000 A 
ATOM      3  N   UNL     1       5.751   4.773  15.016  0.00  0.00    +0.000 N 
ATOM      4  N   UNL     1       5.264   3.753  15.745  0.00  0.00    +0.000 NA
ATOM      5  C   UNL     1       4.557   4.337  16.729  0.00  0.00    +0.000 A 
ENDROOT
BRANCH   5   6
ATOM      6  C   UNL     1       3.810   3.525  17.691  0.00  0.00    +0.000 A 
ATOM      7  C   UNL     1       2.528   3.049  17.403  0.00  0.00    +0.000 A 
ATOM      8  C   UNL     1       1.834   2.308  18.357  0.00  0.00    +0.000 A 
ATOM      9  C   UNL     1       2.440   2.064  19.577  0.00  0.00    +0.000 A 
ATOM     10  N   UNL     1       3.671   2.507  19.903  0.00  0.00    +0.000 NA
ATOM     11  C   UNL     1       4.322   3.221  18.953  0.00  0.00    +0.000 A 
ENDBRANCH   5   6
BRANCH   1  13
ATOM     12  N   UNL     1       2.891   6.566  18.051  0.00  0.00    +0.000 N 
ATOM     13  C   UNL     1       4.199   6.720  17.641  0.00  0.00    +0.000 C 
ATOM     14  O   UNL     1       4.981   7.570  18.048  0.00  0.00    +0.000 OA
ATOM     15  H   UNL     1       2.383   5.809  17.625  0.00  0.00    +0.000 HD
BRANCH  12  21
ATOM     16  C   UNL     1       0.615  10.792  19.577  0.00  0.00    +0.000 C 
ATOM     17  C   UNL     1       1.112   9.387  19.797  0.00  0.00    +0.000 A 
ATOM     18  C   UNL     1       0.894   8.812  21.056  0.00  0.00    +0.000 A 
ATOM     19  C   UNL     1       1.321   7.524  21.317  0.00  0.00    +0.000 A 
ATOM     20  C   UNL     1       1.972   6.798  20.324  0.00  0.00    +0.000 A 
ATOM     21  C   UNL     1       2.219   7.333  19.047  0.00  0.00    +0.000 A 
ATOM     22  C   UNL     1       1.778   8.652  18.775  0.00  0.00    +0.000 A 
ATOM     23  C   UNL     1       1.987   9.338  17.445  0.00  0.00    +0.000 C 
ENDBRANCH  12  21
ENDBRANCH   1  13
BRANCH   3  24
ATOM     24  C   UNL     1       6.700   4.497  13.942  0.00  0.00    +0.000 C 
BRANCH  24  25
ATOM     25  C   UNL     1       6.096   3.662  12.841  0.00  0.00    +0.000 A 
ATOM     26  C   UNL     1       4.779   3.890  12.417  0.00  0.00    +0.000 A 
ATOM     27  C   UNL     1       4.215   3.107  11.407  0.00  0.00    +0.000 A 
ATOM     28  C   UNL     1       4.964   2.101  10.801  0.00  0.00    +0.000 A 
ATOM     29  C   UNL     1       6.284   1.885  11.191  0.00  0.00    +0.000 A 
ATOM     30  C   UNL     1       6.848   2.664  12.202  0.00  0.00    +0.000 A 
ENDBRANCH  24  25
ENDBRANCH   3  24
TORSDOF 5
ENDMDL
MODEL 5
REMARK VINA RESULT:      -7.7      1.691      2.347
REMARK  Name = 
REMARK  7 active torsions:
REMARK  status: ('A' for Active; 'I' for Inactive)
REMARK    1  A    between atoms: C_1  and  C_2
REMARK    2  A    between atoms: C_6  and  N_7
REMARK    3  A    between atoms: C_8  and  C_10
REMARK    4  A    between atoms: N_12  and  C_13
REMARK    5  A    between atoms: C_13  and  C_14
REMARK    6  A    between atoms: C_21  and  C_22
REMARK    7  A    between atoms: C_28  and  C_29
REMARK                            x       y       z     vdW  Elec       q    Type
REMARK                         _______ _______ _______ _____ _____    ______ ____
ROOT
ATOM      1  C   UNL     1       3.544   5.943  17.592  0.00  0.00    +0.000 A 
ATOM      2  C   UNL     1       4.570   6.130  16.684  0.00  0.00    +0.000 A 
ATOM      3  N   UNL     1       5.477   5.136  16.934  0.00  0.00    +0.000 N 
ATOM      4  N   UNL     1       5.067   4.265  17.873  0.00  0.00    +0.000 NA
ATOM      5  C   UNL     1       3.862   4.718  18.263  0.00  0.00    +0.000 A 
ENDROOT
BRANCH   5   6
ATOM      6  C   UNL     1       3.067   3.971  19.239  0.00  0.00    +0.000 A 
ATOM      7  C   UNL     1       2.860   4.456  20.533  0.00  0.00    +0.000 A 
ATOM      8  C   UNL     1       2.125   3.701  21.447  0.00  0.00    +0.000 A 
ATOM      9  C   UNL     1       1.620   2.478  21.040  0.00  0.00    +0.000 A 
ATOM     10  N   UNL     1       1.799   1.966  19.807  0.00  0.00    +0.000 NA
ATOM     11  C   UNL     1       2.514   2.726  18.941  0.00  0.00    +0.000 A 
ENDBRANCH   5   6
BRANCH   1  13
ATOM     12  N   UNL     1       2.725   7.930  18.661  0.00  0.00    +0.000 N 
ATOM     13  C   UNL     1       2.424   6.824  17.894  0.00  0.00    +0.000 C 
ATOM     14  O   UNL     1       1.319   6.540  17.450  0.00  0.00    +0.000 OA
ATOM     15  H   UNL     1       3.688   8.024  18.938  0.00  0.00    +0.000 HD
BRANCH  12  21
ATOM     16  C   UNL     1      -0.484   9.992  21.949  0.00  0.00    +0.000 C 
ATOM     17  C   UNL     1       0.260   9.974  20.639  0.00  0.00    +0.000 A 
ATOM     18  C   UNL     1       0.046  11.041  19.757  0.00  0.00    +0.000 A 
ATOM     19  C   UNL     1       0.705  11.085  18.543  0.00  0.00    +0.000 A 
ATOM     20  C   UNL     1       1.581  10.061  18.196  0.00  0.00    +0.000 A 
ATOM     21  C   UNL     1       1.824   8.966  19.045  0.00  0.00    +0.000 A 
ATOM     22  C   UNL     1       1.154   8.921  20.292  0.00  0.00    +0.000 A 
ATOM     23  C   UNL     1       1.328   7.796  21.287  0.00  0.00    +0.000 C 
ENDBRANCH  12  21
ENDBRANCH   1  13
BRANCH   3  24
ATOM     24  C   UNL     1       6.830   5.027  16.397  0.00  0.00    +0.000 C 
BRANCH  24  25
ATOM     25  C   UNL     1       6.840   4.722  14.920  0.00  0.00    +0.000 A 
ATOM     26  C   UNL     1       5.939   3.793  14.379  0.00  0.00    +0.000 A 
ATOM     27  C   UNL     1       5.957   3.501  13.014  0.00  0.00    +0.000 A 
ATOM     28  C   UNL     1       6.861   4.145  12.172  0.00  0.00    +0.000 A 
ATOM     29  C   UNL     1       7.740   5.093  12.691  0.00  0.00    +0.000 A 
ATOM     30  C   UNL     1       7.726   5.384  14.055  0.00  0.00    +0.000 A 
ENDBRANCH  24  25
ENDBRANCH   3  24
TORSDOF 5
ENDMDL
MODEL 6
REMARK VINA RESULT:      -7.6      1.655      2.633
REMARK  Name = 
REMARK  7 active torsions:
REMARK  status: ('A' for Active; 'I' for Inactive)
REMARK    1  A    between atoms: C_1  and  C_2
REMARK    2  A    between atoms: C_6  and  N_7
REMARK    3  A    between atoms: C_8  and  C_10
REMARK    4  A    between atoms: N_12  and  C_13
REMARK    5  A    between atoms: C_13  and  C_14
REMARK    6  A    between atoms: C_21  and  C_22
REMARK    7  A    between atoms: C_28  and  C_29
REMARK                            x       y       z     vdW  Elec       q    Type
REMARK                         _______ _______ _______ _____ _____    ______ ____
ROOT
ATOM      1  C   UNL     1       3.477   6.136  17.584  0.00  0.00    +0.000 A 
ATOM      2  C   UNL     1       4.506   6.493  16.732  0.00  0.00    +0.000 A 
ATOM      3  N   UNL     1       5.398   5.456  16.767  0.00  0.00    +0.000 N 
ATOM      4  N   UNL     1       4.975   4.414  17.507  0.00  0.00    +0.000 NA
ATOM      5  C   UNL     1       3.777   4.793  17.985  0.00  0.00    +0.000 A 
ENDROOT
BRANCH   5   6
ATOM      6  C   UNL     1       2.971   3.872  18.787  0.00  0.00    +0.000 A 
ATOM      7  C   UNL     1       1.797   3.304  18.283  0.00  0.00    +0.000 A 
ATOM      8  C   UNL     1       1.037   2.457  19.088  0.00  0.00    +0.000 A 
ATOM      9  C   UNL     1       1.470   2.203  20.378  0.00  0.00    +0.000 A 
ATOM     10  N   UNL     1       2.590   2.731  20.909  0.00  0.00    +0.000 NA
ATOM     11  C   UNL     1       3.310   3.548  20.101  0.00  0.00    +0.000 A 
ENDBRANCH   5   6
BRANCH   1  13
ATOM     12  N   UNL     1       2.568   7.567  19.283  0.00  0.00    +0.000 N 
ATOM     13  C   UNL     1       2.370   6.951  18.065  0.00  0.00    +0.000 C 
ATOM     14  O   UNL     1       1.365   7.043  17.372  0.00  0.00    +0.000 OA
ATOM     15  H   UNL     1       3.457   7.397  19.723  0.00  0.00    +0.000 HD
BRANCH  12  21
ATOM     16  C   UNL     1       0.083  11.941  19.544  0.00  0.00    +0.000 C 
ATOM     17  C   UNL     1       0.456  10.581  20.075  0.00  0.00    +0.000 A 
ATOM     18  C   UNL     1      -0.125  10.176  21.284  0.00  0.00    +0.000 A 
ATOM     19  C   UNL     1       0.172   8.937  21.820  0.00  0.00    +0.000 A 
ATOM     20  C   UNL     1       1.054   8.091  21.154  0.00  0.00    +0.000 A 
ATOM     21  C   UNL     1       1.666   8.454  19.941  0.00  0.00    +0.000 A 
ATOM     22  C   UNL     1       1.360   9.722  19.387  0.00  0.00    +0.000 A 
ATOM     23  C   UNL     1       1.956  10.228  18.093  0.00  0.00    +0.000 C 
ENDBRANCH  12  21
ENDBRANCH   1  13
BRANCH   3  24
ATOM     24  C   UNL     1       6.750   5.441  16.216  0.00  0.00    +0.000 C 
BRANCH  24  25
ATOM     25  C   UNL     1       6.784   4.951  14.791  0.00  0.00    +0.000 A 
ATOM     26  C   UNL     1       7.715   5.473  13.881  0.00  0.00    +0.000 A 
ATOM     27  C   UNL     1       7.738   5.027  12.557  0.00  0.00    +0.000 A 
ATOM     28  C   UNL     1       6.843   4.048  12.133  0.00  0.00    +0.000 A 
ATOM     29  C   UNL     1       5.934   3.498  13.035  0.00  0.00    +0.000 A 
ATOM     30  C   UNL     1       5.908   3.944  14.356  0.00  0.00    +0.000 A 
ENDBRANCH  24  25
ENDBRANCH   3  24
TORSDOF 5
ENDMDL
MODEL 7
REMARK VINA RESULT:      -7.5      1.753      2.750
REMARK  Name = 
REMARK  7 active torsions:
REMARK  status: ('A' for Active; 'I' for Inactive)
REMARK    1  A    between atoms: C_1  and  C_2
REMARK    2  A    between atoms: C_6  and  N_7
REMARK    3  A    between atoms: C_8  and  C_10
REMARK    4  A    between atoms: N_12  and  C_13
REMARK    5  A    between atoms: C_13  and  C_14
REMARK    6  A    between atoms: C_21  and  C_22
REMARK    7  A    between atoms: C_28  and  C_29
REMARK                            x       y       z     vdW  Elec       q    Type
REMARK                         _______ _______ _______ _____ _____    ______ ____
ROOT
ATOM      1  C   UNL     1       3.467   6.064  17.812  0.00  0.00    +0.000 A 
ATOM      2  C   UNL     1       4.480   6.314  16.905  0.00  0.00    +0.000 A 
ATOM      3  N   UNL     1       5.397   5.313  17.082  0.00  0.00    +0.000 N 
ATOM      4  N   UNL     1       5.004   4.384  17.971  0.00  0.00    +0.000 NA
ATOM      5  C   UNL     1       3.802   4.802  18.403  0.00  0.00    +0.000 A 
ENDROOT
BRANCH   5   6
ATOM      6  C   UNL     1       3.024   3.991  19.340  0.00  0.00    +0.000 A 
ATOM      7  C   UNL     1       2.253   2.910  18.903  0.00  0.00    +0.000 A 
ATOM      8  C   UNL     1       1.499   2.181  19.821  0.00  0.00    +0.000 A 
ATOM      9  C   UNL     1       1.533   2.556  21.154  0.00  0.00    +0.000 A 
ATOM     10  N   UNL     1       2.255   3.593  21.621  0.00  0.00    +0.000 NA
ATOM     11  C   UNL     1       2.981   4.280  20.704  0.00  0.00    +0.000 A 
ENDBRANCH   5   6
BRANCH   1  13
ATOM     12  N   UNL     1       2.477   7.593  19.375  0.00  0.00    +0.000 N 
ATOM     13  C   UNL     1       2.344   6.916  18.181  0.00  0.00    +0.000 C 
ATOM     14  O   UNL     1       1.386   6.984  17.422  0.00  0.00    +0.000 OA
ATOM     15  H   UNL     1       3.334   7.435  19.878  0.00  0.00    +0.000 HD
BRANCH  12  21
ATOM     16  C   UNL     1       0.042  12.000  19.253  0.00  0.00    +0.000 C 
ATOM     17  C   UNL     1       0.363  10.667  19.877  0.00  0.00    +0.000 A 
ATOM     18  C   UNL     1      -0.294  10.334  21.069  0.00  0.00    +0.000 A 
ATOM     19  C   UNL     1      -0.047   9.123  21.687  0.00  0.00    +0.000 A 
ATOM     20  C   UNL     1       0.861   8.233  21.121  0.00  0.00    +0.000 A 
ATOM     21  C   UNL     1       1.550   8.524  19.930  0.00  0.00    +0.000 A 
ATOM     22  C   UNL     1       1.295   9.763  19.292  0.00  0.00    +0.000 A 
ATOM     23  C   UNL     1       1.974  10.191  18.011  0.00  0.00    +0.000 C 
ENDBRANCH  12  21
ENDBRANCH   1  13
BRANCH   3  24
ATOM     24  C   UNL     1       6.744   5.248  16.523  0.00  0.00    +0.000 C 
BRANCH  24  25
ATOM     25  C   UNL     1       6.744   4.848  15.069  0.00  0.00    +0.000 A 
ATOM     26  C   UNL     1       5.800   3.930  14.584  0.00  0.00    +0.000 A 
ATOM     27  C   UNL     1       5.809   3.549  13.240  0.00  0.00    +0.000 A 
ATOM     28  C   UNL     1       6.747   4.092  12.366  0.00  0.00    +0.000 A 
ATOM     29  C   UNL     1       7.670   5.028  12.828  0.00  0.00    +0.000 A 
ATOM     30  C   UNL     1       7.665   5.407  14.170  0.00  0.00    +0.000 A 
ENDBRANCH  24  25
ENDBRANCH   3  24
TORSDOF 5
ENDMDL
MODEL 8
REMARK VINA RESULT:      -7.5      1.765      2.381
REMARK  Name = 
REMARK  7 active torsions:
REMARK  status: ('A' for Active; 'I' for Inactive)
REMARK    1  A    between atoms: C_1  and  C_2
REMARK    2  A    between atoms: C_6  and  N_7
REMARK    3  A    between atoms: C_8  and  C_10
REMARK    4  A    between atoms: N_12  and  C_13
REMARK    5  A    between atoms: C_13  and  C_14
REMARK    6  A    between atoms: C_21  and  C_22
REMARK    7  A    between atoms: C_28  and  C_29
REMARK                            x       y       z     vdW  Elec       q    Type
REMARK                         _______ _______ _______ _____ _____    ______ ____
ROOT
ATOM      1  C   UNL     1       3.452   6.140  17.608  0.00  0.00    +0.000 A 
ATOM      2  C   UNL     1       4.507   6.319  16.733  0.00  0.00    +0.000 A 
ATOM      3  N   UNL     1       5.382   5.298  16.986  0.00  0.00    +0.000 N 
ATOM      4  N   UNL     1       4.925   4.419  17.896  0.00  0.00    +0.000 NA
ATOM      5  C   UNL     1       3.721   4.893  18.262  0.00  0.00    +0.000 A 
ENDROOT
BRANCH   5   6
ATOM      6  C   UNL     1       2.881   4.147  19.200  0.00  0.00    +0.000 A 
ATOM      7  C   UNL     1       1.992   3.164  18.758  0.00  0.00    +0.000 A 
ATOM      8  C   UNL     1       1.183   2.497  19.677  0.00  0.00    +0.000 A 
ATOM      9  C   UNL     1       1.284   2.836  21.016  0.00  0.00    +0.000 A 
ATOM     10  N   UNL     1       2.121   3.780  21.489  0.00  0.00    +0.000 NA
ATOM     11  C   UNL     1       2.897   4.407  20.570  0.00  0.00    +0.000 A 
ENDBRANCH   5   6
BRANCH   1  13
ATOM     12  N   UNL     1       2.623   8.062  18.783  0.00  0.00    +0.000 N 
ATOM     13  C   UNL     1       2.345   7.042  17.897  0.00  0.00    +0.000 C 
ATOM     14  O   UNL     1       1.271   6.848  17.342  0.00  0.00    +0.000 OA
ATOM     15  H   UNL     1       3.562   8.087  19.144  0.00  0.00    +0.000 HD
BRANCH  12  21
ATOM     16  C   UNL     1      -0.540  10.116  22.121  0.00  0.00    +0.000 C 
ATOM     17  C   UNL     1       0.192  10.105  20.804  0.00  0.00    +0.000 A 
ATOM     18  C   UNL     1      -0.021  11.183  19.934  0.00  0.00    +0.000 A 
ATOM     19  C   UNL     1       0.627  11.234  18.715  0.00  0.00    +0.000 A 
ATOM     20  C   UNL     1       1.492  10.206  18.350  0.00  0.00    +0.000 A 
ATOM     21  C   UNL     1       1.733   9.101  19.185  0.00  0.00    +0.000 A 
ATOM     22  C   UNL     1       1.075   9.049  20.438  0.00  0.00    +0.000 A 
ATOM     23  C   UNL     1       1.249   7.913  21.420  0.00  0.00    +0.000 C 
ENDBRANCH  12  21
ENDBRANCH   1  13
BRANCH   3  24
ATOM     24  C   UNL     1       6.747   5.167  16.485  0.00  0.00    +0.000 C 
BRANCH  24  25
ATOM     25  C   UNL     1       6.789   4.812  15.020  0.00  0.00    +0.000 A 
ATOM     26  C   UNL     1       7.727   5.415  14.168  0.00  0.00    +0.000 A 
ATOM     27  C   UNL     1       7.757   5.097  12.809  0.00  0.00    +0.000 A 
ATOM     28  C   UNL     1       6.863   4.164  12.289  0.00  0.00    +0.000 A 
ATOM     29  C   UNL     1       5.947   3.535  13.130  0.00  0.00    +0.000 A 
ATOM     30  C   UNL     1       5.913   3.853  14.487  0.00  0.00    +0.000 A 
ENDBRANCH  24  25
ENDBRANCH   3  24
TORSDOF 5
ENDMDL
MODEL 9
REMARK VINA RESULT:      -7.5      0.739      1.950
REMARK  Name = 
REMARK  7 active torsions:
REMARK  status: ('A' for Active; 'I' for Inactive)
REMARK    1  A    between atoms: C_1  and  C_2
REMARK    2  A    between atoms: C_6  and  N_7
REMARK    3  A    between atoms: C_8  and  C_10
REMARK    4  A    between atoms: N_12  and  C_13
REMARK    5  A    between atoms: C_13  and  C_14
REMARK    6  A    between atoms: C_21  and  C_22
REMARK    7  A    between atoms: C_28  and  C_29
REMARK                            x       y       z     vdW  Elec       q    Type
REMARK                         _______ _______ _______ _____ _____    ______ ____
ROOT
ATOM      1  C   UNL     1       4.647   5.773  16.672  0.00  0.00    +0.000 A 
ATOM      2  C   UNL     1       5.342   6.004  15.499  0.00  0.00    +0.000 A 
ATOM      3  N   UNL     1       5.741   4.773  15.052  0.00  0.00    +0.000 N 
ATOM      4  N   UNL     1       5.273   3.758  15.800  0.00  0.00    +0.000 NA
ATOM      5  C   UNL     1       4.563   4.346  16.779  0.00  0.00    +0.000 A 
ENDROOT
BRANCH   5   6
ATOM      6  C   UNL     1       3.834   3.539  17.757  0.00  0.00    +0.000 A 
ATOM      7  C   UNL     1       4.364   3.274  19.023  0.00  0.00    +0.000 A 
ATOM      8  C   UNL     1       3.656   2.472  19.917  0.00  0.00    +0.000 A 
ATOM      9  C   UNL     1       2.435   1.954  19.519  0.00  0.00    +0.000 A 
ATOM     10  N   UNL     1       1.887   2.176  18.309  0.00  0.00    +0.000 NA
ATOM     11  C   UNL     1       2.598   2.962  17.463  0.00  0.00    +0.000 A 
ENDBRANCH   5   6
BRANCH   1  13
ATOM     12  N   UNL     1       2.873   6.567  18.080  0.00  0.00    +0.000 N 
ATOM     13  C   UNL     1       4.173   6.738  17.655  0.00  0.00    +0.000 C 
ATOM     14  O   UNL     1       4.943   7.610  18.039  0.00  0.00    +0.000 OA
ATOM     15  H   UNL     1       2.375   5.793  17.672  0.00  0.00    +0.000 HD
BRANCH  12  21
ATOM     16  C   UNL     1       0.589  10.800  19.573  0.00  0.00    +0.000 C 
ATOM     17  C   UNL     1       1.085   9.396  19.803  0.00  0.00    +0.000 A 
ATOM     18  C   UNL     1       0.860   8.827  21.064  0.00  0.00    +0.000 A 
ATOM     19  C   UNL     1       1.286   7.540  21.333  0.00  0.00    +0.000 A 
ATOM     20  C   UNL     1       1.942   6.810  20.347  0.00  0.00    +0.000 A 
ATOM     21  C   UNL     1       2.195   7.339  19.069  0.00  0.00    +0.000 A 
ATOM     22  C   UNL     1       1.756   8.656  18.788  0.00  0.00    +0.000 A 
ATOM     23  C   UNL     1       1.973   9.336  17.456  0.00  0.00    +0.000 C 
ENDBRANCH  12  21
ENDBRANCH   1  13
BRANCH   3  24
ATOM     24  C   UNL     1       6.688   4.495  13.977  0.00  0.00    +0.000 C 
BRANCH  24  25
ATOM     25  C   UNL     1       6.077   3.671  12.872  0.00  0.00    +0.000 A 
ATOM     26  C   UNL     1       6.821   2.660  12.244  0.00  0.00    +0.000 A 
ATOM     27  C   UNL     1       6.259   1.907  11.211  0.00  0.00    +0.000 A 
ATOM     28  C   UNL     1       4.947   2.142  10.806  0.00  0.00    +0.000 A 
ATOM     29  C   UNL     1       4.188   3.121  11.443  0.00  0.00    +0.000 A 
ATOM     30  C   UNL     1       4.748   3.878  12.472  0.00  0.00    +0.000 A 
ENDBRANCH  24  25
ENDBRANCH   3  24
TORSDOF 5
ENDMDL
