MODEL 1
REMARK VINA RESULT:      -9.3      0.000      0.000
REMARK  Name = 
REMARK  6 active torsions:
REMARK  status: ('A' for Active; 'I' for Inactive)
REMARK    1  A    between atoms: C_1  and  C_2
REMARK    2  A    between atoms: C_2  and  N_3
REMARK    3  A    between atoms: C_5  and  C_6
REMARK    4  A    between atoms: N_8  and  C_9
REMARK    5  A    between atoms: C_9  and  C_10
REMARK    6  A    between atoms: N_13  and  C_14
REMARK                            x       y       z     vdW  Elec       q    Type
REMARK                         _______ _______ _______ _____ _____    ______ ____
ROOT
ATOM      1  C   UNL     1       2.169   7.347  19.503  0.00  0.00    +0.000 C 
ATOM      2  O   UNL     1       2.190   8.279  18.714  0.00  0.00    +0.000 OA
ATOM      3  N   UNL     1       1.780   7.449  20.823  0.00  0.00    +0.000 N 
ATOM      4  H   UNL     1       1.669   6.580  21.340  0.00  0.00    +0.000 HD
ENDROOT
BRANCH   1   7
ATOM      5  N   UNL     1       2.248   3.653  19.303  0.00  0.00    +0.000 N 
ATOM      6  N   UNL     1       1.982   4.948  19.697  0.00  0.00    +0.000 NA
ATOM      7  C   UNL     1       2.562   5.928  19.061  0.00  0.00    +0.000 A 
ATOM      8  C   UNL     1       3.540   5.726  17.967  0.00  0.00    +0.000 A 
ATOM      9  C   UNL     1       4.223   6.767  17.326  0.00  0.00    +0.000 A 
ATOM     10  C   UNL     1       5.107   6.492  16.278  0.00  0.00    +0.000 A 
ATOM     11  C   UNL     1       5.323   5.179  15.865  0.00  0.00    +0.000 A 
ATOM     12  C   UNL     1       4.667   4.137  16.514  0.00  0.00    +0.000 A 
ATOM     13  C   UNL     1       3.781   4.415  17.567  0.00  0.00    +0.000 A 
ATOM     14  C   UNL     1       3.115   3.304  18.268  0.00  0.00    +0.000 A 
ATOM     15  O   UNL     1       3.355   2.147  17.930  0.00  0.00    +0.000 OA
BRANCH   5  17
ATOM     16  C   UNL     1       1.738   2.735  21.537  0.00  0.00    +0.000 C 
ATOM     17  C   UNL     1       1.563   2.593  20.034  0.00  0.00    +0.000 C 
ENDBRANCH   5  17
ENDBRANCH   1   7
BRANCH   3  18
ATOM     18  C   UNL     1       1.394   8.715  21.423  0.00  0.00    +0.000 C 
BRANCH  18  19
ATOM     19  C   UNL     1      -0.113   8.992  21.352  0.00  0.00    +0.000 C 
ATOM     20  C   UNL     1      -0.480   9.876  20.157  0.00  0.00    +0.000 C 
ATOM     21  C   UNL     1      -0.422  11.298  20.699  0.00  0.00    +0.000 C 
ATOM     22  N   UNL     1      -0.867  11.147  22.077  0.00  0.00    +0.000 N 
ATOM     23  C   UNL     1      -0.639   9.782  22.562  0.00  0.00    +0.000 C 
BRANCH  22  24
ATOM     24  C   UNL     1      -1.491  12.127  22.816  0.00  0.00    +0.000 A 
ATOM     25  C   UNL     1      -0.886  13.370  23.078  0.00  0.00    +0.000 A 
ATOM     26  C   UNL     1      -1.533  14.376  23.811  0.00  0.00    +0.000 A 
ATOM     27  C   UNL     1      -2.805  14.149  24.308  0.00  0.00    +0.000 A 
ATOM     28  F   UNL     1      -3.425  15.105  25.010  0.00  0.00    +0.000 F 
ATOM     29  C   UNL     1      -3.437  12.939  24.083  0.00  0.00    +0.000 A 
ATOM     30  C   UNL     1      -2.783  11.945  23.345  0.00  0.00    +0.000 A 
ENDBRANCH  22  24
ENDBRANCH  18  19
ENDBRANCH   3  18
TORSDOF 5
ENDMDL
MODEL 2
REMARK VINA RESULT:      -8.9      4.077      6.581
REMARK  Name = 
REMARK  6 active torsions:
REMARK  status: ('A' for Active; 'I' for Inactive)
REMARK    1  A    between atoms: C_1  and  C_2
REMARK    2  A    between atoms: C_2  and  N_3
REMARK    3  A    between atoms: C_5  and  C_6
REMARK    4  A    between atoms: N_8  and  C_9
REMARK    5  A    between atoms: C_9  and  C_10
REMARK    6  A    between atoms: N_13  and  C_14
REMARK                            x       y       z     vdW  Elec       q    Type
REMARK                         _______ _______ _______ _____ _____    ______ ____
ROOT
ATOM      1  C   UNL     1       3.991   3.102  17.409  0.00  0.00    +0.000 C 
ATOM      2  O   UNL     1       2.845   3.059  16.987  0.00  0.00    +0.000 OA
ATOM      3  N   UNL     1       4.405   2.545  18.601  0.00  0.00    +0.000 N 
ATOM      4  H   UNL     1       5.407   2.521  18.776  0.00  0.00    +0.000 HD
ENDROOT
BRANCH   1   7
ATOM      5  N   UNL     1       6.153   4.042  14.557  0.00  0.00    +0.000 N 
ATOM      6  N   UNL     1       5.209   3.421  15.350  0.00  0.00    +0.000 NA
ATOM      7  C   UNL     1       5.107   3.781  16.599  0.00  0.00    +0.000 A 
ATOM      8  C   UNL     1       5.989   4.788  17.234  0.00  0.00    +0.000 A 
ATOM      9  C   UNL     1       5.936   5.129  18.592  0.00  0.00    +0.000 A 
ATOM     10  C   UNL     1       6.784   6.116  19.105  0.00  0.00    +0.000 A 
ATOM     11  C   UNL     1       7.695   6.763  18.274  0.00  0.00    +0.000 A 
ATOM     12  C   UNL     1       7.772   6.411  16.929  0.00  0.00    +0.000 A 
ATOM     13  C   UNL     1       6.920   5.420  16.415  0.00  0.00    +0.000 A 
ATOM     14  C   UNL     1       7.029   5.032  14.998  0.00  0.00    +0.000 A 
ATOM     15  O   UNL     1       7.874   5.572  14.289  0.00  0.00    +0.000 OA
BRANCH   5  17
ATOM     16  C   UNL     1       4.849   3.627  12.502  0.00  0.00    +0.000 C 
ATOM     17  C   UNL     1       6.218   3.617  13.163  0.00  0.00    +0.000 C 
ENDBRANCH   5  17
ENDBRANCH   1   7
BRANCH   3  18
ATOM     18  C   UNL     1       3.486   1.879  19.509  0.00  0.00    +0.000 C 
BRANCH  18  19
ATOM     19  C   UNL     1       2.967   2.787  20.631  0.00  0.00    +0.000 C 
ATOM     20  C   UNL     1       1.439   2.770  20.725  0.00  0.00    +0.000 C 
ATOM     21  C   UNL     1       0.985   3.914  19.827  0.00  0.00    +0.000 C 
ATOM     22  N   UNL     1       2.043   4.902  19.989  0.00  0.00    +0.000 N 
ATOM     23  C   UNL     1       3.299   4.271  20.407  0.00  0.00    +0.000 C 
BRANCH  22  24
ATOM     24  C   UNL     1       1.879   6.262  19.846  0.00  0.00    +0.000 A 
ATOM     25  C   UNL     1       1.362   7.069  20.877  0.00  0.00    +0.000 A 
ATOM     26  C   UNL     1       1.218   8.457  20.737  0.00  0.00    +0.000 A 
ATOM     27  C   UNL     1       1.584   9.066  19.549  0.00  0.00    +0.000 A 
ATOM     28  F   UNL     1       1.446  10.390  19.411  0.00  0.00    +0.000 F 
ATOM     29  C   UNL     1       2.088   8.313  18.504  0.00  0.00    +0.000 A 
ATOM     30  C   UNL     1       2.233   6.928  18.657  0.00  0.00    +0.000 A 
ENDBRANCH  22  24
ENDBRANCH  18  19
ENDBRANCH   3  18
TORSDOF 5
ENDMDL
MODEL 3
REMARK VINA RESULT:      -8.6      3.273      4.649
REMARK  Name = 
REMARK  6 active torsions:
REMARK  status: ('A' for Active; 'I' for Inactive)
REMARK    1  A    between atoms: C_1  and  C_2
REMARK    2  A    between atoms: C_2  and  N_3
REMARK    3  A    between atoms: C_5  and  C_6
REMARK    4  A    between atoms: N_8  and  C_9
REMARK    5  A    between atoms: C_9  and  C_10
REMARK    6  A    between atoms: N_13  and  C_14
REMARK                            x       y       z     vdW  Elec       q    Type
REMARK                         _______ _______ _______ _____ _____    ______ ____
ROOT
ATOM      1  C   UNL     1       2.163   7.234  19.493  0.00  0.00    +0.000 C 
ATOM      2  O   UNL     1       1.944   6.962  20.663  0.00  0.00    +0.000 OA
ATOM      3  N   UNL     1       1.796   8.417  18.884  0.00  0.00    +0.000 N 
ATOM      4  H   UNL     1       2.157   8.586  17.948  0.00  0.00    +0.000 HD
ENDROOT
BRANCH   1   7
ATOM      5  N   UNL     1       4.669   5.907  17.116  0.00  0.00    +0.000 N 
ATOM      6  N   UNL     1       3.915   6.752  17.905  0.00  0.00    +0.000 NA
ATOM      7  C   UNL     1       2.917   6.254  18.581  0.00  0.00    +0.000 A 
ATOM      8  C   UNL     1       2.512   4.831  18.507  0.00  0.00    +0.000 A 
ATOM      9  C   UNL     1       1.398   4.300  19.172  0.00  0.00    +0.000 A 
ATOM     10  C   UNL     1       1.102   2.937  19.077  0.00  0.00    +0.000 A 
ATOM     11  C   UNL     1       1.907   2.094  18.314  0.00  0.00    +0.000 A 
ATOM     12  C   UNL     1       3.000   2.619  17.629  0.00  0.00    +0.000 A 
ATOM     13  C   UNL     1       3.295   3.988  17.725  0.00  0.00    +0.000 A 
ATOM     14  C   UNL     1       4.435   4.540  16.973  0.00  0.00    +0.000 A 
ATOM     15  O   UNL     1       5.104   3.796  16.261  0.00  0.00    +0.000 OA
BRANCH   5  17
ATOM     16  C   UNL     1       6.986   6.740  17.292  0.00  0.00    +0.000 C 
ATOM     17  C   UNL     1       5.784   6.508  16.392  0.00  0.00    +0.000 C 
ENDBRANCH   5  17
ENDBRANCH   1   7
BRANCH   3  18
ATOM     18  C   UNL     1       1.058   9.455  19.584  0.00  0.00    +0.000 C 
BRANCH  18  19
ATOM     19  C   UNL     1       0.625  10.615  18.679  0.00  0.00    +0.000 C 
ATOM     20  C   UNL     1       0.470  11.924  19.458  0.00  0.00    +0.000 C 
ATOM     21  C   UNL     1      -0.991  11.946  19.887  0.00  0.00    +0.000 C 
ATOM     22  N   UNL     1      -1.672  11.287  18.781  0.00  0.00    +0.000 N 
ATOM     23  C   UNL     1      -0.760  10.403  18.048  0.00  0.00    +0.000 C 
BRANCH  22  24
ATOM     24  C   UNL     1      -2.980  11.513  18.414  0.00  0.00    +0.000 A 
ATOM     25  C   UNL     1      -3.922  12.074  19.296  0.00  0.00    +0.000 A 
ATOM     26  C   UNL     1      -5.247  12.324  18.913  0.00  0.00    +0.000 A 
ATOM     27  C   UNL     1      -5.659  12.005  17.631  0.00  0.00    +0.000 A 
ATOM     28  F   UNL     1      -6.925  12.240  17.261  0.00  0.00    +0.000 F 
ATOM     29  C   UNL     1      -4.772  11.443  16.730  0.00  0.00    +0.000 A 
ATOM     30  C   UNL     1      -3.449  11.203  17.123  0.00  0.00    +0.000 A 
ENDBRANCH  22  24
ENDBRANCH  18  19
ENDBRANCH   3  18
TORSDOF 5
ENDMDL
MODEL 4
REMARK VINA RESULT:      -8.5      0.932      1.535
REMARK  Name = 
REMARK  6 active torsions:
REMARK  status: ('A' for Active; 'I' for Inactive)
REMARK    1  A    between atoms: C_1  and  C_2
REMARK    2  A    between atoms: C_2  and  N_3
REMARK    3  A    between atoms: C_5  and  C_6
REMARK    4  A    between atoms: N_8  and  C_9
REMARK    5  A    between atoms: C_9  and  C_10
REMARK    6  A    between atoms: N_13  and  C_14
REMARK                            x       y       z     vdW  Elec       q    Type
REMARK                         _______ _______ _______ _____ _____    ______ ____
ROOT
ATOM      1  C   UNL     1       2.171   7.947  18.790  0.00  0.00    +0.000 C 
ATOM      2  O   UNL     1       2.270   8.614  17.771  0.00  0.00    +0.000 OA
ATOM      3  N   UNL     1       1.474   8.339  19.915  0.00  0.00    +0.000 N 
ATOM      4  H   UNL     1       1.344   7.642  20.644  0.00  0.00    +0.000 HD
ENDROOT
BRANCH   1   7
ATOM      5  N   UNL     1       2.928   4.534  20.001  0.00  0.00    +0.000 N 
ATOM      6  N   UNL     1       2.430   5.817  19.893  0.00  0.00    +0.000 NA
ATOM      7  C   UNL     1       2.816   6.556  18.891  0.00  0.00    +0.000 A 
ATOM      8  C   UNL     1       3.806   6.112  17.883  0.00  0.00    +0.000 A 
ATOM      9  C   UNL     1       4.282   6.923  16.844  0.00  0.00    +0.000 A 
ATOM     10  C   UNL     1       5.194   6.415  15.913  0.00  0.00    +0.000 A 
ATOM     11  C   UNL     1       5.645   5.101  16.014  0.00  0.00    +0.000 A 
ATOM     12  C   UNL     1       5.197   4.298  17.059  0.00  0.00    +0.000 A 
ATOM     13  C   UNL     1       4.282   4.809  17.993  0.00  0.00    +0.000 A 
ATOM     14  C   UNL     1       3.837   3.962  19.113  0.00  0.00    +0.000 A 
ATOM     15  O   UNL     1       4.284   2.823  19.222  0.00  0.00    +0.000 OA
BRANCH   5  17
ATOM     16  C   UNL     1       1.114   3.087  20.843  0.00  0.00    +0.000 C 
ATOM     17  C   UNL     1       2.455   3.741  21.131  0.00  0.00    +0.000 C 
ENDBRANCH   5  17
ENDBRANCH   1   7
BRANCH   3  18
ATOM     18  C   UNL     1       0.816   9.631  20.010  0.00  0.00    +0.000 C 
BRANCH  18  19
ATOM     19  C   UNL     1       1.126  10.383  21.311  0.00  0.00    +0.000 C 
ATOM     20  C   UNL     1       0.774   9.556  22.551  0.00  0.00    +0.000 C 
ATOM     21  C   UNL     1      -0.663   9.943  22.876  0.00  0.00    +0.000 C 
ATOM     22  N   UNL     1      -0.724  11.346  22.489  0.00  0.00    +0.000 N 
ATOM     23  C   UNL     1       0.293  11.663  21.481  0.00  0.00    +0.000 C 
BRANCH  22  24
ATOM     24  C   UNL     1      -1.571  12.280  23.043  0.00  0.00    +0.000 A 
ATOM     25  C   UNL     1      -2.902  11.978  23.386  0.00  0.00    +0.000 A 
ATOM     26  C   UNL     1      -3.755  12.924  23.971  0.00  0.00    +0.000 A 
ATOM     27  C   UNL     1      -3.290  14.204  24.217  0.00  0.00    +0.000 A 
ATOM     28  F   UNL     1      -4.102  15.112  24.773  0.00  0.00    +0.000 F 
ATOM     29  C   UNL     1      -1.991  14.551  23.888  0.00  0.00    +0.000 A 
ATOM     30  C   UNL     1      -1.147  13.596  23.310  0.00  0.00    +0.000 A 
ENDBRANCH  22  24
ENDBRANCH  18  19
ENDBRANCH   3  18
TORSDOF 5
ENDMDL
MODEL 5
REMARK VINA RESULT:      -8.4      4.259      9.921
REMARK  Name = 
REMARK  6 active torsions:
REMARK  status: ('A' for Active; 'I' for Inactive)
REMARK    1  A    between atoms: C_1  and  C_2
REMARK    2  A    between atoms: C_2  and  N_3
REMARK    3  A    between atoms: C_5  and  C_6
REMARK    4  A    between atoms: N_8  and  C_9
REMARK    5  A    between atoms: C_9  and  C_10
REMARK    6  A    between atoms: N_13  and  C_14
REMARK                            x       y       z     vdW  Elec       q    Type
REMARK                         _______ _______ _______ _____ _____    ______ ____
ROOT
ATOM      1  C   UNL     1       0.700   9.809  19.494  0.00  0.00    +0.000 C 
ATOM      2  O   UNL     1       1.546  10.093  18.661  0.00  0.00    +0.000 OA
ATOM      3  N   UNL     1       0.810   8.769  20.395  0.00  0.00    +0.000 N 
ATOM      4  H   UNL     1       0.109   8.719  21.130  0.00  0.00    +0.000 HD
ENDROOT
BRANCH   1   7
ATOM      5  N   UNL     1      -1.827  12.128  20.883  0.00  0.00    +0.000 N 
ATOM      6  N   UNL     1      -0.720  11.318  20.732  0.00  0.00    +0.000 NA
ATOM      7  C   UNL     1      -0.588  10.636  19.628  0.00  0.00    +0.000 A 
ATOM      8  C   UNL     1      -1.594  10.641  18.541  0.00  0.00    +0.000 A 
ATOM      9  C   UNL     1      -1.498   9.858  17.383  0.00  0.00    +0.000 A 
ATOM     10  C   UNL     1      -2.477   9.946  16.388  0.00  0.00    +0.000 A 
ATOM     11  C   UNL     1      -3.560  10.808  16.540  0.00  0.00    +0.000 A 
ATOM     12  C   UNL     1      -3.676  11.571  17.700  0.00  0.00    +0.000 A 
ATOM     13  C   UNL     1      -2.693  11.480  18.698  0.00  0.00    +0.000 A 
ATOM     14  C   UNL     1      -2.839  12.267  19.934  0.00  0.00    +0.000 A 
ATOM     15  O   UNL     1      -3.827  12.983  20.081  0.00  0.00    +0.000 OA
BRANCH   5  17
ATOM     16  C   UNL     1      -0.655  13.676  22.407  0.00  0.00    +0.000 C 
ATOM     17  C   UNL     1      -1.921  12.883  22.128  0.00  0.00    +0.000 C 
ENDBRANCH   5  17
ENDBRANCH   1   7
BRANCH   3  18
ATOM     18  C   UNL     1       1.949   7.867  20.405  0.00  0.00    +0.000 C 
BRANCH  18  19
ATOM     19  C   UNL     1       1.728   6.591  19.582  0.00  0.00    +0.000 C 
ATOM     20  C   UNL     1       2.338   5.359  20.256  0.00  0.00    +0.000 C 
ATOM     21  C   UNL     1       3.749   5.270  19.690  0.00  0.00    +0.000 C 
ATOM     22  N   UNL     1       3.592   5.760  18.328  0.00  0.00    +0.000 N 
ATOM     23  C   UNL     1       2.419   6.632  18.210  0.00  0.00    +0.000 C 
BRANCH  22  24
ATOM     24  C   UNL     1       4.388   5.399  17.263  0.00  0.00    +0.000 A 
ATOM     25  C   UNL     1       4.746   4.061  17.012  0.00  0.00    +0.000 A 
ATOM     26  C   UNL     1       5.538   3.694  15.915  0.00  0.00    +0.000 A 
ATOM     27  C   UNL     1       5.997   4.669  15.047  0.00  0.00    +0.000 A 
ATOM     28  F   UNL     1       6.755   4.323  13.999  0.00  0.00    +0.000 F 
ATOM     29  C   UNL     1       5.679   5.999  15.258  0.00  0.00    +0.000 A 
ATOM     30  C   UNL     1       4.883   6.353  16.354  0.00  0.00    +0.000 A 
ENDBRANCH  22  24
ENDBRANCH  18  19
ENDBRANCH   3  18
TORSDOF 5
ENDMDL
MODEL 6
REMARK VINA RESULT:      -8.4      2.084      3.382
REMARK  Name = 
REMARK  6 active torsions:
REMARK  status: ('A' for Active; 'I' for Inactive)
REMARK    1  A    between atoms: C_1  and  C_2
REMARK    2  A    between atoms: C_2  and  N_3
REMARK    3  A    between atoms: C_5  and  C_6
REMARK    4  A    between atoms: N_8  and  C_9
REMARK    5  A    between atoms: C_9  and  C_10
REMARK    6  A    between atoms: N_13  and  C_14
REMARK                            x       y       z     vdW  Elec       q    Type
REMARK                         _______ _______ _______ _____ _____    ______ ____
ROOT
ATOM      1  C   UNL     1       2.584   7.637  18.592  0.00  0.00    +0.000 C 
ATOM      2  O   UNL     1       2.279   7.622  19.775  0.00  0.00    +0.000 OA
ATOM      3  N   UNL     1       2.289   8.667  17.723  0.00  0.00    +0.000 N 
ATOM      4  H   UNL     1       2.717   8.629  16.801  0.00  0.00    +0.000 HD
ENDROOT
BRANCH   1   7
ATOM      5  N   UNL     1       5.306   5.778  16.910  0.00  0.00    +0.000 N 
ATOM      6  N   UNL     1       4.524   6.787  17.434  0.00  0.00    +0.000 NA
ATOM      7  C   UNL     1       3.373   6.477  17.965  0.00  0.00    +0.000 A 
ATOM      8  C   UNL     1       2.831   5.099  17.988  0.00  0.00    +0.000 A 
ATOM      9  C   UNL     1       1.565   4.765  18.489  0.00  0.00    +0.000 A 
ATOM     10  C   UNL     1       1.141   3.433  18.505  0.00  0.00    +0.000 A 
ATOM     11  C   UNL     1       1.969   2.425  18.015  0.00  0.00    +0.000 A 
ATOM     12  C   UNL     1       3.217   2.752  17.492  0.00  0.00    +0.000 A 
ATOM     13  C   UNL     1       3.640   4.090  17.476  0.00  0.00    +0.000 A 
ATOM     14  C   UNL     1       4.949   4.430  16.892  0.00  0.00    +0.000 A 
ATOM     15  O   UNL     1       5.646   3.539  16.414  0.00  0.00    +0.000 OA
BRANCH   5  17
ATOM     16  C   UNL     1       7.461   6.894  17.359  0.00  0.00    +0.000 C 
ATOM     17  C   UNL     1       6.590   6.173  16.343  0.00  0.00    +0.000 C 
ENDBRANCH   5  17
ENDBRANCH   1   7
BRANCH   3  18
ATOM     18  C   UNL     1       1.532   9.838  18.133  0.00  0.00    +0.000 C 
BRANCH  18  19
ATOM     19  C   UNL     1       0.114   9.511  18.617  0.00  0.00    +0.000 C 
ATOM     20  C   UNL     1      -0.958  10.164  17.739  0.00  0.00    +0.000 C 
ATOM     21  C   UNL     1      -1.231  11.509  18.400  0.00  0.00    +0.000 C 
ATOM     22  N   UNL     1      -1.056  11.223  19.817  0.00  0.00    +0.000 N 
ATOM     23  C   UNL     1      -0.185  10.060  20.021  0.00  0.00    +0.000 C 
BRANCH  22  24
ATOM     24  C   UNL     1      -1.680  11.901  20.841  0.00  0.00    +0.000 A 
ATOM     25  C   UNL     1      -1.196  11.877  22.162  0.00  0.00    +0.000 A 
ATOM     26  C   UNL     1      -1.821  12.587  23.198  0.00  0.00    +0.000 A 
ATOM     27  C   UNL     1      -2.956  13.331  22.929  0.00  0.00    +0.000 A 
ATOM     28  F   UNL     1      -3.556  14.008  23.916  0.00  0.00    +0.000 F 
ATOM     29  C   UNL     1      -3.474  13.377  21.647  0.00  0.00    +0.000 A 
ATOM     30  C   UNL     1      -2.839  12.669  20.620  0.00  0.00    +0.000 A 
ENDBRANCH  22  24
ENDBRANCH  18  19
ENDBRANCH   3  18
TORSDOF 5
ENDMDL
MODEL 7
REMARK VINA RESULT:      -8.4      1.248      1.516
REMARK  Name = 
REMARK  6 active torsions:
REMARK  status: ('A' for Active; 'I' for Inactive)
REMARK    1  A    between atoms: C_1  and  C_2
REMARK    2  A    between atoms: C_2  and  N_3
REMARK    3  A    between atoms: C_5  and  C_6
REMARK    4  A    between atoms: N_8  and  C_9
REMARK    5  A    between atoms: C_9  and  C_10
REMARK    6  A    between atoms: N_13  and  C_14
REMARK                            x       y       z     vdW  Elec       q    Type
REMARK                         _______ _______ _______ _____ _____    ______ ____
ROOT
ATOM      1  C   UNL     1       2.212   7.331  19.170  0.00  0.00    +0.000 C 
ATOM      2  O   UNL     1       2.232   7.665  20.344  0.00  0.00    +0.000 OA
ATOM      3  N   UNL     1       1.886   8.171  18.124  0.00  0.00    +0.000 N 
ATOM      4  H   UNL     1       2.042   7.818  17.183  0.00  0.00    +0.000 HD
ENDROOT
BRANCH   1   7
ATOM      5  N   UNL     1       2.200   3.637  18.964  0.00  0.00    +0.000 N 
ATOM      6  N   UNL     1       1.948   4.938  19.346  0.00  0.00    +0.000 NA
ATOM      7  C   UNL     1       2.590   5.903  18.747  0.00  0.00    +0.000 A 
ATOM      8  C   UNL     1       3.622   5.674  17.709  0.00  0.00    +0.000 A 
ATOM      9  C   UNL     1       4.370   6.698  17.111  0.00  0.00    +0.000 A 
ATOM     10  C   UNL     1       5.303   6.400  16.113  0.00  0.00    +0.000 A 
ATOM     11  C   UNL     1       5.505   5.082  15.710  0.00  0.00    +0.000 A 
ATOM     12  C   UNL     1       4.785   4.057  16.318  0.00  0.00    +0.000 A 
ATOM     13  C   UNL     1       3.849   4.358  17.320  0.00  0.00    +0.000 A 
ATOM     14  C   UNL     1       3.114   3.265  17.978  0.00  0.00    +0.000 A 
ATOM     15  O   UNL     1       3.341   2.103  17.652  0.00  0.00    +0.000 OA
BRANCH   5  17
ATOM     16  C   UNL     1       1.340   2.862  21.144  0.00  0.00    +0.000 C 
ATOM     17  C   UNL     1       1.446   2.595  19.652  0.00  0.00    +0.000 C 
ENDBRANCH   5  17
ENDBRANCH   1   7
BRANCH   3  18
ATOM     18  C   UNL     1       1.482   9.551  18.334  0.00  0.00    +0.000 C 
BRANCH  18  19
ATOM     19  C   UNL     1       0.059   9.697  18.887  0.00  0.00    +0.000 C 
ATOM     20  C   UNL     1      -0.757  10.734  18.111  0.00  0.00    +0.000 C 
ATOM     21  C   UNL     1      -0.523  12.043  18.854  0.00  0.00    +0.000 C 
ATOM     22  N   UNL     1      -0.399  11.619  20.242  0.00  0.00    +0.000 N 
ATOM     23  C   UNL     1       0.025  10.218  20.333  0.00  0.00    +0.000 C 
BRANCH  22  24
ATOM     24  C   UNL     1      -0.709  12.397  21.335  0.00  0.00    +0.000 A 
ATOM     25  C   UNL     1      -0.065  13.622  21.591  0.00  0.00    +0.000 A 
ATOM     26  C   UNL     1      -0.398  14.424  22.692  0.00  0.00    +0.000 A 
ATOM     27  C   UNL     1      -1.385  14.007  23.568  0.00  0.00    +0.000 A 
ATOM     28  F   UNL     1      -1.705  14.768  24.622  0.00  0.00    +0.000 F 
ATOM     29  C   UNL     1      -2.040  12.805  23.362  0.00  0.00    +0.000 A 
ATOM     30  C   UNL     1      -1.702  12.016  22.257  0.00  0.00    +0.000 A 
ENDBRANCH  22  24
ENDBRANCH  18  19
ENDBRANCH   3  18
TORSDOF 5
ENDMDL
MODEL 8
REMARK VINA RESULT:      -8.3      0.856      1.029
REMARK  Name = 
REMARK  6 active torsions:
REMARK  status: ('A' for Active; 'I' for Inactive)
REMARK    1  A    between atoms: C_1  and  C_2
REMARK    2  A    between atoms: C_2  and  N_3
REMARK    3  A    between atoms: C_5  and  C_6
REMARK    4  A    between atoms: N_8  and  C_9
REMARK    5  A    between atoms: C_9  and  C_10
REMARK    6  A    between atoms: N_13  and  C_14
REMARK                            x       y       z     vdW  Elec       q    Type
REMARK                         _______ _______ _______ _____ _____    ______ ____
ROOT
ATOM      1  C   UNL     1       2.178   7.453  19.357  0.00  0.00    +0.000 C 
ATOM      2  O   UNL     1       2.257   8.354  18.536  0.00  0.00    +0.000 OA
ATOM      3  N   UNL     1       1.752   7.617  20.659  0.00  0.00    +0.000 N 
ATOM      4  H   UNL     1       1.594   6.773  21.203  0.00  0.00    +0.000 HD
ENDROOT
BRANCH   1   7
ATOM      5  N   UNL     1       2.139   3.753  19.298  0.00  0.00    +0.000 N 
ATOM      6  N   UNL     1       1.905   5.071  19.635  0.00  0.00    +0.000 NA
ATOM      7  C   UNL     1       2.535   6.006  18.980  0.00  0.00    +0.000 A 
ATOM      8  C   UNL     1       3.535   5.730  17.922  0.00  0.00    +0.000 A 
ATOM      9  C   UNL     1       4.271   6.724  17.263  0.00  0.00    +0.000 A 
ATOM     10  C   UNL     1       5.173   6.380  16.251  0.00  0.00    +0.000 A 
ATOM     11  C   UNL     1       5.355   5.046  15.894  0.00  0.00    +0.000 A 
ATOM     12  C   UNL     1       4.648   4.051  16.563  0.00  0.00    +0.000 A 
ATOM     13  C   UNL     1       3.743   4.398  17.579  0.00  0.00    +0.000 A 
ATOM     14  C   UNL     1       3.021   3.337  18.302  0.00  0.00    +0.000 A 
ATOM     15  O   UNL     1       3.232   2.161  18.015  0.00  0.00    +0.000 OA
BRANCH   5  17
ATOM     16  C   UNL     1       1.744   2.772  21.528  0.00  0.00    +0.000 C 
ATOM     17  C   UNL     1       1.399   2.745  20.049  0.00  0.00    +0.000 C 
ENDBRANCH   5  17
ENDBRANCH   1   7
BRANCH   3  18
ATOM     18  C   UNL     1       1.391   8.917  21.200  0.00  0.00    +0.000 C 
BRANCH  18  19
ATOM     19  C   UNL     1      -0.111   9.219  21.119  0.00  0.00    +0.000 C 
ATOM     20  C   UNL     1      -0.507   9.812  19.764  0.00  0.00    +0.000 C 
ATOM     21  C   UNL     1      -0.393  11.319  19.955  0.00  0.00    +0.000 C 
ATOM     22  N   UNL     1      -0.783  11.507  21.346  0.00  0.00    +0.000 N 
ATOM     23  C   UNL     1      -0.567  10.285  22.128  0.00  0.00    +0.000 C 
BRANCH  22  24
ATOM     24  C   UNL     1      -1.353  12.652  21.856  0.00  0.00    +0.000 A 
ATOM     25  C   UNL     1      -2.204  13.472  21.092  0.00  0.00    +0.000 A 
ATOM     26  C   UNL     1      -2.801  14.625  21.621  0.00  0.00    +0.000 A 
ATOM     27  C   UNL     1      -2.548  14.986  22.933  0.00  0.00    +0.000 A 
ATOM     28  F   UNL     1      -3.114  16.088  23.441  0.00  0.00    +0.000 F 
ATOM     29  C   UNL     1      -1.710  14.216  23.720  0.00  0.00    +0.000 A 
ATOM     30  C   UNL     1      -1.124  13.064  23.183  0.00  0.00    +0.000 A 
ENDBRANCH  22  24
ENDBRANCH  18  19
ENDBRANCH   3  18
TORSDOF 5
ENDMDL
MODEL 9
REMARK VINA RESULT:      -8.3      3.565      4.819
REMARK  Name = 
REMARK  6 active torsions:
REMARK  status: ('A' for Active; 'I' for Inactive)
REMARK    1  A    between atoms: C_1  and  C_2
REMARK    2  A    between atoms: C_2  and  N_3
REMARK    3  A    between atoms: C_5  and  C_6
REMARK    4  A    between atoms: N_8  and  C_9
REMARK    5  A    between atoms: C_9  and  C_10
REMARK    6  A    between atoms: N_13  and  C_14
REMARK                            x       y       z     vdW  Elec       q    Type
REMARK                         _______ _______ _______ _____ _____    ______ ____
ROOT
ATOM      1  C   UNL     1       2.347   7.668  18.621  0.00  0.00    +0.000 C 
ATOM      2  O   UNL     1       2.022   7.637  19.797  0.00  0.00    +0.000 OA
ATOM      3  N   UNL     1       1.880   8.590  17.706  0.00  0.00    +0.000 N 
ATOM      4  H   UNL     1       2.330   8.604  16.794  0.00  0.00    +0.000 HD
ENDROOT
BRANCH   1   7
ATOM      5  N   UNL     1       5.497   6.281  17.261  0.00  0.00    +0.000 N 
ATOM      6  N   UNL     1       4.525   7.147  17.719  0.00  0.00    +0.000 NA
ATOM      7  C   UNL     1       3.361   6.662  18.053  0.00  0.00    +0.000 A 
ATOM      8  C   UNL     1       3.003   5.232  17.915  0.00  0.00    +0.000 A 
ATOM      9  C   UNL     1       1.733   4.712  18.201  0.00  0.00    +0.000 A 
ATOM     10  C   UNL     1       1.487   3.341  18.077  0.00  0.00    +0.000 A 
ATOM     11  C   UNL     1       2.499   2.479  17.659  0.00  0.00    +0.000 A 
ATOM     12  C   UNL     1       3.755   2.992  17.348  0.00  0.00    +0.000 A 
ATOM     13  C   UNL     1       4.001   4.369  17.473  0.00  0.00    +0.000 A 
ATOM     14  C   UNL     1       5.324   4.906  17.113  0.00  0.00    +0.000 A 
ATOM     15  O   UNL     1       6.191   4.143  16.694  0.00  0.00    +0.000 OA
BRANCH   5  17
ATOM     16  C   UNL     1       7.715   6.944  18.118  0.00  0.00    +0.000 C 
ATOM     17  C   UNL     1       6.787   6.869  16.917  0.00  0.00    +0.000 C 
ENDBRANCH   5  17
ENDBRANCH   1   7
BRANCH   3  18
ATOM     18  C   UNL     1       0.901   9.606  18.057  0.00  0.00    +0.000 C 
BRANCH  18  19
ATOM     19  C   UNL     1       1.380  10.565  19.154  0.00  0.00    +0.000 C 
ATOM     20  C   UNL     1       0.254  10.939  20.121  0.00  0.00    +0.000 C 
ATOM     21  C   UNL     1      -0.359  12.202  19.529  0.00  0.00    +0.000 C 
ATOM     22  N   UNL     1       0.784  12.874  18.927  0.00  0.00    +0.000 N 
ATOM     23  C   UNL     1       1.851  11.921  18.605  0.00  0.00    +0.000 C 
BRANCH  22  24
ATOM     24  C   UNL     1       0.893  14.235  18.746  0.00  0.00    +0.000 A 
ATOM     25  C   UNL     1      -0.229  15.085  18.748  0.00  0.00    +0.000 A 
ATOM     26  C   UNL     1      -0.113  16.473  18.587  0.00  0.00    +0.000 A 
ATOM     27  C   UNL     1       1.137  17.039  18.411  0.00  0.00    +0.000 A 
ATOM     28  F   UNL     1       1.251  18.364  18.254  0.00  0.00    +0.000 F 
ATOM     29  C   UNL     1       2.269  16.243  18.392  0.00  0.00    +0.000 A 
ATOM     30  C   UNL     1       2.141  14.859  18.560  0.00  0.00    +0.000 A 
ENDBRANCH  22  24
ENDBRANCH  18  19
ENDBRANCH   3  18
TORSDOF 5
ENDMDL
