MODEL 1
REMARK VINA RESULT:      -8.9      0.000      0.000
REMARK  Name = 
REMARK  3 active torsions:
REMARK  status: ('A' for Active; 'I' for Inactive)
REMARK    1  A    between atoms: C_5  and  C_7
REMARK    2  A    between atoms: C_7  and  N_8
REMARK    3  A    between atoms: C_10  and  C_11
REMARK                            x       y       z     vdW  Elec       q    Type
REMARK                         _______ _______ _______ _____ _____    ______ ____
ROOT
ATOM      1  O   UNL     1       8.095   6.750  18.851  0.00  0.00    +0.000 OA
ATOM      2  C   UNL     1       7.512   6.002  18.069  0.00  0.00    +0.000 C 
ATOM      3  C   UNL     1       6.947   4.654  18.495  0.00  0.00    +0.000 C 
ATOM      4  N   UNL     1       5.848   4.174  17.638  0.00  0.00    +0.000 N 
ATOM      5  C   UNL     1       4.613   3.681  18.097  0.00  0.00    +0.000 C 
ATOM      6  O   UNL     1       3.719   3.299  17.340  0.00  0.00    +0.000 OA
ATOM      7  C   UNL     1       6.135   4.293  16.233  0.00  0.00    +0.000 A 
ATOM      8  C   UNL     1       5.621   3.415  15.275  0.00  0.00    +0.000 A 
ATOM      9  C   UNL     1       5.896   3.605  13.917  0.00  0.00    +0.000 A 
ATOM     10  C   UNL     1       6.666   4.689  13.498  0.00  0.00    +0.000 A 
ATOM     11  C   UNL     1       7.191   5.573  14.437  0.00  0.00    +0.000 A 
ATOM     12  C   UNL     1       6.951   5.358  15.798  0.00  0.00    +0.000 A 
ATOM     13  N   UNL     1       7.510   6.248  16.723  0.00  0.00    +0.000 N 
ATOM     14  H   UNL     1       7.991   7.083  16.415  0.00  0.00    +0.000 HD
ENDROOT
BRANCH   5  15
ATOM     15  C   UNL     1       4.340   3.734  19.611  0.00  0.00    +0.000 C 
BRANCH  15  16
ATOM     16  N   UNL     1       3.419   4.792  19.992  0.00  0.00    +0.000 N 
ATOM     17  N   UNL     1       3.463   6.002  19.356  0.00  0.00    +0.000 NA
ATOM     18  C   UNL     1       2.392   6.596  19.794  0.00  0.00    +0.000 A 
ATOM     19  O   UNL     1       1.627   5.881  20.645  0.00  0.00    +0.000 OA
ATOM     20  C   UNL     1       2.261   4.668  20.718  0.00  0.00    +0.000 A 
ATOM     21  O   UNL     1       1.804   3.683  21.282  0.00  0.00    +0.000 OA
BRANCH  18  22
ATOM     22  C   UNL     1       1.954   7.951  19.420  0.00  0.00    +0.000 A 
ATOM     23  C   UNL     1       1.238   8.689  20.376  0.00  0.00    +0.000 A 
ATOM     24  C   UNL     1       0.712   9.941  20.056  0.00  0.00    +0.000 A 
ATOM     25  C   UNL     1       0.911  10.456  18.783  0.00  0.00    +0.000 A 
ATOM     26  F   UNL     1       0.375  11.640  18.463  0.00  0.00    +0.000 F 
ATOM     27  C   UNL     1       1.641   9.750  17.829  0.00  0.00    +0.000 A 
ATOM     28  C   UNL     1       2.176   8.494  18.148  0.00  0.00    +0.000 A 
ENDBRANCH  18  22
ENDBRANCH  15  16
ENDBRANCH   5  15
TORSDOF 3
ENDMDL
MODEL 2
REMARK VINA RESULT:      -8.4      3.547      6.407
REMARK  Name = 
REMARK  3 active torsions:
REMARK  status: ('A' for Active; 'I' for Inactive)
REMARK    1  A    between atoms: C_5  and  C_7
REMARK    2  A    between atoms: C_7  and  N_8
REMARK    3  A    between atoms: C_10  and  C_11
REMARK                            x       y       z     vdW  Elec       q    Type
REMARK                         _______ _______ _______ _____ _____    ______ ____
ROOT
ATOM      1  O   UNL     1       2.740   8.747  17.956  0.00  0.00    +0.000 OA
ATOM      2  C   UNL     1       2.920   7.572  18.270  0.00  0.00    +0.000 C 
ATOM      3  C   UNL     1       3.606   6.574  17.347  0.00  0.00    +0.000 C 
ATOM      4  N   UNL     1       4.218   5.436  18.055  0.00  0.00    +0.000 N 
ATOM      5  C   UNL     1       5.528   4.961  17.854  0.00  0.00    +0.000 C 
ATOM      6  O   UNL     1       6.000   4.009  18.477  0.00  0.00    +0.000 OA
ATOM      7  C   UNL     1       3.349   4.849  19.039  0.00  0.00    +0.000 A 
ATOM      8  C   UNL     1       3.388   3.494  19.378  0.00  0.00    +0.000 A 
ATOM      9  C   UNL     1       2.550   2.986  20.375  0.00  0.00    +0.000 A 
ATOM     10  C   UNL     1       1.681   3.831  21.064  0.00  0.00    +0.000 A 
ATOM     11  C   UNL     1       1.623   5.184  20.739  0.00  0.00    +0.000 A 
ATOM     12  C   UNL     1       2.431   5.682  19.712  0.00  0.00    +0.000 A 
ATOM     13  N   UNL     1       2.336   7.042  19.388  0.00  0.00    +0.000 N 
ATOM     14  H   UNL     1       1.774   7.670  19.947  0.00  0.00    +0.000 HD
ENDROOT
BRANCH   5  15
ATOM     15  C   UNL     1       6.434   5.748  16.889  0.00  0.00    +0.000 C 
BRANCH  15  16
ATOM     16  N   UNL     1       7.380   6.615  17.570  0.00  0.00    +0.000 N 
ATOM     17  N   UNL     1       7.427   7.949  17.271  0.00  0.00    +0.000 NA
ATOM     18  C   UNL     1       8.208   8.424  18.196  0.00  0.00    +0.000 A 
ATOM     19  O   UNL     1       8.666   7.530  19.097  0.00  0.00    +0.000 OA
ATOM     20  C   UNL     1       8.064   6.355  18.731  0.00  0.00    +0.000 A 
ATOM     21  O   UNL     1       8.109   5.322  19.387  0.00  0.00    +0.000 OA
BRANCH  18  22
ATOM     22  C   UNL     1       8.601   9.836  18.340  0.00  0.00    +0.000 A 
ATOM     23  C   UNL     1       9.405  10.177  19.440  0.00  0.00    +0.000 A 
ATOM     24  C   UNL     1       9.736  11.510  19.688  0.00  0.00    +0.000 A 
ATOM     25  C   UNL     1       9.269  12.496  18.832  0.00  0.00    +0.000 A 
ATOM     26  F   UNL     1       9.555  13.778  19.091  0.00  0.00    +0.000 F 
ATOM     27  C   UNL     1       8.492  12.175  17.721  0.00  0.00    +0.000 A 
ATOM     28  C   UNL     1       8.162  10.837  17.464  0.00  0.00    +0.000 A 
ENDBRANCH  18  22
ENDBRANCH  15  16
ENDBRANCH   5  15
TORSDOF 3
ENDMDL
MODEL 3
REMARK VINA RESULT:      -8.3      3.207      7.209
REMARK  Name = 
REMARK  3 active torsions:
REMARK  status: ('A' for Active; 'I' for Inactive)
REMARK    1  A    between atoms: C_5  and  C_7
REMARK    2  A    between atoms: C_7  and  N_8
REMARK    3  A    between atoms: C_10  and  C_11
REMARK                            x       y       z     vdW  Elec       q    Type
REMARK                         _______ _______ _______ _____ _____    ______ ____
ROOT
ATOM      1  O   UNL     1       2.283   8.030  19.727  0.00  0.00    +0.000 OA
ATOM      2  C   UNL     1       2.463   6.819  19.618  0.00  0.00    +0.000 C 
ATOM      3  C   UNL     1       3.579   6.232  18.766  0.00  0.00    +0.000 C 
ATOM      4  N   UNL     1       3.989   4.877  19.177  0.00  0.00    +0.000 N 
ATOM      5  C   UNL     1       5.316   4.454  19.378  0.00  0.00    +0.000 C 
ATOM      6  O   UNL     1       5.610   3.311  19.732  0.00  0.00    +0.000 OA
ATOM      7  C   UNL     1       2.876   3.996  19.407  0.00  0.00    +0.000 A 
ATOM      8  C   UNL     1       2.941   2.616  19.193  0.00  0.00    +0.000 A 
ATOM      9  C   UNL     1       1.841   1.800  19.475  0.00  0.00    +0.000 A 
ATOM     10  C   UNL     1       0.673   2.349  20.001  0.00  0.00    +0.000 A 
ATOM     11  C   UNL     1       0.586   3.722  20.218  0.00  0.00    +0.000 A 
ATOM     12  C   UNL     1       1.670   4.542  19.894  0.00  0.00    +0.000 A 
ATOM     13  N   UNL     1       1.548   5.923  20.100  0.00  0.00    +0.000 N 
ATOM     14  H   UNL     1       0.737   6.308  20.564  0.00  0.00    +0.000 HD
ENDROOT
BRANCH   5  15
ATOM     15  C   UNL     1       6.430   5.510  19.255  0.00  0.00    +0.000 C 
BRANCH  15  16
ATOM     16  N   UNL     1       6.919   5.672  17.897  0.00  0.00    +0.000 N 
ATOM     17  N   UNL     1       6.531   4.799  16.918  0.00  0.00    +0.000 NA
ATOM     18  C   UNL     1       6.976   5.366  15.835  0.00  0.00    +0.000 A 
ATOM     19  O   UNL     1       7.603   6.549  16.003  0.00  0.00    +0.000 OA
ATOM     20  C   UNL     1       7.502   6.787  17.348  0.00  0.00    +0.000 A 
ATOM     21  O   UNL     1       7.826   7.836  17.890  0.00  0.00    +0.000 OA
BRANCH  18  22
ATOM     22  C   UNL     1       6.827   4.833  14.470  0.00  0.00    +0.000 A 
ATOM     23  C   UNL     1       5.722   4.006  14.214  0.00  0.00    +0.000 A 
ATOM     24  C   UNL     1       5.571   3.393  12.969  0.00  0.00    +0.000 A 
ATOM     25  C   UNL     1       6.521   3.614  11.983  0.00  0.00    +0.000 A 
ATOM     26  F   UNL     1       6.397   2.996  10.802  0.00  0.00    +0.000 F 
ATOM     27  C   UNL     1       7.610   4.452  12.211  0.00  0.00    +0.000 A 
ATOM     28  C   UNL     1       7.763   5.076  13.457  0.00  0.00    +0.000 A 
ENDBRANCH  18  22
ENDBRANCH  15  16
ENDBRANCH   5  15
TORSDOF 3
ENDMDL
MODEL 4
REMARK VINA RESULT:      -8.3      2.023      2.773
REMARK  Name = 
REMARK  3 active torsions:
REMARK  status: ('A' for Active; 'I' for Inactive)
REMARK    1  A    between atoms: C_5  and  C_7
REMARK    2  A    between atoms: C_7  and  N_8
REMARK    3  A    between atoms: C_10  and  C_11
REMARK                            x       y       z     vdW  Elec       q    Type
REMARK                         _______ _______ _______ _____ _____    ______ ____
ROOT
ATOM      1  O   UNL     1       8.076   7.229  18.607  0.00  0.00    +0.000 OA
ATOM      2  C   UNL     1       7.353   6.475  17.959  0.00  0.00    +0.000 C 
ATOM      3  C   UNL     1       6.373   5.514  18.618  0.00  0.00    +0.000 C 
ATOM      4  N   UNL     1       5.248   5.126  17.750  0.00  0.00    +0.000 N 
ATOM      5  C   UNL     1       3.891   5.142  18.120  0.00  0.00    +0.000 C 
ATOM      6  O   UNL     1       2.982   4.816  17.355  0.00  0.00    +0.000 OA
ATOM      7  C   UNL     1       5.661   4.753  16.423  0.00  0.00    +0.000 A 
ATOM      8  C   UNL     1       4.977   3.811  15.650  0.00  0.00    +0.000 A 
ATOM      9  C   UNL     1       5.397   3.519  14.349  0.00  0.00    +0.000 A 
ATOM     10  C   UNL     1       6.489   4.184  13.795  0.00  0.00    +0.000 A 
ATOM     11  C   UNL     1       7.187   5.124  14.549  0.00  0.00    +0.000 A 
ATOM     12  C   UNL     1       6.793   5.383  15.865  0.00  0.00    +0.000 A 
ATOM     13  N   UNL     1       7.527   6.315  16.611  0.00  0.00    +0.000 N 
ATOM     14  H   UNL     1       8.260   6.862  16.180  0.00  0.00    +0.000 HD
ENDROOT
BRANCH   5  15
ATOM     15  C   UNL     1       3.535   5.700  19.510  0.00  0.00    +0.000 C 
BRANCH  15  16
ATOM     16  N   UNL     1       2.657   6.857  19.456  0.00  0.00    +0.000 N 
ATOM     17  N   UNL     1       1.946   7.232  20.563  0.00  0.00    +0.000 NA
ATOM     18  C   UNL     1       1.461   8.388  20.215  0.00  0.00    +0.000 A 
ATOM     19  O   UNL     1       1.805   8.826  18.986  0.00  0.00    +0.000 OA
ATOM     20  C   UNL     1       2.651   7.855  18.514  0.00  0.00    +0.000 A 
ATOM     21  O   UNL     1       3.297   7.946  17.479  0.00  0.00    +0.000 OA
BRANCH  18  22
ATOM     22  C   UNL     1       0.604   9.241  21.054  0.00  0.00    +0.000 A 
ATOM     23  C   UNL     1       0.359  10.551  20.610  0.00  0.00    +0.000 A 
ATOM     24  C   UNL     1      -0.367  11.442  21.402  0.00  0.00    +0.000 A 
ATOM     25  C   UNL     1      -0.852  11.019  22.630  0.00  0.00    +0.000 A 
ATOM     26  F   UNL     1      -1.516  11.885  23.407  0.00  0.00    +0.000 F 
ATOM     27  C   UNL     1      -0.642   9.716  23.076  0.00  0.00    +0.000 A 
ATOM     28  C   UNL     1       0.082   8.815  22.282  0.00  0.00    +0.000 A 
ENDBRANCH  18  22
ENDBRANCH  15  16
ENDBRANCH   5  15
TORSDOF 3
ENDMDL
MODEL 5
REMARK VINA RESULT:      -8.3      4.189      6.424
REMARK  Name = 
REMARK  3 active torsions:
REMARK  status: ('A' for Active; 'I' for Inactive)
REMARK    1  A    between atoms: C_5  and  C_7
REMARK    2  A    between atoms: C_7  and  N_8
REMARK    3  A    between atoms: C_10  and  C_11
REMARK                            x       y       z     vdW  Elec       q    Type
REMARK                         _______ _______ _______ _____ _____    ______ ____
ROOT
ATOM      1  O   UNL     1       5.864   4.714  14.334  0.00  0.00    +0.000 OA
ATOM      2  C   UNL     1       5.545   4.434  15.488  0.00  0.00    +0.000 C 
ATOM      3  C   UNL     1       6.572   4.154  16.576  0.00  0.00    +0.000 C 
ATOM      4  N   UNL     1       6.069   4.390  17.941  0.00  0.00    +0.000 N 
ATOM      5  C   UNL     1       6.732   5.130  18.937  0.00  0.00    +0.000 C 
ATOM      6  O   UNL     1       6.266   5.307  20.064  0.00  0.00    +0.000 OA
ATOM      7  C   UNL     1       4.771   3.813  18.171  0.00  0.00    +0.000 A 
ATOM      8  C   UNL     1       4.357   3.348  19.422  0.00  0.00    +0.000 A 
ATOM      9  C   UNL     1       3.067   2.837  19.599  0.00  0.00    +0.000 A 
ATOM     10  C   UNL     1       2.167   2.810  18.535  0.00  0.00    +0.000 A 
ATOM     11  C   UNL     1       2.562   3.264  17.279  0.00  0.00    +0.000 A 
ATOM     12  C   UNL     1       3.865   3.734  17.093  0.00  0.00    +0.000 A 
ATOM     13  N   UNL     1       4.244   4.163  15.815  0.00  0.00    +0.000 N 
ATOM     14  H   UNL     1       3.566   4.228  15.067  0.00  0.00    +0.000 HD
ENDROOT
BRANCH   5  15
ATOM     15  C   UNL     1       8.044   5.836  18.549  0.00  0.00    +0.000 C 
BRANCH  15  16
ATOM     16  N   UNL     1       7.886   7.266  18.343  0.00  0.00    +0.000 N 
ATOM     17  N   UNL     1       8.783   8.142  18.891  0.00  0.00    +0.000 NA
ATOM     18  C   UNL     1       8.458   9.272  18.334  0.00  0.00    +0.000 A 
ATOM     19  O   UNL     1       7.442   9.221  17.447  0.00  0.00    +0.000 OA
ATOM     20  C   UNL     1       7.114   7.892  17.397  0.00  0.00    +0.000 A 
ATOM     21  O   UNL     1       6.325   7.405  16.597  0.00  0.00    +0.000 OA
BRANCH  18  22
ATOM     22  C   UNL     1       9.118  10.565  18.579  0.00  0.00    +0.000 A 
ATOM     23  C   UNL     1      10.008  10.644  19.662  0.00  0.00    +0.000 A 
ATOM     24  C   UNL     1      10.596  11.862  20.007  0.00  0.00    +0.000 A 
ATOM     25  C   UNL     1      10.298  12.995  19.264  0.00  0.00    +0.000 A 
ATOM     26  F   UNL     1      10.831  14.171  19.618  0.00  0.00    +0.000 F 
ATOM     27  C   UNL     1       9.437  12.931  18.171  0.00  0.00    +0.000 A 
ATOM     28  C   UNL     1       8.848  11.708  17.816  0.00  0.00    +0.000 A 
ENDBRANCH  18  22
ENDBRANCH  15  16
ENDBRANCH   5  15
TORSDOF 3
ENDMDL
MODEL 6
REMARK VINA RESULT:      -8.1      3.609      6.569
REMARK  Name = 
REMARK  3 active torsions:
REMARK  status: ('A' for Active; 'I' for Inactive)
REMARK    1  A    between atoms: C_5  and  C_7
REMARK    2  A    between atoms: C_7  and  N_8
REMARK    3  A    between atoms: C_10  and  C_11
REMARK                            x       y       z     vdW  Elec       q    Type
REMARK                         _______ _______ _______ _____ _____    ______ ____
ROOT
ATOM      1  O   UNL     1       2.333   8.467  18.790  0.00  0.00    +0.000 OA
ATOM      2  C   UNL     1       2.668   7.293  18.928  0.00  0.00    +0.000 C 
ATOM      3  C   UNL     1       3.332   6.495  17.814  0.00  0.00    +0.000 C 
ATOM      4  N   UNL     1       4.139   5.361  18.297  0.00  0.00    +0.000 N 
ATOM      5  C   UNL     1       5.455   5.067  17.892  0.00  0.00    +0.000 C 
ATOM      6  O   UNL     1       6.095   4.111  18.331  0.00  0.00    +0.000 OA
ATOM      7  C   UNL     1       3.464   4.568  19.289  0.00  0.00    +0.000 A 
ATOM      8  C   UNL     1       3.682   3.197  19.445  0.00  0.00    +0.000 A 
ATOM      9  C   UNL     1       3.031   2.483  20.456  0.00  0.00    +0.000 A 
ATOM     10  C   UNL     1       2.174   3.136  21.340  0.00  0.00    +0.000 A 
ATOM     11  C   UNL     1       1.939   4.502  21.200  0.00  0.00    +0.000 A 
ATOM     12  C   UNL     1       2.557   5.205  20.162  0.00  0.00    +0.000 A 
ATOM     13  N   UNL     1       2.286   6.573  20.028  0.00  0.00    +0.000 N 
ATOM     14  H   UNL     1       1.737   7.064  20.722  0.00  0.00    +0.000 HD
ENDROOT
BRANCH   5  15
ATOM     15  C   UNL     1       6.149   6.060  16.941  0.00  0.00    +0.000 C 
BRANCH  15  16
ATOM     16  N   UNL     1       7.203   6.827  17.582  0.00  0.00    +0.000 N 
ATOM     17  N   UNL     1       7.279   8.180  17.394  0.00  0.00    +0.000 NA
ATOM     18  C   UNL     1       8.178   8.540  18.263  0.00  0.00    +0.000 A 
ATOM     19  O   UNL     1       8.688   7.553  19.027  0.00  0.00    +0.000 OA
ATOM     20  C   UNL     1       7.996   6.438  18.633  0.00  0.00    +0.000 A 
ATOM     21  O   UNL     1       8.064   5.350  19.189  0.00  0.00    +0.000 OA
BRANCH  18  22
ATOM     22  C   UNL     1       8.650   9.918  18.481  0.00  0.00    +0.000 A 
ATOM     23  C   UNL     1       8.245  10.896  17.558  0.00  0.00    +0.000 A 
ATOM     24  C   UNL     1       8.731  12.201  17.652  0.00  0.00    +0.000 A 
ATOM     25  C   UNL     1       9.614  12.526  18.671  0.00  0.00    +0.000 A 
ATOM     26  F   UNL     1      10.109  13.768  18.739  0.00  0.00    +0.000 F 
ATOM     27  C   UNL     1      10.007  11.575  19.611  0.00  0.00    +0.000 A 
ATOM     28  C   UNL     1       9.517  10.264  19.525  0.00  0.00    +0.000 A 
ENDBRANCH  18  22
ENDBRANCH  15  16
ENDBRANCH   5  15
TORSDOF 3
ENDMDL
MODEL 7
REMARK VINA RESULT:      -8.0      4.675      9.178
REMARK  Name = 
REMARK  3 active torsions:
REMARK  status: ('A' for Active; 'I' for Inactive)
REMARK    1  A    between atoms: C_5  and  C_7
REMARK    2  A    between atoms: C_7  and  N_8
REMARK    3  A    between atoms: C_10  and  C_11
REMARK                            x       y       z     vdW  Elec       q    Type
REMARK                         _______ _______ _______ _____ _____    ______ ____
ROOT
ATOM      1  O   UNL     1      -1.565  13.255  21.918  0.00  0.00    +0.000 OA
ATOM      2  C   UNL     1      -1.875  12.769  20.832  0.00  0.00    +0.000 C 
ATOM      3  C   UNL     1      -0.867  12.567  19.709  0.00  0.00    +0.000 C 
ATOM      4  N   UNL     1      -1.248  11.513  18.752  0.00  0.00    +0.000 N 
ATOM      5  C   UNL     1      -0.408  10.476  18.305  0.00  0.00    +0.000 C 
ATOM      6  O   UNL     1      -0.776   9.611  17.509  0.00  0.00    +0.000 OA
ATOM      7  C   UNL     1      -2.619  11.608  18.325  0.00  0.00    +0.000 A 
ATOM      8  C   UNL     1      -3.052  11.197  17.061  0.00  0.00    +0.000 A 
ATOM      9  C   UNL     1      -4.404  11.271  16.714  0.00  0.00    +0.000 A 
ATOM     10  C   UNL     1      -5.344  11.729  17.635  0.00  0.00    +0.000 A 
ATOM     11  C   UNL     1      -4.933  12.147  18.899  0.00  0.00    +0.000 A 
ATOM     12  C   UNL     1      -3.575  12.114  19.229  0.00  0.00    +0.000 A 
ATOM     13  N   UNL     1      -3.185  12.562  20.498  0.00  0.00    +0.000 N 
ATOM     14  H   UNL     1      -3.875  12.809  21.195  0.00  0.00    +0.000 HD
ENDROOT
BRANCH   5  15
ATOM     15  C   UNL     1       0.993  10.369  18.934  0.00  0.00    +0.000 C 
BRANCH  15  16
ATOM     16  N   UNL     1       1.471   9.001  19.039  0.00  0.00    +0.000 N 
ATOM     17  N   UNL     1       2.177   8.439  18.011  0.00  0.00    +0.000 NA
ATOM     18  C   UNL     1       2.609   7.328  18.531  0.00  0.00    +0.000 A 
ATOM     19  O   UNL     1       2.274   7.112  19.821  0.00  0.00    +0.000 OA
ATOM     20  C   UNL     1       1.589   8.244  20.178  0.00  0.00    +0.000 A 
ATOM     21  O   UNL     1       1.234   8.505  21.320  0.00  0.00    +0.000 OA
BRANCH  18  22
ATOM     22  C   UNL     1       3.435   6.325  17.839  0.00  0.00    +0.000 A 
ATOM     23  C   UNL     1       4.485   6.794  17.033  0.00  0.00    +0.000 A 
ATOM     24  C   UNL     1       5.247   5.904  16.276  0.00  0.00    +0.000 A 
ATOM     25  C   UNL     1       4.963   4.547  16.332  0.00  0.00    +0.000 A 
ATOM     26  F   UNL     1       5.669   3.697  15.577  0.00  0.00    +0.000 F 
ATOM     27  C   UNL     1       3.942   4.061  17.146  0.00  0.00    +0.000 A 
ATOM     28  C   UNL     1       3.177   4.950  17.914  0.00  0.00    +0.000 A 
ENDBRANCH  18  22
ENDBRANCH  15  16
ENDBRANCH   5  15
TORSDOF 3
ENDMDL
MODEL 8
REMARK VINA RESULT:      -8.0      0.880      1.314
REMARK  Name = 
REMARK  3 active torsions:
REMARK  status: ('A' for Active; 'I' for Inactive)
REMARK    1  A    between atoms: C_5  and  C_7
REMARK    2  A    between atoms: C_7  and  N_8
REMARK    3  A    between atoms: C_10  and  C_11
REMARK                            x       y       z     vdW  Elec       q    Type
REMARK                         _______ _______ _______ _____ _____    ______ ____
ROOT
ATOM      1  O   UNL     1       7.098   5.547  20.022  0.00  0.00    +0.000 OA
ATOM      2  C   UNL     1       6.673   5.106  18.956  0.00  0.00    +0.000 C 
ATOM      3  C   UNL     1       5.810   3.855  18.874  0.00  0.00    +0.000 C 
ATOM      4  N   UNL     1       4.963   3.797  17.670  0.00  0.00    +0.000 N 
ATOM      5  C   UNL     1       3.587   3.501  17.655  0.00  0.00    +0.000 C 
ATOM      6  O   UNL     1       2.917   3.474  16.622  0.00  0.00    +0.000 OA
ATOM      7  C   UNL     1       5.674   4.122  16.462  0.00  0.00    +0.000 A 
ATOM      8  C   UNL     1       5.348   3.577  15.217  0.00  0.00    +0.000 A 
ATOM      9  C   UNL     1       6.045   3.963  14.068  0.00  0.00    +0.000 A 
ATOM     10  C   UNL     1       7.058   4.917  14.145  0.00  0.00    +0.000 A 
ATOM     11  C   UNL     1       7.402   5.469  15.376  0.00  0.00    +0.000 A 
ATOM     12  C   UNL     1       6.733   5.051  16.531  0.00  0.00    +0.000 A 
ATOM     13  N   UNL     1       7.114   5.604  17.760  0.00  0.00    +0.000 N 
ATOM     14  H   UNL     1       7.785   6.360  17.803  0.00  0.00    +0.000 HD
ENDROOT
BRANCH   5  15
ATOM     15  C   UNL     1       2.881   3.317  19.011  0.00  0.00    +0.000 C 
BRANCH  15  16
ATOM     16  N   UNL     1       2.604   4.572  19.689  0.00  0.00    +0.000 N 
ATOM     17  N   UNL     1       2.432   5.720  18.965  0.00  0.00    +0.000 NA
ATOM     18  C   UNL     1       2.002   6.562  19.859  0.00  0.00    +0.000 A 
ATOM     19  O   UNL     1       1.849   6.071  21.106  0.00  0.00    +0.000 OA
ATOM     20  C   UNL     1       2.174   4.745  20.981  0.00  0.00    +0.000 A 
ATOM     21  O   UNL     1       2.026   3.911  21.865  0.00  0.00    +0.000 OA
BRANCH  18  22
ATOM     22  C   UNL     1       1.658   7.971  19.608  0.00  0.00    +0.000 A 
ATOM     23  C   UNL     1       1.944   8.493  18.336  0.00  0.00    +0.000 A 
ATOM     24  C   UNL     1       1.729   9.844  18.062  0.00  0.00    +0.000 A 
ATOM     25  C   UNL     1       1.223  10.668  19.056  0.00  0.00    +0.000 A 
ATOM     26  F   UNL     1       1.052  11.972  18.804  0.00  0.00    +0.000 F 
ATOM     27  C   UNL     1       0.909  10.163  20.315  0.00  0.00    +0.000 A 
ATOM     28  C   UNL     1       1.117   8.805  20.596  0.00  0.00    +0.000 A 
ENDBRANCH  18  22
ENDBRANCH  15  16
ENDBRANCH   5  15
TORSDOF 3
ENDMDL
MODEL 9
REMARK VINA RESULT:      -7.9      5.760     10.309
REMARK  Name = 
REMARK  3 active torsions:
REMARK  status: ('A' for Active; 'I' for Inactive)
REMARK    1  A    between atoms: C_5  and  C_7
REMARK    2  A    between atoms: C_7  and  N_8
REMARK    3  A    between atoms: C_10  and  C_11
REMARK                            x       y       z     vdW  Elec       q    Type
REMARK                         _______ _______ _______ _____ _____    ______ ____
ROOT
ATOM      1  O   UNL     1      -3.354  10.686  15.082  0.00  0.00    +0.000 OA
ATOM      2  C   UNL     1      -3.724  11.012  16.208  0.00  0.00    +0.000 C 
ATOM      3  C   UNL     1      -2.889  10.745  17.453  0.00  0.00    +0.000 C 
ATOM      4  N   UNL     1      -3.188  11.654  18.573  0.00  0.00    +0.000 N 
ATOM      5  C   UNL     1      -2.231  12.352  19.333  0.00  0.00    +0.000 C 
ATOM      6  O   UNL     1      -2.530  13.109  20.258  0.00  0.00    +0.000 OA
ATOM      7  C   UNL     1      -4.597  11.809  18.813  0.00  0.00    +0.000 A 
ATOM      8  C   UNL     1      -5.131  12.059  20.081  0.00  0.00    +0.000 A 
ATOM      9  C   UNL     1      -6.506  12.246  20.250  0.00  0.00    +0.000 A 
ATOM     10  C   UNL     1      -7.362  12.213  19.150  0.00  0.00    +0.000 A 
ATOM     11  C   UNL     1      -6.852  11.963  17.879  0.00  0.00    +0.000 A 
ATOM     12  C   UNL     1      -5.482  11.732  17.718  0.00  0.00    +0.000 A 
ATOM     13  N   UNL     1      -4.998  11.458  16.432  0.00  0.00    +0.000 N 
ATOM     14  H   UNL     1      -5.604  11.524  15.625  0.00  0.00    +0.000 HD
ENDROOT
BRANCH   5  15
ATOM     15  C   UNL     1      -0.756  12.240  18.905  0.00  0.00    +0.000 C 
BRANCH  15  16
ATOM     16  N   UNL     1      -0.076  11.094  19.484  0.00  0.00    +0.000 N 
ATOM     17  N   UNL     1       0.451  10.126  18.674  0.00  0.00    +0.000 NA
ATOM     18  C   UNL     1       1.144   9.402  19.504  0.00  0.00    +0.000 A 
ATOM     19  O   UNL     1       1.146   9.817  20.788  0.00  0.00    +0.000 OA
ATOM     20  C   UNL     1       0.405  10.970  20.764  0.00  0.00    +0.000 A 
ATOM     21  O   UNL     1       0.285  11.734  21.713  0.00  0.00    +0.000 OA
BRANCH  18  22
ATOM     22  C   UNL     1       1.926   8.207  19.147  0.00  0.00    +0.000 A 
ATOM     23  C   UNL     1       1.957   7.152  20.073  0.00  0.00    +0.000 A 
ATOM     24  C   UNL     1       2.754   6.030  19.840  0.00  0.00    +0.000 A 
ATOM     25  C   UNL     1       3.510   5.962  18.679  0.00  0.00    +0.000 A 
ATOM     26  F   UNL     1       4.303   4.903  18.473  0.00  0.00    +0.000 F 
ATOM     27  C   UNL     1       3.471   6.988  17.736  0.00  0.00    +0.000 A 
ATOM     28  C   UNL     1       2.668   8.115  17.962  0.00  0.00    +0.000 A 
ENDBRANCH  18  22
ENDBRANCH  15  16
ENDBRANCH   5  15
TORSDOF 3
ENDMDL
