MODEL 1
REMARK VINA RESULT:      -9.2      0.000      0.000
REMARK  Name = 
REMARK  5 active torsions:
REMARK  status: ('A' for Active; 'I' for Inactive)
REMARK    1  A    between atoms: C_2  and  C_18
REMARK    2  A    between atoms: N_3  and  C_4
REMARK    3  A    between atoms: C_4  and  C_5
REMARK    4  A    between atoms: C_7  and  C_8
REMARK    5  A    between atoms: C_8  and  C_9
REMARK                            x       y       z     vdW  Elec       q    Type
REMARK                         _______ _______ _______ _____ _____    ______ ____
ROOT
ATOM      1  O   UNL     1       7.808   7.558  16.723  0.00  0.00    +0.000 OA
ATOM      2  C   UNL     1       8.129   7.842  17.874  0.00  0.00    +0.000 C 
ATOM      3  N   UNL     1       8.103   6.919  18.890  0.00  0.00    +0.000 N 
ATOM      4  H   UNL     1       8.196   7.220  19.851  0.00  0.00    +0.000 HD
ENDROOT
BRANCH   2   5
ATOM      5  C   UNL     1       8.555   9.168  18.257  0.00  0.00    +0.000 A 
ATOM      6  C   UNL     1       8.435  10.391  17.621  0.00  0.00    +0.000 A 
ATOM      7  C   UNL     1       8.987  11.394  18.460  0.00  0.00    +0.000 A 
ATOM      8  C   UNL     1       9.121  12.791  18.347  0.00  0.00    +0.000 A 
ATOM      9  C   UNL     1       9.722  13.497  19.391  0.00  0.00    +0.000 A 
ATOM     10 BR   UNL     1       9.896  15.377  19.255  0.00  0.00    +0.000 Br
ATOM     11  C   UNL     1      10.190  12.842  20.530  0.00  0.00    +0.000 A 
ATOM     12  C   UNL     1      10.065  11.454  20.660  0.00  0.00    +0.000 A 
ATOM     13  C   UNL     1       9.454  10.759  19.608  0.00  0.00    +0.000 A 
ATOM     14  N   UNL     1       9.182   9.418  19.461  0.00  0.00    +0.000 N 
ATOM     15  H   UNL     1       9.393   8.700  20.144  0.00  0.00    +0.000 HD
ENDBRANCH   2   5
BRANCH   3  16
ATOM     16  C   UNL     1       7.685   5.557  18.643  0.00  0.00    +0.000 C 
BRANCH  16  17
ATOM     17  C   UNL     1       6.224   5.496  18.389  0.00  0.00    +0.000 A 
ATOM     18  N   UNL     1       5.210   5.879  19.137  0.00  0.00    +0.000 NA
ATOM     19  C   UNL     1       4.130   5.601  18.326  0.00  0.00    +0.000 A 
ATOM     20  N   UNL     1       4.451   5.084  17.130  0.00  0.00    +0.000 NA
ATOM     21  O   UNL     1       5.843   5.004  17.175  0.00  0.00    +0.000 OA
BRANCH  19  22
ATOM     22  C   UNL     1       2.731   5.953  18.684  0.00  0.00    +0.000 C 
BRANCH  22  23
ATOM     23  C   UNL     1       2.184   4.809  19.497  0.00  0.00    +0.000 A 
ATOM     24  C   UNL     1       2.494   4.672  20.860  0.00  0.00    +0.000 A 
ATOM     25  C   UNL     1       1.985   3.599  21.598  0.00  0.00    +0.000 A 
ATOM     26  C   UNL     1       1.161   2.654  20.987  0.00  0.00    +0.000 A 
ATOM     27  C   UNL     1       0.848   2.780  19.635  0.00  0.00    +0.000 A 
ATOM     28  C   UNL     1       1.359   3.849  18.904  0.00  0.00    +0.000 A 
ATOM     29  F   UNL     1       1.057   3.940  17.601  0.00  0.00    +0.000 F 
ENDBRANCH  22  23
ENDBRANCH  19  22
ENDBRANCH  16  17
ENDBRANCH   3  16
TORSDOF 5
ENDMDL
MODEL 2
REMARK VINA RESULT:      -9.2      0.903      1.283
REMARK  Name = 
REMARK  5 active torsions:
REMARK  status: ('A' for Active; 'I' for Inactive)
REMARK    1  A    between atoms: C_2  and  C_18
REMARK    2  A    between atoms: N_3  and  C_4
REMARK    3  A    between atoms: C_4  and  C_5
REMARK    4  A    between atoms: C_7  and  C_8
REMARK    5  A    between atoms: C_8  and  C_9
REMARK                            x       y       z     vdW  Elec       q    Type
REMARK                         _______ _______ _______ _____ _____    ______ ____
ROOT
ATOM      1  O   UNL     1       7.643   7.471  16.740  0.00  0.00    +0.000 OA
ATOM      2  C   UNL     1       8.036   7.746  17.871  0.00  0.00    +0.000 C 
ATOM      3  N   UNL     1       8.086   6.812  18.875  0.00  0.00    +0.000 N 
ATOM      4  H   UNL     1       8.240   7.102  19.832  0.00  0.00    +0.000 HD
ENDROOT
BRANCH   2   5
ATOM      5  C   UNL     1       8.472   9.072  18.241  0.00  0.00    +0.000 A 
ATOM      6  C   UNL     1       8.371  10.288  17.588  0.00  0.00    +0.000 A 
ATOM      7  C   UNL     1       8.926  11.296  18.419  0.00  0.00    +0.000 A 
ATOM      8  C   UNL     1       9.076  12.690  18.289  0.00  0.00    +0.000 A 
ATOM      9  C   UNL     1       9.675  13.403  19.330  0.00  0.00    +0.000 A 
ATOM     10 BR   UNL     1       9.870  15.279  19.171  0.00  0.00    +0.000 Br
ATOM     11  C   UNL     1      10.125  12.758  20.481  0.00  0.00    +0.000 A 
ATOM     12  C   UNL     1       9.984  11.373  20.628  0.00  0.00    +0.000 A 
ATOM     13  C   UNL     1       9.376  10.671  19.579  0.00  0.00    +0.000 A 
ATOM     14  N   UNL     1       9.091   9.331  19.447  0.00  0.00    +0.000 N 
ATOM     15  H   UNL     1       9.288   8.620  20.141  0.00  0.00    +0.000 HD
ENDBRANCH   2   5
BRANCH   3  16
ATOM     16  C   UNL     1       7.667   5.447  18.640  0.00  0.00    +0.000 C 
BRANCH  16  17
ATOM     17  C   UNL     1       6.255   5.405  18.183  0.00  0.00    +0.000 A 
ATOM     18  N   UNL     1       5.155   5.834  18.768  0.00  0.00    +0.000 NA
ATOM     19  C   UNL     1       4.194   5.548  17.822  0.00  0.00    +0.000 A 
ATOM     20  N   UNL     1       4.669   4.984  16.701  0.00  0.00    +0.000 NA
ATOM     21  O   UNL     1       6.038   4.879  16.944  0.00  0.00    +0.000 OA
BRANCH  19  22
ATOM     22  C   UNL     1       2.767   5.939  17.967  0.00  0.00    +0.000 C 
BRANCH  22  23
ATOM     23  C   UNL     1       2.073   4.810  18.682  0.00  0.00    +0.000 A 
ATOM     24  C   UNL     1       1.612   3.682  17.984  0.00  0.00    +0.000 A 
ATOM     25  C   UNL     1       0.962   2.646  18.663  0.00  0.00    +0.000 A 
ATOM     26  C   UNL     1       0.766   2.723  20.042  0.00  0.00    +0.000 A 
ATOM     27  C   UNL     1       1.219   3.839  20.744  0.00  0.00    +0.000 A 
ATOM     28  C   UNL     1       1.864   4.868  20.063  0.00  0.00    +0.000 A 
ATOM     29  F   UNL     1       2.276   5.939  20.757  0.00  0.00    +0.000 F 
ENDBRANCH  22  23
ENDBRANCH  19  22
ENDBRANCH  16  17
ENDBRANCH   3  16
TORSDOF 5
ENDMDL
MODEL 3
REMARK VINA RESULT:      -9.1      1.328      1.658
REMARK  Name = 
REMARK  5 active torsions:
REMARK  status: ('A' for Active; 'I' for Inactive)
REMARK    1  A    between atoms: C_2  and  C_18
REMARK    2  A    between atoms: N_3  and  C_4
REMARK    3  A    between atoms: C_4  and  C_5
REMARK    4  A    between atoms: C_7  and  C_8
REMARK    5  A    between atoms: C_8  and  C_9
REMARK                            x       y       z     vdW  Elec       q    Type
REMARK                         _______ _______ _______ _____ _____    ______ ____
ROOT
ATOM      1  O   UNL     1       8.478   7.150  18.989  0.00  0.00    +0.000 OA
ATOM      2  C   UNL     1       8.247   8.096  18.240  0.00  0.00    +0.000 C 
ATOM      3  N   UNL     1       7.515   7.956  17.088  0.00  0.00    +0.000 N 
ATOM      4  H   UNL     1       7.494   8.702  16.406  0.00  0.00    +0.000 HD
ENDROOT
BRANCH   2   5
ATOM      5  C   UNL     1       8.729   9.432  18.505  0.00  0.00    +0.000 A 
ATOM      6  C   UNL     1       8.654  10.599  17.765  0.00  0.00    +0.000 A 
ATOM      7  C   UNL     1       9.253  11.647  18.511  0.00  0.00    +0.000 A 
ATOM      8  C   UNL     1       9.444  13.022  18.277  0.00  0.00    +0.000 A 
ATOM      9  C   UNL     1      10.081  13.790  19.254  0.00  0.00    +0.000 A 
ATOM     10 BR   UNL     1      10.330  15.643  18.955  0.00  0.00    +0.000 Br
ATOM     11  C   UNL     1      10.530  13.218  20.443  0.00  0.00    +0.000 A 
ATOM     12  C   UNL     1      10.349  11.853  20.694  0.00  0.00    +0.000 A 
ATOM     13  C   UNL     1       9.703  11.095  19.709  0.00  0.00    +0.000 A 
ATOM     14  N   UNL     1       9.375   9.759  19.680  0.00  0.00    +0.000 N 
ATOM     15  H   UNL     1       9.561   9.095  20.421  0.00  0.00    +0.000 HD
ENDBRANCH   2   5
BRANCH   3  16
ATOM     16  C   UNL     1       6.983   6.668  16.700  0.00  0.00    +0.000 C 
BRANCH  16  17
ATOM     17  C   UNL     1       5.711   6.391  17.415  0.00  0.00    +0.000 A 
ATOM     18  N   UNL     1       4.478   6.765  17.140  0.00  0.00    +0.000 NA
ATOM     19  C   UNL     1       3.759   6.151  18.143  0.00  0.00    +0.000 A 
ATOM     20  N   UNL     1       4.500   5.422  18.992  0.00  0.00    +0.000 NA
ATOM     21  O   UNL     1       5.800   5.590  18.515  0.00  0.00    +0.000 OA
BRANCH  19  22
ATOM     22  C   UNL     1       2.275   6.184  18.219  0.00  0.00    +0.000 C 
BRANCH  22  23
ATOM     23  C   UNL     1       1.836   4.868  18.805  0.00  0.00    +0.000 A 
ATOM     24  C   UNL     1       1.688   3.726  18.001  0.00  0.00    +0.000 A 
ATOM     25  C   UNL     1       1.272   2.515  18.561  0.00  0.00    +0.000 A 
ATOM     26  C   UNL     1       0.999   2.427  19.926  0.00  0.00    +0.000 A 
ATOM     27  C   UNL     1       1.141   3.555  20.733  0.00  0.00    +0.000 A 
ATOM     28  C   UNL     1       1.555   4.760  20.171  0.00  0.00    +0.000 A 
ATOM     29  F   UNL     1       1.668   5.835  20.964  0.00  0.00    +0.000 F 
ENDBRANCH  22  23
ENDBRANCH  19  22
ENDBRANCH  16  17
ENDBRANCH   3  16
TORSDOF 5
ENDMDL
MODEL 4
REMARK VINA RESULT:      -9.0      1.101      1.224
REMARK  Name = 
REMARK  5 active torsions:
REMARK  status: ('A' for Active; 'I' for Inactive)
REMARK    1  A    between atoms: C_2  and  C_18
REMARK    2  A    between atoms: N_3  and  C_4
REMARK    3  A    between atoms: C_4  and  C_5
REMARK    4  A    between atoms: C_7  and  C_8
REMARK    5  A    between atoms: C_8  and  C_9
REMARK                            x       y       z     vdW  Elec       q    Type
REMARK                         _______ _______ _______ _____ _____    ______ ____
ROOT
ATOM      1  O   UNL     1       8.478   7.117  19.048  0.00  0.00    +0.000 OA
ATOM      2  C   UNL     1       8.221   8.022  18.258  0.00  0.00    +0.000 C 
ATOM      3  N   UNL     1       7.480   7.813  17.122  0.00  0.00    +0.000 N 
ATOM      4  H   UNL     1       7.437   8.526  16.406  0.00  0.00    +0.000 HD
ENDROOT
BRANCH   2   5
ATOM      5  C   UNL     1       8.679   9.378  18.454  0.00  0.00    +0.000 A 
ATOM      6  C   UNL     1       8.469  10.533  17.722  0.00  0.00    +0.000 A 
ATOM      7  C   UNL     1       9.114  11.611  18.383  0.00  0.00    +0.000 A 
ATOM      8  C   UNL     1       9.221  12.990  18.120  0.00  0.00    +0.000 A 
ATOM      9  C   UNL     1       9.943  13.792  19.007  0.00  0.00    +0.000 A 
ATOM     10 BR   UNL     1      10.081  15.649  18.668  0.00  0.00    +0.000 Br
ATOM     11  C   UNL     1      10.555  13.250  20.135  0.00  0.00    +0.000 A 
ATOM     12  C   UNL     1      10.459  11.881  20.414  0.00  0.00    +0.000 A 
ATOM     13  C   UNL     1       9.728  11.089  19.520  0.00  0.00    +0.000 A 
ATOM     14  N   UNL     1       9.450   9.742  19.539  0.00  0.00    +0.000 N 
ATOM     15  H   UNL     1       9.752   9.092  20.256  0.00  0.00    +0.000 HD
ENDBRANCH   2   5
BRANCH   3  16
ATOM     16  C   UNL     1       6.969   6.498  16.802  0.00  0.00    +0.000 C 
BRANCH  16  17
ATOM     17  C   UNL     1       5.696   6.243  17.521  0.00  0.00    +0.000 A 
ATOM     18  N   UNL     1       4.456   6.553  17.200  0.00  0.00    +0.000 NA
ATOM     19  C   UNL     1       3.741   6.004  18.243  0.00  0.00    +0.000 A 
ATOM     20  N   UNL     1       4.491   5.372  19.159  0.00  0.00    +0.000 NA
ATOM     21  O   UNL     1       5.792   5.540  18.685  0.00  0.00    +0.000 OA
BRANCH  19  22
ATOM     22  C   UNL     1       2.255   5.996  18.297  0.00  0.00    +0.000 C 
BRANCH  22  23
ATOM     23  C   UNL     1       1.844   4.680  18.901  0.00  0.00    +0.000 A 
ATOM     24  C   UNL     1       1.481   4.583  20.255  0.00  0.00    +0.000 A 
ATOM     25  C   UNL     1       1.110   3.351  20.802  0.00  0.00    +0.000 A 
ATOM     26  C   UNL     1       1.095   2.204  20.008  0.00  0.00    +0.000 A 
ATOM     27  C   UNL     1       1.454   2.289  18.663  0.00  0.00    +0.000 A 
ATOM     28  C   UNL     1       1.825   3.518  18.124  0.00  0.00    +0.000 A 
ATOM     29  F   UNL     1       2.182   3.572  16.833  0.00  0.00    +0.000 F 
ENDBRANCH  22  23
ENDBRANCH  19  22
ENDBRANCH  16  17
ENDBRANCH   3  16
TORSDOF 5
ENDMDL
MODEL 5
REMARK VINA RESULT:      -9.0      1.399      1.723
REMARK  Name = 
REMARK  5 active torsions:
REMARK  status: ('A' for Active; 'I' for Inactive)
REMARK    1  A    between atoms: C_2  and  C_18
REMARK    2  A    between atoms: N_3  and  C_4
REMARK    3  A    between atoms: C_4  and  C_5
REMARK    4  A    between atoms: C_7  and  C_8
REMARK    5  A    between atoms: C_8  and  C_9
REMARK                            x       y       z     vdW  Elec       q    Type
REMARK                         _______ _______ _______ _____ _____    ______ ____
ROOT
ATOM      1  O   UNL     1       7.996   6.136  18.868  0.00  0.00    +0.000 OA
ATOM      2  C   UNL     1       7.928   6.984  17.982  0.00  0.00    +0.000 C 
ATOM      3  N   UNL     1       7.504   6.682  16.712  0.00  0.00    +0.000 N 
ATOM      4  H   UNL     1       7.629   7.351  15.963  0.00  0.00    +0.000 HD
ENDROOT
BRANCH   2   5
ATOM      5  C   UNL     1       8.292   8.364  18.198  0.00  0.00    +0.000 A 
ATOM      6  C   UNL     1       8.068   9.503  17.444  0.00  0.00    +0.000 A 
ATOM      7  C   UNL     1       8.600  10.620  18.140  0.00  0.00    +0.000 A 
ATOM      8  C   UNL     1       8.646  12.001  17.873  0.00  0.00    +0.000 A 
ATOM      9  C   UNL     1       9.255  12.847  18.803  0.00  0.00    +0.000 A 
ATOM     10 BR   UNL     1       9.309  14.708  18.460  0.00  0.00    +0.000 Br
ATOM     11  C   UNL     1       9.815  12.347  19.977  0.00  0.00    +0.000 A 
ATOM     12  C   UNL     1       9.779  10.976  20.259  0.00  0.00    +0.000 A 
ATOM     13  C   UNL     1       9.161  10.139  19.322  0.00  0.00    +0.000 A 
ATOM     14  N   UNL     1       8.961   8.777  19.332  0.00  0.00    +0.000 N 
ATOM     15  H   UNL     1       9.247   8.150  20.075  0.00  0.00    +0.000 HD
ENDBRANCH   2   5
BRANCH   3  16
ATOM     16  C   UNL     1       7.120   5.333  16.359  0.00  0.00    +0.000 C 
BRANCH  16  17
ATOM     17  C   UNL     1       5.714   5.069  16.756  0.00  0.00    +0.000 A 
ATOM     18  N   UNL     1       4.832   5.849  17.346  0.00  0.00    +0.000 NA
ATOM     19  C   UNL     1       3.715   5.042  17.392  0.00  0.00    +0.000 A 
ATOM     20  N   UNL     1       3.886   3.826  16.849  0.00  0.00    +0.000 NA
ATOM     21  O   UNL     1       5.218   3.840  16.436  0.00  0.00    +0.000 OA
BRANCH  19  22
ATOM     22  C   UNL     1       2.393   5.508  17.886  0.00  0.00    +0.000 C 
BRANCH  22  23
ATOM     23  C   UNL     1       1.993   4.584  19.007  0.00  0.00    +0.000 A 
ATOM     24  C   UNL     1       1.086   3.533  18.794  0.00  0.00    +0.000 A 
ATOM     25  C   UNL     1       0.719   2.690  19.847  0.00  0.00    +0.000 A 
ATOM     26  C   UNL     1       1.252   2.884  21.122  0.00  0.00    +0.000 A 
ATOM     27  C   UNL     1       2.153   3.925  21.344  0.00  0.00    +0.000 A 
ATOM     28  C   UNL     1       2.513   4.762  20.292  0.00  0.00    +0.000 A 
ATOM     29  F   UNL     1       3.368   5.767  20.533  0.00  0.00    +0.000 F 
ENDBRANCH  22  23
ENDBRANCH  19  22
ENDBRANCH  16  17
ENDBRANCH   3  16
TORSDOF 5
ENDMDL
MODEL 6
REMARK VINA RESULT:      -8.9      0.713      1.230
REMARK  Name = 
REMARK  5 active torsions:
REMARK  status: ('A' for Active; 'I' for Inactive)
REMARK    1  A    between atoms: C_2  and  C_18
REMARK    2  A    between atoms: N_3  and  C_4
REMARK    3  A    between atoms: C_4  and  C_5
REMARK    4  A    between atoms: C_7  and  C_8
REMARK    5  A    between atoms: C_8  and  C_9
REMARK                            x       y       z     vdW  Elec       q    Type
REMARK                         _______ _______ _______ _____ _____    ______ ____
ROOT
ATOM      1  O   UNL     1       7.642   7.663  16.765  0.00  0.00    +0.000 OA
ATOM      2  C   UNL     1       8.069   7.920  17.888  0.00  0.00    +0.000 C 
ATOM      3  N   UNL     1       8.181   6.964  18.865  0.00  0.00    +0.000 N 
ATOM      4  H   UNL     1       8.362   7.235  19.823  0.00  0.00    +0.000 HD
ENDROOT
BRANCH   2   5
ATOM      5  C   UNL     1       8.483   9.249  18.275  0.00  0.00    +0.000 A 
ATOM      6  C   UNL     1       9.199   9.706  19.368  0.00  0.00    +0.000 A 
ATOM      7  C   UNL     1       9.372  11.109  19.241  0.00  0.00    +0.000 A 
ATOM      8  C   UNL     1      10.021  12.084  20.022  0.00  0.00    +0.000 A 
ATOM      9  C   UNL     1      10.008  13.412  19.590  0.00  0.00    +0.000 A 
ATOM     10 BR   UNL     1      10.888  14.729  20.627  0.00  0.00    +0.000 Br
ATOM     11  C   UNL     1       9.364  13.782  18.410  0.00  0.00    +0.000 A 
ATOM     12  C   UNL     1       8.713  12.826  17.621  0.00  0.00    +0.000 A 
ATOM     13  C   UNL     1       8.739  11.497  18.062  0.00  0.00    +0.000 A 
ATOM     14  N   UNL     1       8.212  10.357  17.499  0.00  0.00    +0.000 N 
ATOM     15  H   UNL     1       7.704  10.318  16.623  0.00  0.00    +0.000 HD
ENDBRANCH   2   5
BRANCH   3  16
ATOM     16  C   UNL     1       7.790   5.595  18.611  0.00  0.00    +0.000 C 
BRANCH  16  17
ATOM     17  C   UNL     1       6.324   5.500  18.398  0.00  0.00    +0.000 A 
ATOM     18  N   UNL     1       5.324   5.966  19.118  0.00  0.00    +0.000 NA
ATOM     19  C   UNL     1       4.229   5.592  18.369  0.00  0.00    +0.000 A 
ATOM     20  N   UNL     1       4.528   4.940  17.235  0.00  0.00    +0.000 NA
ATOM     21  O   UNL     1       5.921   4.869  17.258  0.00  0.00    +0.000 OA
BRANCH  19  22
ATOM     22  C   UNL     1       2.836   5.980  18.714  0.00  0.00    +0.000 C 
BRANCH  22  23
ATOM     23  C   UNL     1       2.240   4.834  19.489  0.00  0.00    +0.000 A 
ATOM     24  C   UNL     1       2.536   4.644  20.848  0.00  0.00    +0.000 A 
ATOM     25  C   UNL     1       1.980   3.570  21.550  0.00  0.00    +0.000 A 
ATOM     26  C   UNL     1       1.124   2.676  20.906  0.00  0.00    +0.000 A 
ATOM     27  C   UNL     1       0.825   2.855  19.556  0.00  0.00    +0.000 A 
ATOM     28  C   UNL     1       1.382   3.925  18.862  0.00  0.00    +0.000 A 
ATOM     29  F   UNL     1       1.093   4.067  17.560  0.00  0.00    +0.000 F 
ENDBRANCH  22  23
ENDBRANCH  19  22
ENDBRANCH  16  17
ENDBRANCH   3  16
TORSDOF 5
ENDMDL
MODEL 7
REMARK VINA RESULT:      -8.9      1.474      1.681
REMARK  Name = 
REMARK  5 active torsions:
REMARK  status: ('A' for Active; 'I' for Inactive)
REMARK    1  A    between atoms: C_2  and  C_18
REMARK    2  A    between atoms: N_3  and  C_4
REMARK    3  A    between atoms: C_4  and  C_5
REMARK    4  A    between atoms: C_7  and  C_8
REMARK    5  A    between atoms: C_8  and  C_9
REMARK                            x       y       z     vdW  Elec       q    Type
REMARK                         _______ _______ _______ _____ _____    ______ ____
ROOT
ATOM      1  O   UNL     1       8.176   6.480  18.990  0.00  0.00    +0.000 OA
ATOM      2  C   UNL     1       8.043   7.325  18.108  0.00  0.00    +0.000 C 
ATOM      3  N   UNL     1       7.530   7.019  16.873  0.00  0.00    +0.000 N 
ATOM      4  H   UNL     1       7.600   7.685  16.115  0.00  0.00    +0.000 HD
ENDROOT
BRANCH   2   5
ATOM      5  C   UNL     1       8.420   8.706  18.294  0.00  0.00    +0.000 A 
ATOM      6  C   UNL     1       8.223   9.826  17.505  0.00  0.00    +0.000 A 
ATOM      7  C   UNL     1       8.756  10.956  18.181  0.00  0.00    +0.000 A 
ATOM      8  C   UNL     1       8.823  12.329  17.877  0.00  0.00    +0.000 A 
ATOM      9  C   UNL     1       9.424  13.193  18.795  0.00  0.00    +0.000 A 
ATOM     10 BR   UNL     1       9.507  15.043  18.402  0.00  0.00    +0.000 Br
ATOM     11  C   UNL     1       9.957  12.718  19.992  0.00  0.00    +0.000 A 
ATOM     12  C   UNL     1       9.900  11.357  20.311  0.00  0.00    +0.000 A 
ATOM     13  C   UNL     1       9.289  10.501  19.385  0.00  0.00    +0.000 A 
ATOM     14  N   UNL     1       9.073   9.143  19.429  0.00  0.00    +0.000 N 
ATOM     15  H   UNL     1       9.338   8.533  20.193  0.00  0.00    +0.000 HD
ENDBRANCH   2   5
BRANCH   3  16
ATOM     16  C   UNL     1       7.124   5.667  16.553  0.00  0.00    +0.000 C 
BRANCH  16  17
ATOM     17  C   UNL     1       5.686   5.467  16.860  0.00  0.00    +0.000 A 
ATOM     18  N   UNL     1       4.920   4.405  16.711  0.00  0.00    +0.000 NA
ATOM     19  C   UNL     1       3.715   4.843  17.219  0.00  0.00    +0.000 A 
ATOM     20  N   UNL     1       3.730   6.106  17.673  0.00  0.00    +0.000 NA
ATOM     21  O   UNL     1       5.037   6.526  17.425  0.00  0.00    +0.000 OA
BRANCH  19  22
ATOM     22  C   UNL     1       2.527   3.963  17.371  0.00  0.00    +0.000 C 
BRANCH  22  23
ATOM     23  C   UNL     1       2.377   3.679  18.843  0.00  0.00    +0.000 A 
ATOM     24  C   UNL     1       1.393   4.322  19.611  0.00  0.00    +0.000 A 
ATOM     25  C   UNL     1       1.272   4.053  20.977  0.00  0.00    +0.000 A 
ATOM     26  C   UNL     1       2.129   3.139  21.592  0.00  0.00    +0.000 A 
ATOM     27  C   UNL     1       3.110   2.495  20.839  0.00  0.00    +0.000 A 
ATOM     28  C   UNL     1       3.227   2.769  19.479  0.00  0.00    +0.000 A 
ATOM     29  F   UNL     1       4.188   2.150  18.779  0.00  0.00    +0.000 F 
ENDBRANCH  22  23
ENDBRANCH  19  22
ENDBRANCH  16  17
ENDBRANCH   3  16
TORSDOF 5
ENDMDL
MODEL 8
REMARK VINA RESULT:      -8.9      1.258      1.430
REMARK  Name = 
REMARK  5 active torsions:
REMARK  status: ('A' for Active; 'I' for Inactive)
REMARK    1  A    between atoms: C_2  and  C_18
REMARK    2  A    between atoms: N_3  and  C_4
REMARK    3  A    between atoms: C_4  and  C_5
REMARK    4  A    between atoms: C_7  and  C_8
REMARK    5  A    between atoms: C_8  and  C_9
REMARK                            x       y       z     vdW  Elec       q    Type
REMARK                         _______ _______ _______ _____ _____    ______ ____
ROOT
ATOM      1  O   UNL     1       8.250   6.548  18.850  0.00  0.00    +0.000 OA
ATOM      2  C   UNL     1       7.881   7.481  18.139  0.00  0.00    +0.000 C 
ATOM      3  N   UNL     1       6.974   7.313  17.124  0.00  0.00    +0.000 N 
ATOM      4  H   UNL     1       6.828   8.051  16.447  0.00  0.00    +0.000 HD
ENDROOT
BRANCH   2   5
ATOM      5  C   UNL     1       8.375   8.827  18.309  0.00  0.00    +0.000 A 
ATOM      6  C   UNL     1       8.245   9.959  17.523  0.00  0.00    +0.000 A 
ATOM      7  C   UNL     1       8.889  11.042  18.178  0.00  0.00    +0.000 A 
ATOM      8  C   UNL     1       9.058  12.405  17.868  0.00  0.00    +0.000 A 
ATOM      9  C   UNL     1       9.757  13.217  18.763  0.00  0.00    +0.000 A 
ATOM     10 BR   UNL     1       9.978  15.054  18.362  0.00  0.00    +0.000 Br
ATOM     11  C   UNL     1      10.289  12.701  19.943  0.00  0.00    +0.000 A 
ATOM     12  C   UNL     1      10.132  11.349  20.268  0.00  0.00    +0.000 A 
ATOM     13  C   UNL     1       9.423  10.545  19.365  0.00  0.00    +0.000 A 
ATOM     14  N   UNL     1       9.099   9.209  19.420  0.00  0.00    +0.000 N 
ATOM     15  H   UNL     1       9.338   8.580  20.177  0.00  0.00    +0.000 HD
ENDBRANCH   2   5
BRANCH   3  16
ATOM     16  C   UNL     1       6.410   6.011  16.841  0.00  0.00    +0.000 C 
BRANCH  16  17
ATOM     17  C   UNL     1       4.960   5.990  17.158  0.00  0.00    +0.000 A 
ATOM     18  N   UNL     1       4.091   5.000  17.116  0.00  0.00    +0.000 NA
ATOM     19  C   UNL     1       2.939   5.608  17.568  0.00  0.00    +0.000 A 
ATOM     20  N   UNL     1       3.082   6.904  17.887  0.00  0.00    +0.000 NA
ATOM     21  O   UNL     1       4.423   7.161  17.605  0.00  0.00    +0.000 OA
BRANCH  19  22
ATOM     22  C   UNL     1       1.669   4.872  17.803  0.00  0.00    +0.000 C 
BRANCH  22  23
ATOM     23  C   UNL     1       1.765   4.257  19.175  0.00  0.00    +0.000 A 
ATOM     24  C   UNL     1       2.298   4.975  20.258  0.00  0.00    +0.000 A 
ATOM     25  C   UNL     1       2.388   4.386  21.523  0.00  0.00    +0.000 A 
ATOM     26  C   UNL     1       1.948   3.077  21.722  0.00  0.00    +0.000 A 
ATOM     27  C   UNL     1       1.419   2.355  20.653  0.00  0.00    +0.000 A 
ATOM     28  C   UNL     1       1.333   2.946  19.395  0.00  0.00    +0.000 A 
ATOM     29  F   UNL     1       0.836   2.226  18.379  0.00  0.00    +0.000 F 
ENDBRANCH  22  23
ENDBRANCH  19  22
ENDBRANCH  16  17
ENDBRANCH   3  16
TORSDOF 5
ENDMDL
MODEL 9
REMARK VINA RESULT:      -8.8      1.452      1.733
REMARK  Name = 
REMARK  5 active torsions:
REMARK  status: ('A' for Active; 'I' for Inactive)
REMARK    1  A    between atoms: C_2  and  C_18
REMARK    2  A    between atoms: N_3  and  C_4
REMARK    3  A    between atoms: C_4  and  C_5
REMARK    4  A    between atoms: C_7  and  C_8
REMARK    5  A    between atoms: C_8  and  C_9
REMARK                            x       y       z     vdW  Elec       q    Type
REMARK                         _______ _______ _______ _____ _____    ______ ____
ROOT
ATOM      1  O   UNL     1       8.227   6.789  18.922  0.00  0.00    +0.000 OA
ATOM      2  C   UNL     1       7.954   7.704  18.148  0.00  0.00    +0.000 C 
ATOM      3  N   UNL     1       7.145   7.521  17.055  0.00  0.00    +0.000 N 
ATOM      4  H   UNL     1       7.085   8.237  16.342  0.00  0.00    +0.000 HD
ENDROOT
BRANCH   2   5
ATOM      5  C   UNL     1       8.466   9.043  18.319  0.00  0.00    +0.000 A 
ATOM      6  C   UNL     1       8.338  10.182  17.543  0.00  0.00    +0.000 A 
ATOM      7  C   UNL     1       9.005  11.252  18.196  0.00  0.00    +0.000 A 
ATOM      8  C   UNL     1       9.185  12.615  17.893  0.00  0.00    +0.000 A 
ATOM      9  C   UNL     1       9.907  13.413  18.783  0.00  0.00    +0.000 A 
ATOM     10 BR   UNL     1      10.144  15.250  18.391  0.00  0.00    +0.000 Br
ATOM     11  C   UNL     1      10.450  12.882  19.952  0.00  0.00    +0.000 A 
ATOM     12  C   UNL     1      10.281  11.529  20.269  0.00  0.00    +0.000 A 
ATOM     13  C   UNL     1       9.550  10.741  19.372  0.00  0.00    +0.000 A 
ATOM     14  N   UNL     1       9.211   9.408  19.422  0.00  0.00    +0.000 N 
ATOM     15  H   UNL     1       9.454   8.771  20.171  0.00  0.00    +0.000 HD
ENDBRANCH   2   5
BRANCH   3  16
ATOM     16  C   UNL     1       6.576   6.224  16.762  0.00  0.00    +0.000 C 
BRANCH  16  17
ATOM     17  C   UNL     1       5.136   6.192  17.124  0.00  0.00    +0.000 A 
ATOM     18  N   UNL     1       4.272   5.197  17.104  0.00  0.00    +0.000 NA
ATOM     19  C   UNL     1       3.131   5.795  17.594  0.00  0.00    +0.000 A 
ATOM     20  N   UNL     1       3.276   7.090  17.915  0.00  0.00    +0.000 NA
ATOM     21  O   UNL     1       4.606   7.357  17.593  0.00  0.00    +0.000 OA
BRANCH  19  22
ATOM     22  C   UNL     1       1.873   5.050  17.865  0.00  0.00    +0.000 C 
BRANCH  22  23
ATOM     23  C   UNL     1       2.112   4.220  19.098  0.00  0.00    +0.000 A 
ATOM     24  C   UNL     1       2.493   2.871  19.004  0.00  0.00    +0.000 A 
ATOM     25  C   UNL     1       2.702   2.112  20.159  0.00  0.00    +0.000 A 
ATOM     26  C   UNL     1       2.536   2.688  21.419  0.00  0.00    +0.000 A 
ATOM     27  C   UNL     1       2.157   4.026  21.524  0.00  0.00    +0.000 A 
ATOM     28  C   UNL     1       1.948   4.776  20.370  0.00  0.00    +0.000 A 
ATOM     29  F   UNL     1       1.568   6.056  20.496  0.00  0.00    +0.000 F 
ENDBRANCH  22  23
ENDBRANCH  19  22
ENDBRANCH  16  17
ENDBRANCH   3  16
TORSDOF 5
ENDMDL
