MODEL 1
REMARK VINA RESULT:      -9.0      0.000      0.000
REMARK  Name = 
REMARK  4 active torsions:
REMARK  status: ('A' for Active; 'I' for Inactive)
REMARK    1  A    between atoms: C_1  and  C_2
REMARK    2  A    between atoms: C_4  and  C_5
REMARK    3  A    between atoms: C_11  and  C_12
REMARK    4  A    between atoms: C_12  and  C_13
REMARK                            x       y       z     vdW  Elec       q    Type
REMARK                         _______ _______ _______ _____ _____    ______ ____
ROOT
ATOM      1  C   UNL     1       1.945   7.525  19.969  0.00  0.00    +0.000 C 
ATOM      2  O   UNL     1       1.878   8.246  18.979  0.00  0.00    +0.000 OA
ATOM      3  N   UNL     1       1.517   7.848  21.239  0.00  0.00    +0.000 N 
ATOM      4  C   UNL     1       0.939   9.046  21.607  0.00  0.00    +0.000 A 
ATOM      5  N   UNL     1       0.707   9.373  22.859  0.00  0.00    +0.000 NA
ATOM      6  N   UNL     1       0.166  10.643  22.977  0.00  0.00    +0.000 NA
ATOM      7  C   UNL     1      -0.031  11.209  21.800  0.00  0.00    +0.000 A 
ATOM      8  S   UNL     1       0.439  10.224  20.479  0.00  0.00    +0.000 S 
ATOM      9  H   UNL     1       1.712   7.237  22.022  0.00  0.00    +0.000 HD
ENDROOT
BRANCH   1  13
ATOM     10  C   UNL     1       2.290   2.723  21.343  0.00  0.00    +0.000 C 
ATOM     11  C   UNL     1       2.658   3.876  20.459  0.00  0.00    +0.000 A 
ATOM     12  C   UNL     1       2.177   5.154  20.685  0.00  0.00    +0.000 A 
ATOM     13  C   UNL     1       2.554   6.171  19.799  0.00  0.00    +0.000 A 
ATOM     14  C   UNL     1       3.407   5.887  18.695  0.00  0.00    +0.000 A 
ATOM     15  C   UNL     1       3.873   6.827  17.733  0.00  0.00    +0.000 A 
ATOM     16  C   UNL     1       4.686   6.446  16.664  0.00  0.00    +0.000 A 
ATOM     17  C   UNL     1       5.059   5.116  16.538  0.00  0.00    +0.000 A 
ATOM     18  C   UNL     1       4.627   4.188  17.485  0.00  0.00    +0.000 A 
ATOM     19  C   UNL     1       3.820   4.548  18.559  0.00  0.00    +0.000 A 
ATOM     20  N   UNL     1       3.466   3.582  19.417  0.00  0.00    +0.000 NA
ENDBRANCH   1  13
BRANCH   7  21
ATOM     21  C   UNL     1      -0.586  12.582  21.575  0.00  0.00    +0.000 C 
BRANCH  21  22
ATOM     22  C   UNL     1      -1.618  12.993  22.602  0.00  0.00    +0.000 A 
ATOM     23  C   UNL     1      -1.353  14.048  23.490  0.00  0.00    +0.000 A 
ATOM     24  C   UNL     1      -2.300  14.433  24.439  0.00  0.00    +0.000 A 
ATOM     25  C   UNL     1      -3.527  13.779  24.506  0.00  0.00    +0.000 A 
ATOM     26  C   UNL     1      -3.810  12.737  23.623  0.00  0.00    +0.000 A 
ATOM     27  C   UNL     1      -2.861  12.346  22.674  0.00  0.00    +0.000 A 
ENDBRANCH  21  22
ENDBRANCH   7  21
TORSDOF 3
ENDMDL
MODEL 2
REMARK VINA RESULT:      -9.0      1.431      1.662
REMARK  Name = 
REMARK  4 active torsions:
REMARK  status: ('A' for Active; 'I' for Inactive)
REMARK    1  A    between atoms: C_1  and  C_2
REMARK    2  A    between atoms: C_4  and  C_5
REMARK    3  A    between atoms: C_11  and  C_12
REMARK    4  A    between atoms: C_12  and  C_13
REMARK                            x       y       z     vdW  Elec       q    Type
REMARK                         _______ _______ _______ _____ _____    ______ ____
ROOT
ATOM      1  C   UNL     1       2.166   7.130  18.795  0.00  0.00    +0.000 C 
ATOM      2  O   UNL     1       2.029   7.955  17.897  0.00  0.00    +0.000 OA
ATOM      3  N   UNL     1       1.930   7.344  20.136  0.00  0.00    +0.000 N 
ATOM      4  C   UNL     1       1.500   8.531  20.692  0.00  0.00    +0.000 A 
ATOM      5  N   UNL     1       1.457   8.738  21.990  0.00  0.00    +0.000 NA
ATOM      6  N   UNL     1       1.036  10.021  22.302  0.00  0.00    +0.000 NA
ATOM      7  C   UNL     1       0.737  10.720  21.223  0.00  0.00    +0.000 A 
ATOM      8  S   UNL     1       0.954   9.852  19.761  0.00  0.00    +0.000 S 
ATOM      9  H   UNL     1       2.175   6.641  20.823  0.00  0.00    +0.000 HD
ENDROOT
BRANCH   1  13
ATOM     10  C   UNL     1       1.517   2.166  18.774  0.00  0.00    +0.000 C 
ATOM     11  C   UNL     1       2.271   3.403  18.391  0.00  0.00    +0.000 A 
ATOM     12  C   UNL     1       1.892   4.658  18.836  0.00  0.00    +0.000 A 
ATOM     13  C   UNL     1       2.639   5.765  18.414  0.00  0.00    +0.000 A 
ATOM     14  C   UNL     1       3.756   5.594  17.547  0.00  0.00    +0.000 A 
ATOM     15  C   UNL     1       4.602   6.629  17.058  0.00  0.00    +0.000 A 
ATOM     16  C   UNL     1       5.659   6.365  16.184  0.00  0.00    +0.000 A 
ATOM     17  C   UNL     1       5.899   5.058  15.788  0.00  0.00    +0.000 A 
ATOM     18  C   UNL     1       5.090   4.032  16.276  0.00  0.00    +0.000 A 
ATOM     19  C   UNL     1       4.035   4.273  17.149  0.00  0.00    +0.000 A 
ATOM     20  N   UNL     1       3.324   3.217  17.566  0.00  0.00    +0.000 NA
ENDBRANCH   1  13
BRANCH   7  21
ATOM     21  C   UNL     1       0.267  12.143  21.208  0.00  0.00    +0.000 C 
BRANCH  21  22
ATOM     22  C   UNL     1      -1.183  12.305  21.610  0.00  0.00    +0.000 A 
ATOM     23  C   UNL     1      -1.567  12.167  22.953  0.00  0.00    +0.000 A 
ATOM     24  C   UNL     1      -2.901  12.316  23.331  0.00  0.00    +0.000 A 
ATOM     25  C   UNL     1      -3.867  12.617  22.374  0.00  0.00    +0.000 A 
ATOM     26  C   UNL     1      -3.500  12.769  21.038  0.00  0.00    +0.000 A 
ATOM     27  C   UNL     1      -2.164  12.615  20.656  0.00  0.00    +0.000 A 
ENDBRANCH  21  22
ENDBRANCH   7  21
TORSDOF 3
ENDMDL
MODEL 3
REMARK VINA RESULT:      -9.0      3.035      4.139
REMARK  Name = 
REMARK  4 active torsions:
REMARK  status: ('A' for Active; 'I' for Inactive)
REMARK    1  A    between atoms: C_1  and  C_2
REMARK    2  A    between atoms: C_4  and  C_5
REMARK    3  A    between atoms: C_11  and  C_12
REMARK    4  A    between atoms: C_12  and  C_13
REMARK                            x       y       z     vdW  Elec       q    Type
REMARK                         _______ _______ _______ _____ _____    ______ ____
ROOT
ATOM      1  C   UNL     1       2.987   7.416  18.071  0.00  0.00    +0.000 C 
ATOM      2  O   UNL     1       2.995   8.060  17.028  0.00  0.00    +0.000 OA
ATOM      3  N   UNL     1       2.257   7.713  19.203  0.00  0.00    +0.000 N 
ATOM      4  C   UNL     1       1.411   8.793  19.347  0.00  0.00    +0.000 A 
ATOM      5  N   UNL     1       0.873   9.132  20.498  0.00  0.00    +0.000 NA
ATOM      6  N   UNL     1       0.100  10.278  20.398  0.00  0.00    +0.000 NA
ATOM      7  C   UNL     1       0.051  10.736  19.161  0.00  0.00    +0.000 A 
ATOM      8  S   UNL     1       0.949   9.795  18.045  0.00  0.00    +0.000 S 
ATOM      9  H   UNL     1       2.394   7.190  20.059  0.00  0.00    +0.000 HD
ENDROOT
BRANCH   1  13
ATOM     10  C   UNL     1       7.505   5.328  18.614  0.00  0.00    +0.000 C 
ATOM     11  C   UNL     1       6.019   5.240  18.445  0.00  0.00    +0.000 A 
ATOM     12  C   UNL     1       5.234   6.367  18.272  0.00  0.00    +0.000 A 
ATOM     13  C   UNL     1       3.849   6.198  18.141  0.00  0.00    +0.000 A 
ATOM     14  C   UNL     1       3.274   4.896  18.191  0.00  0.00    +0.000 A 
ATOM     15  C   UNL     1       1.890   4.587  18.059  0.00  0.00    +0.000 A 
ATOM     16  C   UNL     1       1.416   3.278  18.152  0.00  0.00    +0.000 A 
ATOM     17  C   UNL     1       2.316   2.246  18.369  0.00  0.00    +0.000 A 
ATOM     18  C   UNL     1       3.677   2.532  18.480  0.00  0.00    +0.000 A 
ATOM     19  C   UNL     1       4.170   3.829  18.387  0.00  0.00    +0.000 A 
ATOM     20  N   UNL     1       5.495   3.996  18.499  0.00  0.00    +0.000 NA
ENDBRANCH   1  13
BRANCH   7  21
ATOM     21  C   UNL     1      -0.683  11.963  18.714  0.00  0.00    +0.000 C 
BRANCH  21  22
ATOM     22  C   UNL     1      -2.096  11.686  18.247  0.00  0.00    +0.000 A 
ATOM     23  C   UNL     1      -2.327  11.134  16.977  0.00  0.00    +0.000 A 
ATOM     24  C   UNL     1      -3.626  10.875  16.540  0.00  0.00    +0.000 A 
ATOM     25  C   UNL     1      -4.709  11.153  17.370  0.00  0.00    +0.000 A 
ATOM     26  C   UNL     1      -4.495  11.691  18.638  0.00  0.00    +0.000 A 
ATOM     27  C   UNL     1      -3.195  11.956  19.076  0.00  0.00    +0.000 A 
ENDBRANCH  21  22
ENDBRANCH   7  21
TORSDOF 3
ENDMDL
MODEL 4
REMARK VINA RESULT:      -9.0      2.762      4.104
REMARK  Name = 
REMARK  4 active torsions:
REMARK  status: ('A' for Active; 'I' for Inactive)
REMARK    1  A    between atoms: C_1  and  C_2
REMARK    2  A    between atoms: C_4  and  C_5
REMARK    3  A    between atoms: C_11  and  C_12
REMARK    4  A    between atoms: C_12  and  C_13
REMARK                            x       y       z     vdW  Elec       q    Type
REMARK                         _______ _______ _______ _____ _____    ______ ____
ROOT
ATOM      1  C   UNL     1       2.744   7.239  18.551  0.00  0.00    +0.000 C 
ATOM      2  O   UNL     1       2.740   7.756  17.440  0.00  0.00    +0.000 OA
ATOM      3  N   UNL     1       2.089   7.711  19.669  0.00  0.00    +0.000 N 
ATOM      4  C   UNL     1       1.319   8.854  19.720  0.00  0.00    +0.000 A 
ATOM      5  N   UNL     1       0.859   9.358  20.844  0.00  0.00    +0.000 NA
ATOM      6  N   UNL     1       0.153  10.533  20.642  0.00  0.00    +0.000 NA
ATOM      7  C   UNL     1       0.072  10.848  19.363  0.00  0.00    +0.000 A 
ATOM      8  S   UNL     1       0.856   9.728  18.329  0.00  0.00    +0.000 S 
ATOM      9  H   UNL     1       2.236   7.283  20.575  0.00  0.00    +0.000 HD
ENDROOT
BRANCH   1  13
ATOM     10  C   UNL     1       7.048   4.722  18.092  0.00  0.00    +0.000 C 
ATOM     11  C   UNL     1       5.618   4.829  18.529  0.00  0.00    +0.000 A 
ATOM     12  C   UNL     1       4.856   5.955  18.267  0.00  0.00    +0.000 A 
ATOM     13  C   UNL     1       3.533   5.983  18.728  0.00  0.00    +0.000 A 
ATOM     14  C   UNL     1       2.998   4.878  19.451  0.00  0.00    +0.000 A 
ATOM     15  C   UNL     1       1.673   4.775  19.961  0.00  0.00    +0.000 A 
ATOM     16  C   UNL     1       1.248   3.660  20.686  0.00  0.00    +0.000 A 
ATOM     17  C   UNL     1       2.136   2.619  20.909  0.00  0.00    +0.000 A 
ATOM     18  C   UNL     1       3.431   2.698  20.397  0.00  0.00    +0.000 A 
ATOM     19  C   UNL     1       3.873   3.797  19.670  0.00  0.00    +0.000 A 
ATOM     20  N   UNL     1       5.133   3.772  19.215  0.00  0.00    +0.000 NA
ENDBRANCH   1  13
BRANCH   7  21
ATOM     21  C   UNL     1      -0.608  12.062  18.805  0.00  0.00    +0.000 C 
BRANCH  21  22
ATOM     22  C   UNL     1      -2.029  11.805  18.352  0.00  0.00    +0.000 A 
ATOM     23  C   UNL     1      -3.107  12.086  19.206  0.00  0.00    +0.000 A 
ATOM     24  C   UNL     1      -4.419  11.854  18.795  0.00  0.00    +0.000 A 
ATOM     25  C   UNL     1      -4.672  11.347  17.523  0.00  0.00    +0.000 A 
ATOM     26  C   UNL     1      -3.613  11.073  16.660  0.00  0.00    +0.000 A 
ATOM     27  C   UNL     1      -2.297  11.301  17.070  0.00  0.00    +0.000 A 
ENDBRANCH  21  22
ENDBRANCH   7  21
TORSDOF 3
ENDMDL
MODEL 5
REMARK VINA RESULT:      -9.0      4.773     10.765
REMARK  Name = 
REMARK  4 active torsions:
REMARK  status: ('A' for Active; 'I' for Inactive)
REMARK    1  A    between atoms: C_1  and  C_2
REMARK    2  A    between atoms: C_4  and  C_5
REMARK    3  A    between atoms: C_11  and  C_12
REMARK    4  A    between atoms: C_12  and  C_13
REMARK                            x       y       z     vdW  Elec       q    Type
REMARK                         _______ _______ _______ _____ _____    ______ ____
ROOT
ATOM      1  C   UNL     1       3.907   4.570  17.310  0.00  0.00    +0.000 C 
ATOM      2  O   UNL     1       3.414   3.870  16.432  0.00  0.00    +0.000 OA
ATOM      3  N   UNL     1       5.101   5.255  17.227  0.00  0.00    +0.000 N 
ATOM      4  C   UNL     1       5.944   5.260  16.135  0.00  0.00    +0.000 A 
ATOM      5  N   UNL     1       7.150   5.783  16.166  0.00  0.00    +0.000 NA
ATOM      6  N   UNL     1       7.820   5.625  14.964  0.00  0.00    +0.000 NA
ATOM      7  C   UNL     1       7.074   5.025  14.056  0.00  0.00    +0.000 A 
ATOM      8  S   UNL     1       5.508   4.614  14.618  0.00  0.00    +0.000 S 
ATOM      9  H   UNL     1       5.488   5.720  18.039  0.00  0.00    +0.000 HD
ENDROOT
BRANCH   1  13
ATOM     10  C   UNL     1       2.425   2.616  21.675  0.00  0.00    +0.000 C 
ATOM     11  C   UNL     1       2.506   3.742  20.689  0.00  0.00    +0.000 A 
ATOM     12  C   UNL     1       3.107   3.588  19.451  0.00  0.00    +0.000 A 
ATOM     13  C   UNL     1       3.158   4.697  18.597  0.00  0.00    +0.000 A 
ATOM     14  C   UNL     1       2.610   5.947  19.003  0.00  0.00    +0.000 A 
ATOM     15  C   UNL     1       2.586   7.142  18.229  0.00  0.00    +0.000 A 
ATOM     16  C   UNL     1       2.050   8.331  18.727  0.00  0.00    +0.000 A 
ATOM     17  C   UNL     1       1.516   8.349  20.007  0.00  0.00    +0.000 A 
ATOM     18  C   UNL     1       1.514   7.181  20.768  0.00  0.00    +0.000 A 
ATOM     19  C   UNL     1       2.040   5.986  20.290  0.00  0.00    +0.000 A 
ATOM     20  N   UNL     1       1.982   4.918  21.097  0.00  0.00    +0.000 NA
ENDBRANCH   1  13
BRANCH   7  21
ATOM     21  C   UNL     1       7.500   4.688  12.659  0.00  0.00    +0.000 C 
BRANCH  21  22
ATOM     22  C   UNL     1       6.738   3.527  12.057  0.00  0.00    +0.000 A 
ATOM     23  C   UNL     1       7.422   2.388  11.606  0.00  0.00    +0.000 A 
ATOM     24  C   UNL     1       6.727   1.314  11.051  0.00  0.00    +0.000 A 
ATOM     25  C   UNL     1       5.339   1.359  10.951  0.00  0.00    +0.000 A 
ATOM     26  C   UNL     1       4.644   2.479  11.405  0.00  0.00    +0.000 A 
ATOM     27  C   UNL     1       5.339   3.558  11.957  0.00  0.00    +0.000 A 
ENDBRANCH  21  22
ENDBRANCH   7  21
TORSDOF 3
ENDMDL
MODEL 6
REMARK VINA RESULT:      -9.0      0.956      1.467
REMARK  Name = 
REMARK  4 active torsions:
REMARK  status: ('A' for Active; 'I' for Inactive)
REMARK    1  A    between atoms: C_1  and  C_2
REMARK    2  A    between atoms: C_4  and  C_5
REMARK    3  A    between atoms: C_11  and  C_12
REMARK    4  A    between atoms: C_12  and  C_13
REMARK                            x       y       z     vdW  Elec       q    Type
REMARK                         _______ _______ _______ _____ _____    ______ ____
ROOT
ATOM      1  C   UNL     1       1.901   7.602  19.996  0.00  0.00    +0.000 C 
ATOM      2  O   UNL     1       1.859   8.346  19.023  0.00  0.00    +0.000 OA
ATOM      3  N   UNL     1       1.442   7.896  21.263  0.00  0.00    +0.000 N 
ATOM      4  C   UNL     1       0.858   9.086  21.644  0.00  0.00    +0.000 A 
ATOM      5  N   UNL     1       0.596   9.385  22.898  0.00  0.00    +0.000 NA
ATOM      6  N   UNL     1       0.055  10.653  23.032  0.00  0.00    +0.000 NA
ATOM      7  C   UNL     1      -0.111  11.247  21.865  0.00  0.00    +0.000 A 
ATOM      8  S   UNL     1       0.388  10.292  20.533  0.00  0.00    +0.000 S 
ATOM      9  H   UNL     1       1.616   7.266  22.036  0.00  0.00    +0.000 HD
ENDROOT
BRANCH   1  13
ATOM     10  C   UNL     1       2.246   2.782  21.309  0.00  0.00    +0.000 C 
ATOM     11  C   UNL     1       2.615   3.946  20.440  0.00  0.00    +0.000 A 
ATOM     12  C   UNL     1       2.132   5.221  20.682  0.00  0.00    +0.000 A 
ATOM     13  C   UNL     1       2.510   6.250  19.810  0.00  0.00    +0.000 A 
ATOM     14  C   UNL     1       3.364   5.980  18.703  0.00  0.00    +0.000 A 
ATOM     15  C   UNL     1       3.832   6.934  17.754  0.00  0.00    +0.000 A 
ATOM     16  C   UNL     1       4.646   6.566  16.681  0.00  0.00    +0.000 A 
ATOM     17  C   UNL     1       5.020   5.239  16.539  0.00  0.00    +0.000 A 
ATOM     18  C   UNL     1       4.587   4.298  17.473  0.00  0.00    +0.000 A 
ATOM     19  C   UNL     1       3.778   4.643  18.550  0.00  0.00    +0.000 A 
ATOM     20  N   UNL     1       3.424   3.666  19.395  0.00  0.00    +0.000 NA
ENDBRANCH   1  13
BRANCH   7  21
ATOM     21  C   UNL     1      -0.658  12.626  21.658  0.00  0.00    +0.000 C 
BRANCH  21  22
ATOM     22  C   UNL     1      -2.166  12.668  21.541  0.00  0.00    +0.000 A 
ATOM     23  C   UNL     1      -2.780  12.646  20.278  0.00  0.00    +0.000 A 
ATOM     24  C   UNL     1      -4.169  12.682  20.162  0.00  0.00    +0.000 A 
ATOM     25  C   UNL     1      -4.964  12.730  21.304  0.00  0.00    +0.000 A 
ATOM     26  C   UNL     1      -4.370  12.742  22.565  0.00  0.00    +0.000 A 
ATOM     27  C   UNL     1      -2.978  12.710  22.685  0.00  0.00    +0.000 A 
ENDBRANCH  21  22
ENDBRANCH   7  21
TORSDOF 3
ENDMDL
MODEL 7
REMARK VINA RESULT:      -9.0      2.678      3.793
REMARK  Name = 
REMARK  4 active torsions:
REMARK  status: ('A' for Active; 'I' for Inactive)
REMARK    1  A    between atoms: C_1  and  C_2
REMARK    2  A    between atoms: C_4  and  C_5
REMARK    3  A    between atoms: C_11  and  C_12
REMARK    4  A    between atoms: C_12  and  C_13
REMARK                            x       y       z     vdW  Elec       q    Type
REMARK                         _______ _______ _______ _____ _____    ______ ____
ROOT
ATOM      1  C   UNL     1       2.962   7.383  18.069  0.00  0.00    +0.000 C 
ATOM      2  O   UNL     1       2.936   8.119  17.088  0.00  0.00    +0.000 OA
ATOM      3  N   UNL     1       2.305   7.597  19.262  0.00  0.00    +0.000 N 
ATOM      4  C   UNL     1       1.505   8.684  19.549  0.00  0.00    +0.000 A 
ATOM      5  N   UNL     1       1.042   8.932  20.755  0.00  0.00    +0.000 NA
ATOM      6  N   UNL     1       0.304  10.104  20.802  0.00  0.00    +0.000 NA
ATOM      7  C   UNL     1       0.203  10.674  19.615  0.00  0.00    +0.000 A 
ATOM      8  S   UNL     1       1.008   9.813  18.371  0.00  0.00    +0.000 S 
ATOM      9  H   UNL     1       2.470   6.995  20.059  0.00  0.00    +0.000 HD
ENDROOT
BRANCH   1  13
ATOM     10  C   UNL     1       7.440   5.146  17.989  0.00  0.00    +0.000 C 
ATOM     11  C   UNL     1       5.942   5.107  17.987  0.00  0.00    +0.000 A 
ATOM     12  C   UNL     1       5.181   6.263  17.959  0.00  0.00    +0.000 A 
ATOM     13  C   UNL     1       3.786   6.140  17.980  0.00  0.00    +0.000 A 
ATOM     14  C   UNL     1       3.176   4.854  18.034  0.00  0.00    +0.000 A 
ATOM     15  C   UNL     1       1.777   4.591  18.047  0.00  0.00    +0.000 A 
ATOM     16  C   UNL     1       1.273   3.292  18.131  0.00  0.00    +0.000 A 
ATOM     17  C   UNL     1       2.157   2.225  18.194  0.00  0.00    +0.000 A 
ATOM     18  C   UNL     1       3.530   2.468  18.161  0.00  0.00    +0.000 A 
ATOM     19  C   UNL     1       4.053   3.753  18.074  0.00  0.00    +0.000 A 
ATOM     20  N   UNL     1       5.386   3.877  18.041  0.00  0.00    +0.000 NA
ENDBRANCH   1  13
BRANCH   7  21
ATOM     21  C   UNL     1      -0.512  11.957  19.322  0.00  0.00    +0.000 C 
BRANCH  21  22
ATOM     22  C   UNL     1      -1.971  11.768  18.966  0.00  0.00    +0.000 A 
ATOM     23  C   UNL     1      -2.975  12.343  19.761  0.00  0.00    +0.000 A 
ATOM     24  C   UNL     1      -4.321  12.175  19.439  0.00  0.00    +0.000 A 
ATOM     25  C   UNL     1      -4.682  11.440  18.313  0.00  0.00    +0.000 A 
ATOM     26  C   UNL     1      -3.697  10.872  17.507  0.00  0.00    +0.000 A 
ATOM     27  C   UNL     1      -2.347  11.036  17.830  0.00  0.00    +0.000 A 
ENDBRANCH  21  22
ENDBRANCH   7  21
TORSDOF 3
ENDMDL
MODEL 8
REMARK VINA RESULT:      -8.9      1.231      2.853
REMARK  Name = 
REMARK  4 active torsions:
REMARK  status: ('A' for Active; 'I' for Inactive)
REMARK    1  A    between atoms: C_1  and  C_2
REMARK    2  A    between atoms: C_4  and  C_5
REMARK    3  A    between atoms: C_11  and  C_12
REMARK    4  A    between atoms: C_12  and  C_13
REMARK                            x       y       z     vdW  Elec       q    Type
REMARK                         _______ _______ _______ _____ _____    ______ ____
ROOT
ATOM      1  C   UNL     1       2.305   7.361  18.865  0.00  0.00    +0.000 C 
ATOM      2  O   UNL     1       2.207   8.215  17.991  0.00  0.00    +0.000 OA
ATOM      3  N   UNL     1       1.973   7.518  20.194  0.00  0.00    +0.000 N 
ATOM      4  C   UNL     1       1.477   8.673  20.762  0.00  0.00    +0.000 A 
ATOM      5  N   UNL     1       1.341   8.831  22.061  0.00  0.00    +0.000 NA
ATOM      6  N   UNL     1       0.867  10.090  22.389  0.00  0.00    +0.000 NA
ATOM      7  C   UNL     1       0.622  10.822  21.318  0.00  0.00    +0.000 A 
ATOM      8  S   UNL     1       0.960  10.015  19.844  0.00  0.00    +0.000 S 
ATOM      9  H   UNL     1       2.190   6.796  20.871  0.00  0.00    +0.000 HD
ENDROOT
BRANCH   1  13
ATOM     10  C   UNL     1       5.515   4.585  16.208  0.00  0.00    +0.000 C 
ATOM     11  C   UNL     1       4.415   4.735  17.215  0.00  0.00    +0.000 A 
ATOM     12  C   UNL     1       3.848   5.966  17.500  0.00  0.00    +0.000 A 
ATOM     13  C   UNL     1       2.838   6.022  18.470  0.00  0.00    +0.000 A 
ATOM     14  C   UNL     1       2.418   4.840  19.143  0.00  0.00    +0.000 A 
ATOM     15  C   UNL     1       1.398   4.759  20.134  0.00  0.00    +0.000 A 
ATOM     16  C   UNL     1       1.076   3.554  20.761  0.00  0.00    +0.000 A 
ATOM     17  C   UNL     1       1.758   2.401  20.403  0.00  0.00    +0.000 A 
ATOM     18  C   UNL     1       2.744   2.462  19.419  0.00  0.00    +0.000 A 
ATOM     19  C   UNL     1       3.078   3.651  18.780  0.00  0.00    +0.000 A 
ATOM     20  N   UNL     1       4.034   3.602  17.842  0.00  0.00    +0.000 NA
ENDBRANCH   1  13
BRANCH   7  21
ATOM     21  C   UNL     1       0.117  12.233  21.322  0.00  0.00    +0.000 C 
BRANCH  21  22
ATOM     22  C   UNL     1      -1.341  12.352  21.706  0.00  0.00    +0.000 A 
ATOM     23  C   UNL     1      -1.735  12.207  23.046  0.00  0.00    +0.000 A 
ATOM     24  C   UNL     1      -3.078  12.317  23.408  0.00  0.00    +0.000 A 
ATOM     25  C   UNL     1      -4.042  12.584  22.440  0.00  0.00    +0.000 A 
ATOM     26  C   UNL     1      -3.665  12.742  21.108  0.00  0.00    +0.000 A 
ATOM     27  C   UNL     1      -2.321  12.628  20.741  0.00  0.00    +0.000 A 
ENDBRANCH  21  22
ENDBRANCH   7  21
TORSDOF 3
ENDMDL
MODEL 9
REMARK VINA RESULT:      -8.8      1.090      2.684
REMARK  Name = 
REMARK  4 active torsions:
REMARK  status: ('A' for Active; 'I' for Inactive)
REMARK    1  A    between atoms: C_1  and  C_2
REMARK    2  A    between atoms: C_4  and  C_5
REMARK    3  A    between atoms: C_11  and  C_12
REMARK    4  A    between atoms: C_12  and  C_13
REMARK                            x       y       z     vdW  Elec       q    Type
REMARK                         _______ _______ _______ _____ _____    ______ ____
ROOT
ATOM      1  C   UNL     1       2.440   7.217  19.392  0.00  0.00    +0.000 C 
ATOM      2  O   UNL     1       2.171   7.796  18.345  0.00  0.00    +0.000 OA
ATOM      3  N   UNL     1       2.077   7.621  20.660  0.00  0.00    +0.000 N 
ATOM      4  C   UNL     1       1.349   8.753  20.959  0.00  0.00    +0.000 A 
ATOM      5  N   UNL     1       1.177   9.190  22.187  0.00  0.00    +0.000 NA
ATOM      6  N   UNL     1       0.451  10.369  22.228  0.00  0.00    +0.000 NA
ATOM      7  C   UNL     1       0.064  10.754  21.026  0.00  0.00    +0.000 A 
ATOM      8  S   UNL     1       0.569   9.700  19.773  0.00  0.00    +0.000 S 
ATOM      9  H   UNL     1       2.436   7.144  21.478  0.00  0.00    +0.000 HD
ENDROOT
BRANCH   1  13
ATOM     10  C   UNL     1       6.670   4.851  18.134  0.00  0.00    +0.000 C 
ATOM     11  C   UNL     1       5.293   4.874  18.726  0.00  0.00    +0.000 A 
ATOM     12  C   UNL     1       4.509   6.016  18.710  0.00  0.00    +0.000 A 
ATOM     13  C   UNL     1       3.242   5.959  19.302  0.00  0.00    +0.000 A 
ATOM     14  C   UNL     1       2.782   4.754  19.908  0.00  0.00    +0.000 A 
ATOM     15  C   UNL     1       1.516   4.560  20.530  0.00  0.00    +0.000 A 
ATOM     16  C   UNL     1       1.166   3.347  21.124  0.00  0.00    +0.000 A 
ATOM     17  C   UNL     1       2.070   2.296  21.101  0.00  0.00    +0.000 A 
ATOM     18  C   UNL     1       3.306   2.466  20.476  0.00  0.00    +0.000 A 
ATOM     19  C   UNL     1       3.673   3.665  19.876  0.00  0.00    +0.000 A 
ATOM     20  N   UNL     1       4.879   3.722  19.296  0.00  0.00    +0.000 NA
ENDBRANCH   1  13
BRANCH   7  21
ATOM     21  C   UNL     1      -0.722  11.991  20.718  0.00  0.00    +0.000 C 
BRANCH  21  22
ATOM     22  C   UNL     1      -1.358  12.623  21.937  0.00  0.00    +0.000 A 
ATOM     23  C   UNL     1      -0.723  13.686  22.598  0.00  0.00    +0.000 A 
ATOM     24  C   UNL     1      -1.303  14.275  23.721  0.00  0.00    +0.000 A 
ATOM     25  C   UNL     1      -2.531  13.817  24.192  0.00  0.00    +0.000 A 
ATOM     26  C   UNL     1      -3.180  12.770  23.540  0.00  0.00    +0.000 A 
ATOM     27  C   UNL     1      -2.598  12.175  22.417  0.00  0.00    +0.000 A 
ENDBRANCH  21  22
ENDBRANCH   7  21
TORSDOF 3
ENDMDL
