MODEL 1
REMARK VINA RESULT:      -5.7      0.000      0.000
REMARK  Name = 
REMARK  4 active torsions:
REMARK  status: ('A' for Active; 'I' for Inactive)
REMARK    1  A    between atoms: C_1  and  C_2
REMARK    2  A    between atoms: C_11  and  S_12
REMARK    3  A    between atoms: S_12  and  N_15
REMARK    4  A    between atoms: C_21  and  C_22
REMARK                            x       y       z     vdW  Elec       q    Type
REMARK                         _______ _______ _______ _____ _____    ______ ____
ROOT
ATOM      1  S   UNL     1      -6.724  13.251  19.306  0.00  0.00    +0.000 S 
ATOM      2  O   UNL     1      -7.865  12.684  18.600  0.00  0.00    +0.000 OA
ATOM      3  O   UNL     1      -6.267  14.574  18.958  0.00  0.00    +0.000 OA
ENDROOT
BRANCH   1  14
ATOM      4  C   UNL     1      -7.807  10.842  21.077  0.00  0.00    +0.000 C 
ATOM      5  C   UNL     1      -7.597  12.191  21.717  0.00  0.00    +0.000 A 
ATOM      6  C   UNL     1      -7.881  12.257  23.087  0.00  0.00    +0.000 A 
ATOM      7  C   UNL     1      -7.917  13.477  23.738  0.00  0.00    +0.000 A 
ATOM      8  C   UNL     1      -7.701  14.660  23.026  0.00  0.00    +0.000 A 
ATOM      9  C   UNL     1      -7.838  15.885  23.693  0.00  0.00    +0.000 A 
ATOM     10  C   UNL     1      -7.643  17.075  23.015  0.00  0.00    +0.000 A 
ATOM     11  C   UNL     1      -7.303  16.995  21.688  0.00  0.00    +0.000 A 
ATOM     12  N   UNL     1      -7.169  15.828  21.021  0.00  0.00    +0.000 NA
ATOM     13  C   UNL     1      -7.362  14.645  21.649  0.00  0.00    +0.000 A 
ATOM     14  C   UNL     1      -7.277  13.391  21.017  0.00  0.00    +0.000 A 
ENDBRANCH   1  14
BRANCH   1  15
ATOM     15  N   UNL     1      -5.500  12.118  19.175  0.00  0.00    +0.000 NA
ATOM     16  C   UNL     1      -5.531  11.199  18.010  0.00  0.00    +0.000 C 
ATOM     17  C   UNL     1      -4.534  11.695  16.971  0.00  0.00    +0.000 C 
ATOM     18  N   UNL     1      -3.207  11.803  17.532  0.00  0.00    +0.000 N 
ATOM     19  C   UNL     1      -2.966  12.129  18.850  0.00  0.00    +0.000 C 
ATOM     20  O   UNL     1      -1.790  12.296  19.179  0.00  0.00    +0.000 OA
ATOM     21  C   UNL     1      -4.167  12.145  19.856  0.00  0.00    +0.000 C 
ATOM     22  H   UNL     1      -2.399  11.869  16.924  0.00  0.00    +0.000 HD
BRANCH  21  23
ATOM     23  C   UNL     1      -3.985  13.134  21.000  0.00  0.00    +0.000 A 
ATOM     24  C   UNL     1      -3.719  14.497  20.786  0.00  0.00    +0.000 A 
ATOM     25  C   UNL     1      -3.681  15.397  21.853  0.00  0.00    +0.000 A 
ATOM     26  C   UNL     1      -3.922  14.951  23.150  0.00  0.00    +0.000 A 
ATOM     27  C   UNL     1      -4.161  13.599  23.387  0.00  0.00    +0.000 A 
ATOM     28  C   UNL     1      -4.174  12.693  22.324  0.00  0.00    +0.000 A 
ENDBRANCH  21  23
ENDBRANCH   1  15
TORSDOF 3
ENDMDL
MODEL 2
REMARK VINA RESULT:      -5.6      4.149      7.445
REMARK  Name = 
REMARK  4 active torsions:
REMARK  status: ('A' for Active; 'I' for Inactive)
REMARK    1  A    between atoms: C_1  and  C_2
REMARK    2  A    between atoms: C_11  and  S_12
REMARK    3  A    between atoms: S_12  and  N_15
REMARK    4  A    between atoms: C_21  and  C_22
REMARK                            x       y       z     vdW  Elec       q    Type
REMARK                         _______ _______ _______ _____ _____    ______ ____
ROOT
ATOM      1  S   UNL     1      -1.735  12.348  22.557  0.00  0.00    +0.000 S 
ATOM      2  O   UNL     1      -2.943  11.796  23.155  0.00  0.00    +0.000 OA
ATOM      3  O   UNL     1      -0.447  11.896  23.025  0.00  0.00    +0.000 OA
ENDROOT
BRANCH   1  14
ATOM      4  C   UNL     1      -4.147  12.941  20.571  0.00  0.00    +0.000 C 
ATOM      5  C   UNL     1      -2.892  12.298  20.036  0.00  0.00    +0.000 A 
ATOM      6  C   UNL     1      -2.892  12.035  18.661  0.00  0.00    +0.000 A 
ATOM      7  C   UNL     1      -1.886  11.274  18.092  0.00  0.00    +0.000 A 
ATOM      8  C   UNL     1      -0.877  10.731  18.893  0.00  0.00    +0.000 A 
ATOM      9  C   UNL     1       0.072   9.886  18.304  0.00  0.00    +0.000 A 
ATOM     10  C   UNL     1       1.077   9.323  19.070  0.00  0.00    +0.000 A 
ATOM     11  C   UNL     1       1.102   9.639  20.405  0.00  0.00    +0.000 A 
ATOM     12  N   UNL     1       0.196  10.446  20.998  0.00  0.00    +0.000 NA
ATOM     13  C   UNL     1      -0.805  11.007  20.282  0.00  0.00    +0.000 A 
ATOM     14  C   UNL     1      -1.806  11.828  20.832  0.00  0.00    +0.000 A 
ENDBRANCH   1  14
BRANCH   1  15
ATOM     15  N   UNL     1      -1.889  14.010  22.677  0.00  0.00    +0.000 NA
ATOM     16  C   UNL     1      -2.726  14.550  23.777  0.00  0.00    +0.000 C 
ATOM     17  C   UNL     1      -1.811  15.032  24.894  0.00  0.00    +0.000 C 
ATOM     18  N   UNL     1      -0.868  16.014  24.410  0.00  0.00    +0.000 N 
ATOM     19  C   UNL     1      -0.357  16.004  23.129  0.00  0.00    +0.000 C 
ATOM     20  O   UNL     1       0.521  16.831  22.871  0.00  0.00    +0.000 OA
ATOM     21  C   UNL     1      -0.997  15.046  22.067  0.00  0.00    +0.000 C 
ATOM     22  H   UNL     1      -0.372  16.611  25.060  0.00  0.00    +0.000 HD
BRANCH  21  23
ATOM     23  C   UNL     1      -0.013  14.584  21.000  0.00  0.00    +0.000 A 
ATOM     24  C   UNL     1       1.202  13.950  21.314  0.00  0.00    +0.000 A 
ATOM     25  C   UNL     1       2.020  13.430  20.309  0.00  0.00    +0.000 A 
ATOM     26  C   UNL     1       1.630  13.520  18.976  0.00  0.00    +0.000 A 
ATOM     27  C   UNL     1       0.443  14.167  18.640  0.00  0.00    +0.000 A 
ATOM     28  C   UNL     1      -0.365  14.711  19.642  0.00  0.00    +0.000 A 
ENDBRANCH  21  23
ENDBRANCH   1  15
TORSDOF 3
ENDMDL
MODEL 3
REMARK VINA RESULT:      -5.5      3.297      7.431
REMARK  Name = 
REMARK  4 active torsions:
REMARK  status: ('A' for Active; 'I' for Inactive)
REMARK    1  A    between atoms: C_1  and  C_2
REMARK    2  A    between atoms: C_11  and  S_12
REMARK    3  A    between atoms: S_12  and  N_15
REMARK    4  A    between atoms: C_21  and  C_22
REMARK                            x       y       z     vdW  Elec       q    Type
REMARK                         _______ _______ _______ _____ _____    ______ ____
ROOT
ATOM      1  S   UNL     1      -1.856  12.646  19.839  0.00  0.00    +0.000 S 
ATOM      2  O   UNL     1      -1.611  13.848  20.625  0.00  0.00    +0.000 OA
ATOM      3  O   UNL     1      -1.403  12.595  18.471  0.00  0.00    +0.000 OA
ENDROOT
BRANCH   1  14
ATOM      4  C   UNL     1      -1.742  12.237  22.991  0.00  0.00    +0.000 C 
ATOM      5  C   UNL     1      -1.087  11.219  22.091  0.00  0.00    +0.000 A 
ATOM      6  C   UNL     1      -0.491  10.135  22.746  0.00  0.00    +0.000 A 
ATOM      7  C   UNL     1       0.307   9.245  22.047  0.00  0.00    +0.000 A 
ATOM      8  C   UNL     1       0.551   9.441  20.685  0.00  0.00    +0.000 A 
ATOM      9  C   UNL     1       1.439   8.580  20.028  0.00  0.00    +0.000 A 
ATOM     10  C   UNL     1       1.712   8.754  18.682  0.00  0.00    +0.000 A 
ATOM     11  C   UNL     1       1.072   9.782  18.038  0.00  0.00    +0.000 A 
ATOM     12  N   UNL     1       0.217  10.629  18.650  0.00  0.00    +0.000 NA
ATOM     13  C   UNL     1      -0.067  10.496  19.966  0.00  0.00    +0.000 A 
ATOM     14  C   UNL     1      -0.918  11.357  20.682  0.00  0.00    +0.000 A 
ENDBRANCH   1  14
BRANCH   1  15
ATOM     15  N   UNL     1      -3.499  12.351  19.959  0.00  0.00    +0.000 NA
ATOM     16  C   UNL     1      -4.255  13.069  21.016  0.00  0.00    +0.000 C 
ATOM     17  C   UNL     1      -4.994  14.237  20.378  0.00  0.00    +0.000 C 
ATOM     18  N   UNL     1      -5.860  13.787  19.313  0.00  0.00    +0.000 N 
ATOM     19  C   UNL     1      -5.574  12.702  18.511  0.00  0.00    +0.000 C 
ATOM     20  O   UNL     1      -6.339  12.486  17.569  0.00  0.00    +0.000 OA
ATOM     21  C   UNL     1      -4.389  11.759  18.912  0.00  0.00    +0.000 C 
ATOM     22  H   UNL     1      -6.599  14.388  18.966  0.00  0.00    +0.000 HD
BRANCH  21  23
ATOM     23  C   UNL     1      -3.719  11.090  17.718  0.00  0.00    +0.000 A 
ATOM     24  C   UNL     1      -3.026   9.871  17.824  0.00  0.00    +0.000 A 
ATOM     25  C   UNL     1      -2.531   9.227  16.689  0.00  0.00    +0.000 A 
ATOM     26  C   UNL     1      -2.733   9.781  15.428  0.00  0.00    +0.000 A 
ATOM     27  C   UNL     1      -3.394  11.002  15.303  0.00  0.00    +0.000 A 
ATOM     28  C   UNL     1      -3.867  11.661  16.440  0.00  0.00    +0.000 A 
ENDBRANCH  21  23
ENDBRANCH   1  15
TORSDOF 3
ENDMDL
MODEL 4
REMARK VINA RESULT:      -5.4      0.574      1.091
REMARK  Name = 
REMARK  4 active torsions:
REMARK  status: ('A' for Active; 'I' for Inactive)
REMARK    1  A    between atoms: C_1  and  C_2
REMARK    2  A    between atoms: C_11  and  S_12
REMARK    3  A    between atoms: S_12  and  N_15
REMARK    4  A    between atoms: C_21  and  C_22
REMARK                            x       y       z     vdW  Elec       q    Type
REMARK                         _______ _______ _______ _____ _____    ______ ____
ROOT
ATOM      1  S   UNL     1      -6.526  12.697  18.939  0.00  0.00    +0.000 S 
ATOM      2  O   UNL     1      -7.532  11.875  18.278  0.00  0.00    +0.000 OA
ATOM      3  O   UNL     1      -6.292  14.040  18.467  0.00  0.00    +0.000 OA
ENDROOT
BRANCH   1  14
ATOM      4  C   UNL     1      -7.590  10.342  20.793  0.00  0.00    +0.000 C 
ATOM      5  C   UNL     1      -7.450  11.728  21.370  0.00  0.00    +0.000 A 
ATOM      6  C   UNL     1      -7.786  11.852  22.723  0.00  0.00    +0.000 A 
ATOM      7  C   UNL     1      -7.887  13.101  23.310  0.00  0.00    +0.000 A 
ATOM      8  C   UNL     1      -7.686  14.254  22.546  0.00  0.00    +0.000 A 
ATOM      9  C   UNL     1      -7.890  15.504  23.143  0.00  0.00    +0.000 A 
ATOM     10  C   UNL     1      -7.711  16.666  22.412  0.00  0.00    +0.000 A 
ATOM     11  C   UNL     1      -7.320  16.531  21.104  0.00  0.00    +0.000 A 
ATOM     12  N   UNL     1      -7.122  15.338  20.503  0.00  0.00    +0.000 NA
ATOM     13  C   UNL     1      -7.297  14.183  21.184  0.00  0.00    +0.000 A 
ATOM     14  C   UNL     1      -7.146  12.902  20.620  0.00  0.00    +0.000 A 
ENDBRANCH   1  14
BRANCH   1  15
ATOM     15  N   UNL     1      -5.123  11.786  18.937  0.00  0.00    +0.000 NA
ATOM     16  C   UNL     1      -4.906  10.852  17.803  0.00  0.00    +0.000 C 
ATOM     17  C   UNL     1      -3.927  11.490  16.828  0.00  0.00    +0.000 C 
ATOM     18  N   UNL     1      -2.686  11.834  17.483  0.00  0.00    +0.000 N 
ATOM     19  C   UNL     1      -2.609  12.221  18.804  0.00  0.00    +0.000 C 
ATOM     20  O   UNL     1      -1.507  12.591  19.215  0.00  0.00    +0.000 OA
ATOM     21  C   UNL     1      -3.872  12.051  19.715  0.00  0.00    +0.000 C 
ATOM     22  H   UNL     1      -1.855  12.024  16.935  0.00  0.00    +0.000 HD
BRANCH  21  23
ATOM     23  C   UNL     1      -3.950  13.079  20.837  0.00  0.00    +0.000 A 
ATOM     24  C   UNL     1      -4.108  12.716  22.186  0.00  0.00    +0.000 A 
ATOM     25  C   UNL     1      -4.051  13.676  23.198  0.00  0.00    +0.000 A 
ATOM     26  C   UNL     1      -3.819  15.011  22.881  0.00  0.00    +0.000 A 
ATOM     27  C   UNL     1      -3.686  15.397  21.549  0.00  0.00    +0.000 A 
ATOM     28  C   UNL     1      -3.768  14.442  20.532  0.00  0.00    +0.000 A 
ENDBRANCH  21  23
ENDBRANCH   1  15
TORSDOF 3
ENDMDL
MODEL 5
REMARK VINA RESULT:      -5.3      4.423      5.993
REMARK  Name = 
REMARK  4 active torsions:
REMARK  status: ('A' for Active; 'I' for Inactive)
REMARK    1  A    between atoms: C_1  and  C_2
REMARK    2  A    between atoms: C_11  and  S_12
REMARK    3  A    between atoms: S_12  and  N_15
REMARK    4  A    between atoms: C_21  and  C_22
REMARK                            x       y       z     vdW  Elec       q    Type
REMARK                         _______ _______ _______ _____ _____    ______ ____
ROOT
ATOM      1  S   UNL     1       0.616  14.851  21.011  0.00  0.00    +0.000 S 
ATOM      2  O   UNL     1       1.496  15.899  20.510  0.00  0.00    +0.000 OA
ATOM      3  O   UNL     1       0.994  14.120  22.195  0.00  0.00    +0.000 OA
ENDROOT
BRANCH   1  14
ATOM      4  C   UNL     1      -1.062  16.738  19.077  0.00  0.00    +0.000 C 
ATOM      5  C   UNL     1      -1.610  16.407  20.442  0.00  0.00    +0.000 A 
ATOM      6  C   UNL     1      -2.864  16.956  20.735  0.00  0.00    +0.000 A 
ATOM      7  C   UNL     1      -3.378  16.888  22.018  0.00  0.00    +0.000 A 
ATOM      8  C   UNL     1      -2.633  16.297  23.043  0.00  0.00    +0.000 A 
ATOM      9  C   UNL     1      -3.138  16.328  24.349  0.00  0.00    +0.000 A 
ATOM     10  C   UNL     1      -2.420  15.763  25.388  0.00  0.00    +0.000 A 
ATOM     11  C   UNL     1      -1.221  15.172  25.077  0.00  0.00    +0.000 A 
ATOM     12  N   UNL     1      -0.711  15.132  23.828  0.00  0.00    +0.000 NA
ATOM     13  C   UNL     1      -1.380  15.683  22.789  0.00  0.00    +0.000 A 
ATOM     14  C   UNL     1      -0.899  15.715  21.467  0.00  0.00    +0.000 A 
ENDBRANCH   1  14
BRANCH   1  15
ATOM     15  N   UNL     1       0.343  13.830  19.713  0.00  0.00    +0.000 NA
ATOM     16  C   UNL     1       1.349  13.813  18.622  0.00  0.00    +0.000 C 
ATOM     17  C   UNL     1       2.231  12.585  18.791  0.00  0.00    +0.000 C 
ATOM     18  N   UNL     1       1.443  11.374  18.810  0.00  0.00    +0.000 N 
ATOM     19  C   UNL     1       0.163  11.312  19.319  0.00  0.00    +0.000 C 
ATOM     20  O   UNL     1      -0.363  10.198  19.376  0.00  0.00    +0.000 OA
ATOM     21  C   UNL     1      -0.575  12.648  19.672  0.00  0.00    +0.000 C 
ATOM     22  H   UNL     1       1.884  10.474  18.658  0.00  0.00    +0.000 HD
BRANCH  21  23
ATOM     23  C   UNL     1      -1.580  12.501  20.807  0.00  0.00    +0.000 A 
ATOM     24  C   UNL     1      -1.234  11.964  22.060  0.00  0.00    +0.000 A 
ATOM     25  C   UNL     1      -2.148  11.959  23.115  0.00  0.00    +0.000 A 
ATOM     26  C   UNL     1      -3.417  12.505  22.941  0.00  0.00    +0.000 A 
ATOM     27  C   UNL     1      -3.790  13.019  21.701  0.00  0.00    +0.000 A 
ATOM     28  C   UNL     1      -2.886  13.001  20.636  0.00  0.00    +0.000 A 
ENDBRANCH  21  23
ENDBRANCH   1  15
TORSDOF 3
ENDMDL
MODEL 6
REMARK VINA RESULT:      -5.1      4.243      7.474
REMARK  Name = 
REMARK  4 active torsions:
REMARK  status: ('A' for Active; 'I' for Inactive)
REMARK    1  A    between atoms: C_1  and  C_2
REMARK    2  A    between atoms: C_11  and  S_12
REMARK    3  A    between atoms: S_12  and  N_15
REMARK    4  A    between atoms: C_21  and  C_22
REMARK                            x       y       z     vdW  Elec       q    Type
REMARK                         _______ _______ _______ _____ _____    ______ ____
ROOT
ATOM      1  S   UNL     1      -1.906  12.852  22.124  0.00  0.00    +0.000 S 
ATOM      2  O   UNL     1      -3.226  12.419  22.563  0.00  0.00    +0.000 OA
ATOM      3  O   UNL     1      -0.805  12.807  23.054  0.00  0.00    +0.000 OA
ENDROOT
BRANCH   1  14
ATOM      4  C   UNL     1      -3.427  12.541  19.348  0.00  0.00    +0.000 C 
ATOM      5  C   UNL     1      -2.152  11.770  19.580  0.00  0.00    +0.000 A 
ATOM      6  C   UNL     1      -1.723  10.981  18.507  0.00  0.00    +0.000 A 
ATOM      7  C   UNL     1      -0.683  10.082  18.667  0.00  0.00    +0.000 A 
ATOM      8  C   UNL     1      -0.072   9.930  19.915  0.00  0.00    +0.000 A 
ATOM      9  C   UNL     1       0.911   8.945  20.071  0.00  0.00    +0.000 A 
ATOM     10  C   UNL     1       1.528   8.760  21.296  0.00  0.00    +0.000 A 
ATOM     11  C   UNL     1       1.142   9.583  22.324  0.00  0.00    +0.000 A 
ATOM     12  N   UNL     1       0.194  10.536  22.202  0.00  0.00    +0.000 NA
ATOM     13  C   UNL     1      -0.437  10.739  21.022  0.00  0.00    +0.000 A 
ATOM     14  C   UNL     1      -1.459  11.685  20.824  0.00  0.00    +0.000 A 
ENDBRANCH   1  14
BRANCH   1  15
ATOM     15  N   UNL     1      -2.119  14.386  21.490  0.00  0.00    +0.000 NA
ATOM     16  C   UNL     1      -3.241  15.202  22.016  0.00  0.00    +0.000 C 
ATOM     17  C   UNL     1      -2.685  16.210  23.012  0.00  0.00    +0.000 C 
ATOM     18  N   UNL     1      -1.663  17.032  22.408  0.00  0.00    +0.000 N 
ATOM     19  C   UNL     1      -0.813  16.580  21.420  0.00  0.00    +0.000 C 
ATOM     20  O   UNL     1       0.086  17.345  21.063  0.00  0.00    +0.000 OA
ATOM     21  C   UNL     1      -1.112  15.201  20.740  0.00  0.00    +0.000 C 
ATOM     22  H   UNL     1      -1.380  17.901  22.846  0.00  0.00    +0.000 HD
BRANCH  21  23
ATOM     23  C   UNL     1       0.140  14.487  20.246  0.00  0.00    +0.000 A 
ATOM     24  C   UNL     1       1.195  14.129  21.103  0.00  0.00    +0.000 A 
ATOM     25  C   UNL     1       2.269  13.367  20.639  0.00  0.00    +0.000 A 
ATOM     26  C   UNL     1       2.299  12.938  19.315  0.00  0.00    +0.000 A 
ATOM     27  C   UNL     1       1.276  13.303  18.442  0.00  0.00    +0.000 A 
ATOM     28  C   UNL     1       0.214  14.087  18.898  0.00  0.00    +0.000 A 
ENDBRANCH  21  23
ENDBRANCH   1  15
TORSDOF 3
ENDMDL
MODEL 7
REMARK VINA RESULT:      -5.1      3.675      5.501
REMARK  Name = 
REMARK  4 active torsions:
REMARK  status: ('A' for Active; 'I' for Inactive)
REMARK    1  A    between atoms: C_1  and  C_2
REMARK    2  A    between atoms: C_11  and  S_12
REMARK    3  A    between atoms: S_12  and  N_15
REMARK    4  A    between atoms: C_21  and  C_22
REMARK                            x       y       z     vdW  Elec       q    Type
REMARK                         _______ _______ _______ _____ _____    ______ ____
ROOT
ATOM      1  S   UNL     1      -0.757  11.670  19.381  0.00  0.00    +0.000 S 
ATOM      2  O   UNL     1      -0.687  10.240  19.110  0.00  0.00    +0.000 OA
ATOM      3  O   UNL     1      -1.477  12.525  18.470  0.00  0.00    +0.000 OA
ENDROOT
BRANCH   1  14
ATOM      4  C   UNL     1       0.129  10.309  22.116  0.00  0.00    +0.000 C 
ATOM      5  C   UNL     1      -1.055  11.244  22.106  0.00  0.00    +0.000 A 
ATOM      6  C   UNL     1      -1.661  11.457  23.350  0.00  0.00    +0.000 A 
ATOM      7  C   UNL     1      -2.866  12.132  23.437  0.00  0.00    +0.000 A 
ATOM      8  C   UNL     1      -3.506  12.579  22.278  0.00  0.00    +0.000 A 
ATOM      9  C   UNL     1      -4.770  13.173  22.390  0.00  0.00    +0.000 A 
ATOM     10  C   UNL     1      -5.436  13.617  21.261  0.00  0.00    +0.000 A 
ATOM     11  C   UNL     1      -4.802  13.459  20.054  0.00  0.00    +0.000 A 
ATOM     12  N   UNL     1      -3.587  12.885  19.919  0.00  0.00    +0.000 NA
ATOM     13  C   UNL     1      -2.911  12.431  20.999  0.00  0.00    +0.000 A 
ATOM     14  C   UNL     1      -1.660  11.791  20.937  0.00  0.00    +0.000 A 
ENDBRANCH   1  14
BRANCH   1  15
ATOM     15  N   UNL     1       0.827  12.172  19.580  0.00  0.00    +0.000 NA
ATOM     16  C   UNL     1       1.891  11.391  18.901  0.00  0.00    +0.000 C 
ATOM     17  C   UNL     1       2.315  12.135  17.643  0.00  0.00    +0.000 C 
ATOM     18  N   UNL     1       2.752  13.477  17.952  0.00  0.00    +0.000 N 
ATOM     19  C   UNL     1       2.229  14.224  18.986  0.00  0.00    +0.000 C 
ATOM     20  O   UNL     1       2.609  15.393  19.079  0.00  0.00    +0.000 OA
ATOM     21  C   UNL     1       1.298  13.520  20.031  0.00  0.00    +0.000 C 
ATOM     22  H   UNL     1       3.297  14.005  17.280  0.00  0.00    +0.000 HD
BRANCH  21  23
ATOM     23  C   UNL     1       0.263  14.454  20.645  0.00  0.00    +0.000 A 
ATOM     24  C   UNL     1      -0.653  15.184  19.867  0.00  0.00    +0.000 A 
ATOM     25  C   UNL     1      -1.666  15.934  20.467  0.00  0.00    +0.000 A 
ATOM     26  C   UNL     1      -1.791  15.954  21.854  0.00  0.00    +0.000 A 
ATOM     27  C   UNL     1      -0.879  15.258  22.644  0.00  0.00    +0.000 A 
ATOM     28  C   UNL     1       0.152  14.529  22.046  0.00  0.00    +0.000 A 
ENDBRANCH  21  23
ENDBRANCH   1  15
TORSDOF 3
ENDMDL
MODEL 8
REMARK VINA RESULT:      -4.9      5.810      8.220
REMARK  Name = 
REMARK  4 active torsions:
REMARK  status: ('A' for Active; 'I' for Inactive)
REMARK    1  A    between atoms: C_1  and  C_2
REMARK    2  A    between atoms: C_11  and  S_12
REMARK    3  A    between atoms: S_12  and  N_15
REMARK    4  A    between atoms: C_21  and  C_22
REMARK                            x       y       z     vdW  Elec       q    Type
REMARK                         _______ _______ _______ _____ _____    ______ ____
ROOT
ATOM      1  S   UNL     1       0.985  13.997  19.175  0.00  0.00    +0.000 S 
ATOM      2  O   UNL     1       2.025  13.573  18.248  0.00  0.00    +0.000 OA
ATOM      3  O   UNL     1      -0.251  14.528  18.654  0.00  0.00    +0.000 OA
ENDROOT
BRANCH   1  14
ATOM      4  C   UNL     1       1.781  11.052  18.277  0.00  0.00    +0.000 C 
ATOM      5  C   UNL     1       1.068  11.255  19.590  0.00  0.00    +0.000 A 
ATOM      6  C   UNL     1       0.836  10.091  20.334  0.00  0.00    +0.000 A 
ATOM      7  C   UNL     1       0.022  10.124  21.453  0.00  0.00    +0.000 A 
ATOM      8  C   UNL     1      -0.604  11.314  21.831  0.00  0.00    +0.000 A 
ATOM      9  C   UNL     1      -1.498  11.294  22.910  0.00  0.00    +0.000 A 
ATOM     10  C   UNL     1      -2.144  12.453  23.304  0.00  0.00    +0.000 A 
ATOM     11  C   UNL     1      -1.860  13.600  22.606  0.00  0.00    +0.000 A 
ATOM     12  N   UNL     1      -1.007  13.645  21.560  0.00  0.00    +0.000 NA
ATOM     13  C   UNL     1      -0.365  12.530  21.141  0.00  0.00    +0.000 A 
ATOM     14  C   UNL     1       0.509  12.488  20.039  0.00  0.00    +0.000 A 
ENDBRANCH   1  14
BRANCH   1  15
ATOM     15  N   UNL     1       1.724  15.068  20.227  0.00  0.00    +0.000 NA
ATOM     16  C   UNL     1       2.462  14.503  21.385  0.00  0.00    +0.000 C 
ATOM     17  C   UNL     1       3.951  14.525  21.071  0.00  0.00    +0.000 C 
ATOM     18  N   UNL     1       4.399  15.862  20.753  0.00  0.00    +0.000 N 
ATOM     19  C   UNL     1       3.603  16.797  20.125  0.00  0.00    +0.000 C 
ATOM     20  O   UNL     1       4.135  17.864  19.812  0.00  0.00    +0.000 OA
ATOM     21  C   UNL     1       2.074  16.500  19.962  0.00  0.00    +0.000 C 
ATOM     22  H   UNL     1       5.386  16.089  20.773  0.00  0.00    +0.000 HD
BRANCH  21  23
ATOM     23  C   UNL     1       1.459  17.154  18.731  0.00  0.00    +0.000 A 
ATOM     24  C   UNL     1       0.222  17.822  18.768  0.00  0.00    +0.000 A 
ATOM     25  C   UNL     1      -0.251  18.515  17.652  0.00  0.00    +0.000 A 
ATOM     26  C   UNL     1       0.510  18.566  16.487  0.00  0.00    +0.000 A 
ATOM     27  C   UNL     1       1.726  17.889  16.421  0.00  0.00    +0.000 A 
ATOM     28  C   UNL     1       2.189  17.173  17.527  0.00  0.00    +0.000 A 
ENDBRANCH  21  23
ENDBRANCH   1  15
TORSDOF 3
ENDMDL
MODEL 9
REMARK VINA RESULT:      -4.9      5.195      8.219
REMARK  Name = 
REMARK  4 active torsions:
REMARK  status: ('A' for Active; 'I' for Inactive)
REMARK    1  A    between atoms: C_1  and  C_2
REMARK    2  A    between atoms: C_11  and  S_12
REMARK    3  A    between atoms: S_12  and  N_15
REMARK    4  A    between atoms: C_21  and  C_22
REMARK                            x       y       z     vdW  Elec       q    Type
REMARK                         _______ _______ _______ _____ _____    ______ ____
ROOT
ATOM      1  S   UNL     1      -0.017  13.123  21.744  0.00  0.00    +0.000 S 
ATOM      2  O   UNL     1      -0.021  11.694  22.025  0.00  0.00    +0.000 OA
ATOM      3  O   UNL     1       0.276  14.050  22.809  0.00  0.00    +0.000 OA
ENDROOT
BRANCH   1  14
ATOM      4  C   UNL     1       0.176  11.687  18.912  0.00  0.00    +0.000 C 
ATOM      5  C   UNL     1       1.191  12.742  19.274  0.00  0.00    +0.000 A 
ATOM      6  C   UNL     1       2.143  13.024  18.287  0.00  0.00    +0.000 A 
ATOM      7  C   UNL     1       3.235  13.823  18.573  0.00  0.00    +0.000 A 
ATOM      8  C   UNL     1       3.416  14.331  19.863  0.00  0.00    +0.000 A 
ATOM      9  C   UNL     1       4.580  15.057  20.146  0.00  0.00    +0.000 A 
ATOM     10  C   UNL     1       4.795  15.564  21.416  0.00  0.00    +0.000 A 
ATOM     11  C   UNL     1       3.824  15.334  22.358  0.00  0.00    +0.000 A 
ATOM     12  N   UNL     1       2.696  14.634  22.112  0.00  0.00    +0.000 NA
ATOM     13  C   UNL     1       2.457  14.116  20.885  0.00  0.00    +0.000 A 
ATOM     14  C   UNL     1       1.325  13.346  20.559  0.00  0.00    +0.000 A 
ENDBRANCH   1  14
BRANCH   1  15
ATOM     15  N   UNL     1      -1.493  13.449  21.027  0.00  0.00    +0.000 NA
ATOM     16  C   UNL     1      -2.635  12.562  21.361  0.00  0.00    +0.000 C 
ATOM     17  C   UNL     1      -3.515  13.266  22.385  0.00  0.00    +0.000 C 
ATOM     18  N   UNL     1      -3.961  14.550  21.897  0.00  0.00    +0.000 N 
ATOM     19  C   UNL     1      -3.210  15.342  21.054  0.00  0.00    +0.000 C 
ATOM     20  O   UNL     1      -3.655  16.462  20.795  0.00  0.00    +0.000 OA
ATOM     21  C   UNL     1      -1.926  14.735  20.393  0.00  0.00    +0.000 C 
ATOM     22  H   UNL     1      -4.744  15.020  22.336  0.00  0.00    +0.000 HD
BRANCH  21  23
ATOM     23  C   UNL     1      -0.847  15.771  20.105  0.00  0.00    +0.000 A 
ATOM     24  C   UNL     1      -0.304  16.596  21.105  0.00  0.00    +0.000 A 
ATOM     25  C   UNL     1       0.769  17.447  20.829  0.00  0.00    +0.000 A 
ATOM     26  C   UNL     1       1.326  17.476  19.553  0.00  0.00    +0.000 A 
ATOM     27  C   UNL     1       0.785  16.686  18.541  0.00  0.00    +0.000 A 
ATOM     28  C   UNL     1      -0.304  15.854  18.808  0.00  0.00    +0.000 A 
ENDBRANCH  21  23
ENDBRANCH   1  15
TORSDOF 3
ENDMDL
