MODEL 1
REMARK VINA RESULT:      -8.0      0.000      0.000
REMARK  Name = 
REMARK  3 active torsions:
REMARK  status: ('A' for Active; 'I' for Inactive)
REMARK    1  A    between atoms: C_1  and  C_2
REMARK    2  A    between atoms: C_9  and  C_10
REMARK    3  A    between atoms: C_14  and  C_15
REMARK                            x       y       z     vdW  Elec       q    Type
REMARK                         _______ _______ _______ _____ _____    ______ ____
ROOT
ATOM      1  C   UNL     1       1.982   9.233  18.122  0.00  0.00    +0.000 C 
ATOM      2  O   UNL     1       2.743   9.483  17.192  0.00  0.00    +0.000 OA
ATOM      3  N   UNL     1       1.089  10.166  18.635  0.00  0.00    +0.000 N 
ATOM      4  C   UNL     1       0.114   9.960  19.681  0.00  0.00    +0.000 C 
ATOM      5  C   UNL     1      -0.907  11.087  19.545  0.00  0.00    +0.000 C 
ATOM      6  C   UNL     1      -0.219  12.164  18.662  0.00  0.00    +0.000 C 
ATOM      7  C   UNL     1       0.102  13.527  19.261  0.00  0.00    +0.000 C 
ATOM      8  C   UNL     1       1.454  13.365  19.928  0.00  0.00    +0.000 C 
ATOM      9  C   UNL     1       2.202  12.343  19.078  0.00  0.00    +0.000 C 
ATOM     10  C   UNL     1       1.147  11.569  18.267  0.00  0.00    +0.000 C 
ENDROOT
BRANCH   1  19
ATOM     11  C   UNL     1       2.011   3.641  21.808  0.00  0.00    +0.000 C 
ATOM     12  C   UNL     1       2.131   3.877  20.331  0.00  0.00    +0.000 A 
ATOM     13  C   UNL     1       2.305   2.863  19.470  0.00  0.00    +0.000 A 
ATOM     14  C   UNL     1       2.436   3.070  18.009  0.00  0.00    +0.000 A 
ATOM     15  O   UNL     1       2.595   2.121  17.253  0.00  0.00    +0.000 OA
ATOM     16  N   UNL     1       2.356   4.363  17.564  0.00  0.00    +0.000 N 
ATOM     17  C   UNL     1       2.191   5.467  18.409  0.00  0.00    +0.000 A 
ATOM     18  C   UNL     1       2.151   6.753  17.863  0.00  0.00    +0.000 A 
ATOM     19  C   UNL     1       2.017   7.858  18.709  0.00  0.00    +0.000 A 
ATOM     20  C   UNL     1       1.978   7.659  20.092  0.00  0.00    +0.000 A 
ATOM     21  C   UNL     1       1.961   6.372  20.629  0.00  0.00    +0.000 A 
ATOM     22  C   UNL     1       2.080   5.254  19.799  0.00  0.00    +0.000 A 
ATOM     23  H   UNL     1       2.458   4.488  16.565  0.00  0.00    +0.000 HD
ENDBRANCH   1  19
BRANCH   5  24
ATOM     24  C   UNL     1      -1.538  11.548  20.844  0.00  0.00    +0.000 A 
ATOM     25  C   UNL     1      -2.705  12.329  20.896  0.00  0.00    +0.000 A 
ATOM     26  C   UNL     1      -3.288  12.677  22.114  0.00  0.00    +0.000 A 
ATOM     27  C   UNL     1      -2.714  12.249  23.304  0.00  0.00    +0.000 A 
ATOM     28  C   UNL     1      -1.541  11.497  23.275  0.00  0.00    +0.000 A 
ATOM     29  C   UNL     1      -0.958  11.149  22.055  0.00  0.00    +0.000 A 
ENDBRANCH   5  24
TORSDOF 2
ENDMDL
MODEL 2
REMARK VINA RESULT:      -7.9      1.072      1.152
REMARK  Name = 
REMARK  3 active torsions:
REMARK  status: ('A' for Active; 'I' for Inactive)
REMARK    1  A    between atoms: C_1  and  C_2
REMARK    2  A    between atoms: C_9  and  C_10
REMARK    3  A    between atoms: C_14  and  C_15
REMARK                            x       y       z     vdW  Elec       q    Type
REMARK                         _______ _______ _______ _____ _____    ______ ____
ROOT
ATOM      1  C   UNL     1       1.885  10.340  18.229  0.00  0.00    +0.000 C 
ATOM      2  O   UNL     1       2.652  10.753  17.366  0.00  0.00    +0.000 OA
ATOM      3  N   UNL     1       0.878  11.124  18.779  0.00  0.00    +0.000 N 
ATOM      4  C   UNL     1      -0.111  10.722  19.753  0.00  0.00    +0.000 C 
ATOM      5  C   UNL     1      -1.239  11.748  19.669  0.00  0.00    +0.000 C 
ATOM      6  C   UNL     1      -0.634  12.968  18.922  0.00  0.00    +0.000 C 
ATOM      7  C   UNL     1      -0.484  14.293  19.657  0.00  0.00    +0.000 C 
ATOM      8  C   UNL     1       0.851  14.207  20.373  0.00  0.00    +0.000 C 
ATOM      9  C   UNL     1       1.736  13.351  19.473  0.00  0.00    +0.000 C 
ATOM     10  C   UNL     1       0.803  12.555  18.544  0.00  0.00    +0.000 C 
ENDROOT
BRANCH   1  19
ATOM     11  C   UNL     1       2.016   4.384  21.290  0.00  0.00    +0.000 C 
ATOM     12  C   UNL     1       2.529   4.846  19.957  0.00  0.00    +0.000 A 
ATOM     13  C   UNL     1       3.180   4.015  19.130  0.00  0.00    +0.000 A 
ATOM     14  C   UNL     1       3.705   4.448  17.813  0.00  0.00    +0.000 A 
ATOM     15  O   UNL     1       4.294   3.662  17.084  0.00  0.00    +0.000 OA
ATOM     16  N   UNL     1       3.481   5.754  17.465  0.00  0.00    +0.000 N 
ATOM     17  C   UNL     1       2.823   6.676  18.288  0.00  0.00    +0.000 A 
ATOM     18  C   UNL     1       2.670   7.997  17.857  0.00  0.00    +0.000 A 
ATOM     19  C   UNL     1       2.041   8.926  18.690  0.00  0.00    +0.000 A 
ATOM     20  C   UNL     1       1.623   8.528  19.964  0.00  0.00    +0.000 A 
ATOM     21  C   UNL     1       1.727   7.197  20.368  0.00  0.00    +0.000 A 
ATOM     22  C   UNL     1       2.340   6.251  19.542  0.00  0.00    +0.000 A 
ATOM     23  H   UNL     1       3.855   6.036  16.567  0.00  0.00    +0.000 HD
ENDBRANCH   1  19
BRANCH   5  24
ATOM     24  C   UNL     1      -1.967  12.017  20.971  0.00  0.00    +0.000 A 
ATOM     25  C   UNL     1      -3.245  12.599  21.030  0.00  0.00    +0.000 A 
ATOM     26  C   UNL     1      -3.906  12.769  22.246  0.00  0.00    +0.000 A 
ATOM     27  C   UNL     1      -3.300  12.359  23.427  0.00  0.00    +0.000 A 
ATOM     28  C   UNL     1      -2.022  11.805  23.392  0.00  0.00    +0.000 A 
ATOM     29  C   UNL     1      -1.361  11.634  22.175  0.00  0.00    +0.000 A 
ENDBRANCH   5  24
TORSDOF 2
ENDMDL
MODEL 3
REMARK VINA RESULT:      -7.8      2.450      4.779
REMARK  Name = 
REMARK  3 active torsions:
REMARK  status: ('A' for Active; 'I' for Inactive)
REMARK    1  A    between atoms: C_1  and  C_2
REMARK    2  A    between atoms: C_9  and  C_10
REMARK    3  A    between atoms: C_14  and  C_15
REMARK                            x       y       z     vdW  Elec       q    Type
REMARK                         _______ _______ _______ _____ _____    ______ ____
ROOT
ATOM      1  C   UNL     1       0.255  10.578  19.722  0.00  0.00    +0.000 C 
ATOM      2  O   UNL     1      -0.917  10.300  19.952  0.00  0.00    +0.000 OA
ATOM      3  N   UNL     1       0.772  11.857  19.889  0.00  0.00    +0.000 N 
ATOM      4  C   UNL     1       2.141  12.279  19.706  0.00  0.00    +0.000 C 
ATOM      5  C   UNL     1       2.288  13.603  20.453  0.00  0.00    +0.000 C 
ATOM      6  C   UNL     1       0.838  14.108  20.687  0.00  0.00    +0.000 C 
ATOM      7  C   UNL     1       0.377  15.393  20.011  0.00  0.00    +0.000 C 
ATOM      8  C   UNL     1      -0.107  14.972  18.637  0.00  0.00    +0.000 C 
ATOM      9  C   UNL     1      -0.678  13.570  18.822  0.00  0.00    +0.000 C 
ATOM     10  C   UNL     1      -0.084  13.007  20.125  0.00  0.00    +0.000 C 
ENDROOT
BRANCH   1  19
ATOM     11  C   UNL     1       4.507   6.383  16.691  0.00  0.00    +0.000 C 
ATOM     12  C   UNL     1       3.742   6.290  17.979  0.00  0.00    +0.000 A 
ATOM     13  C   UNL     1       3.815   5.202  18.760  0.00  0.00    +0.000 A 
ATOM     14  C   UNL     1       3.064   5.081  20.032  0.00  0.00    +0.000 A 
ATOM     15  O   UNL     1       3.154   4.073  20.719  0.00  0.00    +0.000 OA
ATOM     16  N   UNL     1       2.288   6.153  20.389  0.00  0.00    +0.000 N 
ATOM     17  C   UNL     1       2.157   7.310  19.613  0.00  0.00    +0.000 A 
ATOM     18  C   UNL     1       1.317   8.339  20.047  0.00  0.00    +0.000 A 
ATOM     19  C   UNL     1       1.161   9.482  19.258  0.00  0.00    +0.000 A 
ATOM     20  C   UNL     1       1.809   9.552  18.021  0.00  0.00    +0.000 A 
ATOM     21  C   UNL     1       2.690   8.549  17.617  0.00  0.00    +0.000 A 
ATOM     22  C   UNL     1       2.870   7.405  18.400  0.00  0.00    +0.000 A 
ATOM     23  H   UNL     1       1.774   6.049  21.255  0.00  0.00    +0.000 HD
ENDBRANCH   1  19
BRANCH   5  24
ATOM     24  C   UNL     1       3.278  14.579  19.851  0.00  0.00    +0.000 A 
ATOM     25  C   UNL     1       3.941  15.563  20.604  0.00  0.00    +0.000 A 
ATOM     26  C   UNL     1       4.894  16.399  20.022  0.00  0.00    +0.000 A 
ATOM     27  C   UNL     1       5.202  16.266  18.674  0.00  0.00    +0.000 A 
ATOM     28  C   UNL     1       4.537  15.314  17.904  0.00  0.00    +0.000 A 
ATOM     29  C   UNL     1       3.583  14.478  18.487  0.00  0.00    +0.000 A 
ENDBRANCH   5  24
TORSDOF 2
ENDMDL
MODEL 4
REMARK VINA RESULT:      -7.5      2.286      4.354
REMARK  Name = 
REMARK  3 active torsions:
REMARK  status: ('A' for Active; 'I' for Inactive)
REMARK    1  A    between atoms: C_1  and  C_2
REMARK    2  A    between atoms: C_9  and  C_10
REMARK    3  A    between atoms: C_14  and  C_15
REMARK                            x       y       z     vdW  Elec       q    Type
REMARK                         _______ _______ _______ _____ _____    ______ ____
ROOT
ATOM      1  C   UNL     1       0.335   9.658  20.421  0.00  0.00    +0.000 C 
ATOM      2  O   UNL     1      -0.622   9.077  20.922  0.00  0.00    +0.000 OA
ATOM      3  N   UNL     1       0.540  11.026  20.558  0.00  0.00    +0.000 N 
ATOM      4  C   UNL     1       1.657  11.797  20.063  0.00  0.00    +0.000 C 
ATOM      5  C   UNL     1       1.666  13.101  20.857  0.00  0.00    +0.000 C 
ATOM      6  C   UNL     1       0.256  13.202  21.501  0.00  0.00    +0.000 C 
ATOM      7  C   UNL     1      -0.678  14.329  21.080  0.00  0.00    +0.000 C 
ATOM      8  C   UNL     1      -1.396  13.816  19.847  0.00  0.00    +0.000 C 
ATOM      9  C   UNL     1      -1.526  12.311  20.053  0.00  0.00    +0.000 C 
ATOM     10  C   UNL     1      -0.478  11.906  21.105  0.00  0.00    +0.000 C 
ENDROOT
BRANCH   1  19
ATOM     11  C   UNL     1       4.675   6.902  16.129  0.00  0.00    +0.000 C 
ATOM     12  C   UNL     1       4.162   6.462  17.469  0.00  0.00    +0.000 A 
ATOM     13  C   UNL     1       4.548   5.301  18.021  0.00  0.00    +0.000 A 
ATOM     14  C   UNL     1       4.050   4.839  19.338  0.00  0.00    +0.000 A 
ATOM     15  O   UNL     1       4.423   3.774  19.810  0.00  0.00    +0.000 OA
ATOM     16  N   UNL     1       3.174   5.669  19.987  0.00  0.00    +0.000 N 
ATOM     17  C   UNL     1       2.720   6.884  19.460  0.00  0.00    +0.000 A 
ATOM     18  C   UNL     1       1.801   7.649  20.185  0.00  0.00    +0.000 A 
ATOM     19  C   UNL     1       1.324   8.847  19.647  0.00  0.00    +0.000 A 
ATOM     20  C   UNL     1       1.736   9.234  18.368  0.00  0.00    +0.000 A 
ATOM     21  C   UNL     1       2.695   8.498  17.673  0.00  0.00    +0.000 A 
ATOM     22  C   UNL     1       3.195   7.304  18.201  0.00  0.00    +0.000 A 
ATOM     23  H   UNL     1       2.836   5.334  20.880  0.00  0.00    +0.000 HD
ENDBRANCH   1  19
BRANCH   5  24
ATOM     24  C   UNL     1       2.178  14.313  20.105  0.00  0.00    +0.000 A 
ATOM     25  C   UNL     1       2.208  14.389  18.702  0.00  0.00    +0.000 A 
ATOM     26  C   UNL     1       2.628  15.548  18.050  0.00  0.00    +0.000 A 
ATOM     27  C   UNL     1       3.026  16.654  18.790  0.00  0.00    +0.000 A 
ATOM     28  C   UNL     1       3.030  16.589  20.182  0.00  0.00    +0.000 A 
ATOM     29  C   UNL     1       2.609  15.429  20.834  0.00  0.00    +0.000 A 
ENDBRANCH   5  24
TORSDOF 2
ENDMDL
MODEL 5
REMARK VINA RESULT:      -7.5      2.405      7.867
REMARK  Name = 
REMARK  3 active torsions:
REMARK  status: ('A' for Active; 'I' for Inactive)
REMARK    1  A    between atoms: C_1  and  C_2
REMARK    2  A    between atoms: C_9  and  C_10
REMARK    3  A    between atoms: C_14  and  C_15
REMARK                            x       y       z     vdW  Elec       q    Type
REMARK                         _______ _______ _______ _____ _____    ______ ____
ROOT
ATOM      1  C   UNL     1       2.076   9.407  17.988  0.00  0.00    +0.000 C 
ATOM      2  O   UNL     1       2.872  10.141  17.413  0.00  0.00    +0.000 OA
ATOM      3  N   UNL     1       2.436   8.174  18.517  0.00  0.00    +0.000 N 
ATOM      4  C   UNL     1       1.598   7.262  19.261  0.00  0.00    +0.000 C 
ATOM      5  C   UNL     1       2.542   6.323  20.009  0.00  0.00    +0.000 C 
ATOM      6  C   UNL     1       3.919   6.477  19.309  0.00  0.00    +0.000 C 
ATOM      7  C   UNL     1       4.517   5.286  18.569  0.00  0.00    +0.000 C 
ATOM      8  C   UNL     1       3.923   5.340  17.175  0.00  0.00    +0.000 C 
ATOM      9  C   UNL     1       3.725   6.823  16.878  0.00  0.00    +0.000 C 
ATOM     10  C   UNL     1       3.720   7.559  18.229  0.00  0.00    +0.000 C 
ENDROOT
BRANCH   1  19
ATOM     11  C   UNL     1      -4.481  10.753  17.734  0.00  0.00    +0.000 C 
ATOM     12  C   UNL     1      -3.374  11.279  18.602  0.00  0.00    +0.000 A 
ATOM     13  C   UNL     1      -3.599  12.220  19.530  0.00  0.00    +0.000 A 
ATOM     14  C   UNL     1      -2.524  12.763  20.393  0.00  0.00    +0.000 A 
ATOM     15  O   UNL     1      -2.765  13.623  21.230  0.00  0.00    +0.000 OA
ATOM     16  N   UNL     1      -1.269  12.243  20.208  0.00  0.00    +0.000 N 
ATOM     17  C   UNL     1      -0.965  11.272  19.247  0.00  0.00    +0.000 A 
ATOM     18  C   UNL     1       0.353  10.825  19.113  0.00  0.00    +0.000 A 
ATOM     19  C   UNL     1       0.664   9.877  18.134  0.00  0.00    +0.000 A 
ATOM     20  C   UNL     1      -0.342   9.432  17.270  0.00  0.00    +0.000 A 
ATOM     21  C   UNL     1      -1.665   9.838  17.444  0.00  0.00    +0.000 A 
ATOM     22  C   UNL     1      -1.997  10.774  18.426  0.00  0.00    +0.000 A 
ATOM     23  H   UNL     1      -0.545  12.633  20.798  0.00  0.00    +0.000 HD
ENDBRANCH   1  19
BRANCH   5  24
ATOM     24  C   UNL     1       2.019   4.916  20.222  0.00  0.00    +0.000 A 
ATOM     25  C   UNL     1       1.265   4.223  19.260  0.00  0.00    +0.000 A 
ATOM     26  C   UNL     1       0.859   2.906  19.471  0.00  0.00    +0.000 A 
ATOM     27  C   UNL     1       1.200   2.257  20.651  0.00  0.00    +0.000 A 
ATOM     28  C   UNL     1       1.925   2.935  21.629  0.00  0.00    +0.000 A 
ATOM     29  C   UNL     1       2.332   4.253  21.416  0.00  0.00    +0.000 A 
ENDBRANCH   5  24
TORSDOF 2
ENDMDL
MODEL 6
REMARK VINA RESULT:      -7.3      6.128      8.530
REMARK  Name = 
REMARK  3 active torsions:
REMARK  status: ('A' for Active; 'I' for Inactive)
REMARK    1  A    between atoms: C_1  and  C_2
REMARK    2  A    between atoms: C_9  and  C_10
REMARK    3  A    between atoms: C_14  and  C_15
REMARK                            x       y       z     vdW  Elec       q    Type
REMARK                         _______ _______ _______ _____ _____    ______ ____
ROOT
ATOM      1  C   UNL     1       5.478  16.550  19.151  0.00  0.00    +0.000 C 
ATOM      2  O   UNL     1       5.724  17.748  19.064  0.00  0.00    +0.000 OA
ATOM      3  N   UNL     1       4.188  16.039  19.079  0.00  0.00    +0.000 N 
ATOM      4  C   UNL     1       3.794  14.649  19.111  0.00  0.00    +0.000 C 
ATOM      5  C   UNL     1       2.382  14.588  18.532  0.00  0.00    +0.000 C 
ATOM      6  C   UNL     1       1.852  16.047  18.584  0.00  0.00    +0.000 C 
ATOM      7  C   UNL     1       0.668  16.378  19.485  0.00  0.00    +0.000 C 
ATOM      8  C   UNL     1       1.269  16.662  20.849  0.00  0.00    +0.000 C 
ATOM      9  C   UNL     1       2.633  17.282  20.567  0.00  0.00    +0.000 C 
ATOM     10  C   UNL     1       3.017  16.897  19.127  0.00  0.00    +0.000 C 
ENDROOT
BRANCH   1  19
ATOM     11  C   UNL     1      10.210  12.213  21.066  0.00  0.00    +0.000 C 
ATOM     12  C   UNL     1       9.950  12.915  19.766  0.00  0.00    +0.000 A 
ATOM     13  C   UNL     1      10.758  12.751  18.707  0.00  0.00    +0.000 A 
ATOM     14  C   UNL     1      10.530  13.439  17.415  0.00  0.00    +0.000 A 
ATOM     15  O   UNL     1      11.287  13.266  16.470  0.00  0.00    +0.000 OA
ATOM     16  N   UNL     1       9.431  14.255  17.341  0.00  0.00    +0.000 N 
ATOM     17  C   UNL     1       8.558  14.482  18.412  0.00  0.00    +0.000 A 
ATOM     18  C   UNL     1       7.480  15.357  18.249  0.00  0.00    +0.000 A 
ATOM     19  C   UNL     1       6.626  15.608  19.327  0.00  0.00    +0.000 A 
ATOM     20  C   UNL     1       6.897  15.017  20.565  0.00  0.00    +0.000 A 
ATOM     21  C   UNL     1       7.940  14.102  20.709  0.00  0.00    +0.000 A 
ATOM     22  C   UNL     1       8.796  13.828  19.639  0.00  0.00    +0.000 A 
ATOM     23  H   UNL     1       9.296  14.725  16.455  0.00  0.00    +0.000 HD
ENDBRANCH   1  19
BRANCH   5  24
ATOM     24  C   UNL     1       1.495  13.501  19.104  0.00  0.00    +0.000 A 
ATOM     25  C   UNL     1       1.738  12.884  20.343  0.00  0.00    +0.000 A 
ATOM     26  C   UNL     1       0.860  11.933  20.861  0.00  0.00    +0.000 A 
ATOM     27  C   UNL     1      -0.278  11.580  20.149  0.00  0.00    +0.000 A 
ATOM     28  C   UNL     1      -0.523  12.160  18.906  0.00  0.00    +0.000 A 
ATOM     29  C   UNL     1       0.356  13.113  18.388  0.00  0.00    +0.000 A 
ENDBRANCH   5  24
TORSDOF 2
ENDMDL
MODEL 7
REMARK VINA RESULT:      -7.2      5.200      9.290
REMARK  Name = 
REMARK  3 active torsions:
REMARK  status: ('A' for Active; 'I' for Inactive)
REMARK    1  A    between atoms: C_1  and  C_2
REMARK    2  A    between atoms: C_9  and  C_10
REMARK    3  A    between atoms: C_14  and  C_15
REMARK                            x       y       z     vdW  Elec       q    Type
REMARK                         _______ _______ _______ _____ _____    ______ ____
ROOT
ATOM      1  C   UNL     1      -1.060  13.441  22.398  0.00  0.00    +0.000 C 
ATOM      2  O   UNL     1      -0.137  13.748  23.145  0.00  0.00    +0.000 OA
ATOM      3  N   UNL     1      -0.888  12.627  21.285  0.00  0.00    +0.000 N 
ATOM      4  C   UNL     1      -1.910  12.158  20.378  0.00  0.00    +0.000 C 
ATOM      5  C   UNL     1      -1.317  10.955  19.647  0.00  0.00    +0.000 C 
ATOM      6  C   UNL     1       0.217  11.049  19.873  0.00  0.00    +0.000 C 
ATOM      7  C   UNL     1       1.133  11.287  18.679  0.00  0.00    +0.000 C 
ATOM      8  C   UNL     1       1.176  12.792  18.500  0.00  0.00    +0.000 C 
ATOM      9  C   UNL     1       1.041  13.370  19.905  0.00  0.00    +0.000 C 
ATOM     10  C   UNL     1       0.430  12.269  20.790  0.00  0.00    +0.000 C 
ENDROOT
BRANCH   1  19
ATOM     11  C   UNL     1      -6.682  16.843  23.696  0.00  0.00    +0.000 C 
ATOM     12  C   UNL     1      -6.377  15.374  23.655  0.00  0.00    +0.000 A 
ATOM     13  C   UNL     1      -7.314  14.455  23.934  0.00  0.00    +0.000 A 
ATOM     14  C   UNL     1      -7.037  12.999  23.909  0.00  0.00    +0.000 A 
ATOM     15  O   UNL     1      -7.917  12.190  24.170  0.00  0.00    +0.000 OA
ATOM     16  N   UNL     1      -5.764  12.624  23.569  0.00  0.00    +0.000 N 
ATOM     17  C   UNL     1      -4.737  13.531  23.282  0.00  0.00    +0.000 A 
ATOM     18  C   UNL     1      -3.460  13.052  22.976  0.00  0.00    +0.000 A 
ATOM     19  C   UNL     1      -2.426  13.957  22.719  0.00  0.00    +0.000 A 
ATOM     20  C   UNL     1      -2.677  15.328  22.825  0.00  0.00    +0.000 A 
ATOM     21  C   UNL     1      -3.965  15.803  23.076  0.00  0.00    +0.000 A 
ATOM     22  C   UNL     1      -5.014  14.913  23.321  0.00  0.00    +0.000 A 
ATOM     23  H   UNL     1      -5.589  11.627  23.568  0.00  0.00    +0.000 HD
ENDBRANCH   1  19
BRANCH   5  24
ATOM     24  C   UNL     1      -1.803  10.758  18.225  0.00  0.00    +0.000 A 
ATOM     25  C   UNL     1      -1.404   9.678  17.420  0.00  0.00    +0.000 A 
ATOM     26  C   UNL     1      -1.926   9.499  16.139  0.00  0.00    +0.000 A 
ATOM     27  C   UNL     1      -2.858  10.399  15.640  0.00  0.00    +0.000 A 
ATOM     28  C   UNL     1      -3.247  11.492  16.412  0.00  0.00    +0.000 A 
ATOM     29  C   UNL     1      -2.725  11.670  17.694  0.00  0.00    +0.000 A 
ENDBRANCH   5  24
TORSDOF 2
ENDMDL
MODEL 8
REMARK VINA RESULT:      -7.2      5.405      8.097
REMARK  Name = 
REMARK  3 active torsions:
REMARK  status: ('A' for Active; 'I' for Inactive)
REMARK    1  A    between atoms: C_1  and  C_2
REMARK    2  A    between atoms: C_9  and  C_10
REMARK    3  A    between atoms: C_14  and  C_15
REMARK                            x       y       z     vdW  Elec       q    Type
REMARK                         _______ _______ _______ _____ _____    ______ ____
ROOT
ATOM      1  C   UNL     1       4.403  15.968  18.801  0.00  0.00    +0.000 C 
ATOM      2  O   UNL     1       4.410  17.153  18.483  0.00  0.00    +0.000 OA
ATOM      3  N   UNL     1       3.246  15.199  18.811  0.00  0.00    +0.000 N 
ATOM      4  C   UNL     1       3.135  13.790  19.111  0.00  0.00    +0.000 C 
ATOM      5  C   UNL     1       1.798  13.331  18.533  0.00  0.00    +0.000 C 
ATOM      6  C   UNL     1       0.986  14.632  18.287  0.00  0.00    +0.000 C 
ATOM      7  C   UNL     1      -0.288  14.877  19.086  0.00  0.00    +0.000 C 
ATOM      8  C   UNL     1       0.167  15.533  20.376  0.00  0.00    +0.000 C 
ATOM      9  C   UNL     1       1.395  16.355  19.999  0.00  0.00    +0.000 C 
ATOM     10  C   UNL     1       1.927  15.791  18.670  0.00  0.00    +0.000 C 
ENDROOT
BRANCH   1  19
ATOM     11  C   UNL     1       9.840  13.258  21.622  0.00  0.00    +0.000 C 
ATOM     12  C   UNL     1       9.464  13.510  20.191  0.00  0.00    +0.000 A 
ATOM     13  C   UNL     1      10.294  13.201  19.183  0.00  0.00    +0.000 A 
ATOM     14  C   UNL     1       9.950  13.448  17.763  0.00  0.00    +0.000 A 
ATOM     15  O   UNL     1      10.732  13.154  16.869  0.00  0.00    +0.000 OA
ATOM     16  N   UNL     1       8.721  14.001  17.517  0.00  0.00    +0.000 N 
ATOM     17  C   UNL     1       7.815  14.359  18.523  0.00  0.00    +0.000 A 
ATOM     18  C   UNL     1       6.596  14.947  18.174  0.00  0.00    +0.000 A 
ATOM     19  C   UNL     1       5.703  15.333  19.178  0.00  0.00    +0.000 A 
ATOM     20  C   UNL     1       6.071  15.173  20.517  0.00  0.00    +0.000 A 
ATOM     21  C   UNL     1       7.263  14.535  20.860  0.00  0.00    +0.000 A 
ATOM     22  C   UNL     1       8.162  14.129  19.870  0.00  0.00    +0.000 A 
ATOM     23  H   UNL     1       8.507  14.172  16.543  0.00  0.00    +0.000 HD
ENDBRANCH   1  19
BRANCH   5  24
ATOM     24  C   UNL     1       1.114  12.213  19.294  0.00  0.00    +0.000 A 
ATOM     25  C   UNL     1       1.195  12.073  20.690  0.00  0.00    +0.000 A 
ATOM     26  C   UNL     1       0.497  11.067  21.357  0.00  0.00    +0.000 A 
ATOM     27  C   UNL     1      -0.296  10.181  20.639  0.00  0.00    +0.000 A 
ATOM     28  C   UNL     1      -0.368  10.286  19.252  0.00  0.00    +0.000 A 
ATOM     29  C   UNL     1       0.330  11.294  18.584  0.00  0.00    +0.000 A 
ENDBRANCH   5  24
TORSDOF 2
ENDMDL
MODEL 9
REMARK VINA RESULT:      -7.2      7.129     11.115
REMARK  Name = 
REMARK  3 active torsions:
REMARK  status: ('A' for Active; 'I' for Inactive)
REMARK    1  A    between atoms: C_1  and  C_2
REMARK    2  A    between atoms: C_9  and  C_10
REMARK    3  A    between atoms: C_14  and  C_15
REMARK                            x       y       z     vdW  Elec       q    Type
REMARK                         _______ _______ _______ _____ _____    ______ ____
ROOT
ATOM      1  C   UNL     1       6.656  16.935  19.361  0.00  0.00    +0.000 C 
ATOM      2  O   UNL     1       6.482  18.150  19.359  0.00  0.00    +0.000 OA
ATOM      3  N   UNL     1       7.918  16.356  19.387  0.00  0.00    +0.000 N 
ATOM      4  C   UNL     1       8.233  14.947  19.452  0.00  0.00    +0.000 C 
ATOM      5  C   UNL     1       9.679  14.851  19.933  0.00  0.00    +0.000 C 
ATOM      6  C   UNL     1      10.283  16.265  19.714  0.00  0.00    +0.000 C 
ATOM      7  C   UNL     1      11.411  16.447  18.706  0.00  0.00    +0.000 C 
ATOM      8  C   UNL     1      10.726  16.649  17.368  0.00  0.00    +0.000 C 
ATOM      9  C   UNL     1       9.421  17.372  17.689  0.00  0.00    +0.000 C 
ATOM     10  C   UNL     1       9.127  17.134  19.181  0.00  0.00    +0.000 C 
ENDROOT
BRANCH   1  19
ATOM     11  C   UNL     1       1.621  12.669  18.213  0.00  0.00    +0.000 C 
ATOM     12  C   UNL     1       1.958  13.542  19.387  0.00  0.00    +0.000 A 
ATOM     13  C   UNL     1       1.171  13.591  20.472  0.00  0.00    +0.000 A 
ATOM     14  C   UNL     1       1.475  14.451  21.640  0.00  0.00    +0.000 A 
ATOM     15  O   UNL     1       0.734  14.471  22.614  0.00  0.00    +0.000 OA
ATOM     16  N   UNL     1       2.623  15.197  21.569  0.00  0.00    +0.000 N 
ATOM     17  C   UNL     1       3.478  15.203  20.461  0.00  0.00    +0.000 A 
ATOM     18  C   UNL     1       4.611  16.022  20.469  0.00  0.00    +0.000 A 
ATOM     19  C   UNL     1       5.449  16.052  19.351  0.00  0.00    +0.000 A 
ATOM     20  C   UNL     1       5.109  15.301  18.222  0.00  0.00    +0.000 A 
ATOM     21  C   UNL     1       4.010  14.442  18.239  0.00  0.00    +0.000 A 
ATOM     22  C   UNL     1       3.168  14.388  19.353  0.00  0.00    +0.000 A 
ATOM     23  H   UNL     1       2.810  15.786  22.370  0.00  0.00    +0.000 HD
ENDBRANCH   1  19
BRANCH   5  24
ATOM     24  C   UNL     1      10.461  13.667  19.400  0.00  0.00    +0.000 A 
ATOM     25  C   UNL     1      11.531  13.078  20.095  0.00  0.00    +0.000 A 
ATOM     26  C   UNL     1      12.181  11.949  19.598  0.00  0.00    +0.000 A 
ATOM     27  C   UNL     1      11.773  11.388  18.394  0.00  0.00    +0.000 A 
ATOM     28  C   UNL     1      10.732  11.973  17.677  0.00  0.00    +0.000 A 
ATOM     29  C   UNL     1      10.081  13.103  18.176  0.00  0.00    +0.000 A 
ENDBRANCH   5  24
TORSDOF 2
ENDMDL
