MODEL 1
REMARK VINA RESULT:      -8.5      0.000      0.000
REMARK  Name = 
REMARK  2 active torsions:
REMARK  status: ('A' for Active; 'I' for Inactive)
REMARK    1  A    between atoms: C_4  and  C_5
REMARK    2  A    between atoms: C_10  and  C_11
REMARK                            x       y       z     vdW  Elec       q    Type
REMARK                         _______ _______ _______ _____ _____    ______ ____
ROOT
ATOM      1  C   UNL     1       2.611   5.042  18.167  0.00  0.00    +0.000 C 
ATOM      2  O   UNL     1       1.669   4.929  18.952  0.00  0.00    +0.000 OA
ATOM      3  N   UNL     1       3.138   6.242  17.737  0.00  0.00    +0.000 N 
ATOM      4  C   UNL     1       2.653   7.419  18.226  0.00  0.00    +0.000 A 
ATOM      5  N   UNL     1       1.937   7.612  19.303  0.00  0.00    +0.000 NA
ATOM      6  C   UNL     1       1.536   8.928  19.358  0.00  0.00    +0.000 A 
ATOM      7  C   UNL     1       2.006   9.720  18.326  0.00  0.00    +0.000 A 
ATOM      8  S   UNL     1       3.019   8.794  17.296  0.00  0.00    +0.000 S 
ATOM      9  H   UNL     1       3.681   6.304  16.887  0.00  0.00    +0.000 HD
ENDROOT
BRANCH   1  13
ATOM     10  O   UNL     1       4.195   2.567  20.784  0.00  0.00    +0.000 OA
ATOM     11  C   UNL     1       4.358   2.888  19.626  0.00  0.00    +0.000 C 
ATOM     12  C   UNL     1       3.329   2.616  18.546  0.00  0.00    +0.000 C 
ATOM     13  C   UNL     1       3.247   3.776  17.558  0.00  0.00    +0.000 C 
ATOM     14  C   UNL     1       4.638   4.056  17.019  0.00  0.00    +0.000 A 
ATOM     15  C   UNL     1       4.841   4.523  15.718  0.00  0.00    +0.000 A 
ATOM     16  C   UNL     1       6.122   4.892  15.308  0.00  0.00    +0.000 A 
ATOM     17  C   UNL     1       7.198   4.815  16.195  0.00  0.00    +0.000 A 
ATOM     18  C   UNL     1       7.000   4.350  17.495  0.00  0.00    +0.000 A 
ATOM     19  C   UNL     1       5.727   3.948  17.891  0.00  0.00    +0.000 A 
ATOM     20  N   UNL     1       5.519   3.492  19.198  0.00  0.00    +0.000 N 
ATOM     21  H   UNL     1       6.261   3.559  19.885  0.00  0.00    +0.000 HD
ENDBRANCH   1  13
BRANCH   6  22
ATOM     22  C   UNL     1       0.723   9.400  20.471  0.00  0.00    +0.000 A 
ATOM     23  C   UNL     1       1.053   8.933  21.760  0.00  0.00    +0.000 A 
ATOM     24  C   UNL     1       0.321   9.341  22.874  0.00  0.00    +0.000 A 
ATOM     25  C   UNL     1      -0.749  10.207  22.705  0.00  0.00    +0.000 A 
ATOM     26  F   UNL     1      -1.457  10.596  23.772  0.00  0.00    +0.000 F 
ATOM     27  C   UNL     1      -1.103  10.673  21.446  0.00  0.00    +0.000 A 
ATOM     28  C   UNL     1      -0.369  10.274  20.327  0.00  0.00    +0.000 A 
ATOM     29 CL   UNL     1      -0.919  10.879  18.799  0.00  0.00    +0.000 Cl
ENDBRANCH   6  22
TORSDOF 2
ENDMDL
MODEL 2
REMARK VINA RESULT:      -8.5      2.892      4.402
REMARK  Name = 
REMARK  2 active torsions:
REMARK  status: ('A' for Active; 'I' for Inactive)
REMARK    1  A    between atoms: C_4  and  C_5
REMARK    2  A    between atoms: C_10  and  C_11
REMARK                            x       y       z     vdW  Elec       q    Type
REMARK                         _______ _______ _______ _____ _____    ______ ____
ROOT
ATOM      1  C   UNL     1       2.594   6.754  19.530  0.00  0.00    +0.000 C 
ATOM      2  O   UNL     1       2.196   7.046  18.402  0.00  0.00    +0.000 OA
ATOM      3  N   UNL     1       2.227   7.407  20.689  0.00  0.00    +0.000 N 
ATOM      4  C   UNL     1       1.318   8.423  20.645  0.00  0.00    +0.000 A 
ATOM      5  N   UNL     1       0.474   8.711  19.689  0.00  0.00    +0.000 NA
ATOM      6  C   UNL     1      -0.162   9.898  19.980  0.00  0.00    +0.000 A 
ATOM      7  C   UNL     1       0.193  10.463  21.191  0.00  0.00    +0.000 A 
ATOM      8  S   UNL     1       1.311   9.446  22.003  0.00  0.00    +0.000 S 
ATOM      9  H   UNL     1       2.789   7.349  21.527  0.00  0.00    +0.000 HD
ENDROOT
BRANCH   1  13
ATOM     10  O   UNL     1       4.787   6.005  16.349  0.00  0.00    +0.000 OA
ATOM     11  C   UNL     1       4.351   5.409  17.312  0.00  0.00    +0.000 C 
ATOM     12  C   UNL     1       4.789   5.711  18.731  0.00  0.00    +0.000 C 
ATOM     13  C   UNL     1       3.616   5.612  19.702  0.00  0.00    +0.000 C 
ATOM     14  C   UNL     1       2.963   4.252  19.541  0.00  0.00    +0.000 A 
ATOM     15  C   UNL     1       2.367   3.592  20.618  0.00  0.00    +0.000 A 
ATOM     16  C   UNL     1       1.664   2.406  20.399  0.00  0.00    +0.000 A 
ATOM     17  C   UNL     1       1.539   1.887  19.109  0.00  0.00    +0.000 A 
ATOM     18  C   UNL     1       2.132   2.544  18.030  0.00  0.00    +0.000 A 
ATOM     19  C   UNL     1       2.863   3.706  18.256  0.00  0.00    +0.000 A 
ATOM     20  N   UNL     1       3.451   4.376  17.177  0.00  0.00    +0.000 N 
ATOM     21  H   UNL     1       3.253   4.084  16.227  0.00  0.00    +0.000 HD
ENDBRANCH   1  13
BRANCH   6  22
ATOM     22  C   UNL     1      -1.160  10.436  19.065  0.00  0.00    +0.000 A 
ATOM     23  C   UNL     1      -1.217   9.886  17.768  0.00  0.00    +0.000 A 
ATOM     24  C   UNL     1      -2.146  10.350  16.838  0.00  0.00    +0.000 A 
ATOM     25  C   UNL     1      -3.014  11.372  17.195  0.00  0.00    +0.000 A 
ATOM     26  F   UNL     1      -3.903  11.822  16.302  0.00  0.00    +0.000 F 
ATOM     27  C   UNL     1      -2.972  11.939  18.461  0.00  0.00    +0.000 A 
ATOM     28  C   UNL     1      -2.048  11.474  19.400  0.00  0.00    +0.000 A 
ATOM     29 CL   UNL     1      -2.051  12.278  20.935  0.00  0.00    +0.000 Cl
ENDBRANCH   6  22
TORSDOF 2
ENDMDL
MODEL 3
REMARK VINA RESULT:      -8.4      2.738      3.291
REMARK  Name = 
REMARK  2 active torsions:
REMARK  status: ('A' for Active; 'I' for Inactive)
REMARK    1  A    between atoms: C_4  and  C_5
REMARK    2  A    between atoms: C_10  and  C_11
REMARK                            x       y       z     vdW  Elec       q    Type
REMARK                         _______ _______ _______ _____ _____    ______ ____
ROOT
ATOM      1  C   UNL     1       2.944   7.330  17.928  0.00  0.00    +0.000 C 
ATOM      2  O   UNL     1       3.131   8.370  17.295  0.00  0.00    +0.000 OA
ATOM      3  N   UNL     1       2.241   7.245  19.112  0.00  0.00    +0.000 N 
ATOM      4  C   UNL     1       1.644   8.353  19.636  0.00  0.00    +0.000 A 
ATOM      5  N   UNL     1       1.362   9.479  19.035  0.00  0.00    +0.000 NA
ATOM      6  C   UNL     1       0.893  10.388  19.959  0.00  0.00    +0.000 A 
ATOM      7  C   UNL     1       0.790   9.900  21.249  0.00  0.00    +0.000 A 
ATOM      8  S   UNL     1       1.242   8.246  21.285  0.00  0.00    +0.000 S 
ATOM      9  H   UNL     1       2.366   6.466  19.743  0.00  0.00    +0.000 HD
ENDROOT
BRANCH   1  13
ATOM     10  O   UNL     1       2.366   4.226  20.276  0.00  0.00    +0.000 OA
ATOM     11  C   UNL     1       3.187   4.615  19.472  0.00  0.00    +0.000 C 
ATOM     12  C   UNL     1       2.879   4.774  17.996  0.00  0.00    +0.000 C 
ATOM     13  C   UNL     1       3.563   6.011  17.421  0.00  0.00    +0.000 C 
ATOM     14  C   UNL     1       5.046   5.937  17.732  0.00  0.00    +0.000 A 
ATOM     15  C   UNL     1       6.004   6.468  16.865  0.00  0.00    +0.000 A 
ATOM     16  C   UNL     1       7.346   6.496  17.250  0.00  0.00    +0.000 A 
ATOM     17  C   UNL     1       7.731   6.012  18.502  0.00  0.00    +0.000 A 
ATOM     18  C   UNL     1       6.777   5.481  19.371  0.00  0.00    +0.000 A 
ATOM     19  C   UNL     1       5.446   5.422  18.970  0.00  0.00    +0.000 A 
ATOM     20  N   UNL     1       4.482   4.901  19.842  0.00  0.00    +0.000 N 
ATOM     21  H   UNL     1       4.729   4.674  20.797  0.00  0.00    +0.000 HD
ENDBRANCH   1  13
BRANCH   6  22
ATOM     22  C   UNL     1       0.504  11.727  19.536  0.00  0.00    +0.000 A 
ATOM     23  C   UNL     1       1.272  12.808  20.014  0.00  0.00    +0.000 A 
ATOM     24  C   UNL     1       0.961  14.118  19.653  0.00  0.00    +0.000 A 
ATOM     25  C   UNL     1      -0.124  14.354  18.822  0.00  0.00    +0.000 A 
ATOM     26  F   UNL     1      -0.428  15.611  18.478  0.00  0.00    +0.000 F 
ATOM     27  C   UNL     1      -0.904  13.309  18.346  0.00  0.00    +0.000 A 
ATOM     28  C   UNL     1      -0.594  11.994  18.699  0.00  0.00    +0.000 A 
ATOM     29 CL   UNL     1      -1.655  10.769  18.087  0.00  0.00    +0.000 Cl
ENDBRANCH   6  22
TORSDOF 2
ENDMDL
MODEL 4
REMARK VINA RESULT:      -8.3      2.941      3.569
REMARK  Name = 
REMARK  2 active torsions:
REMARK  status: ('A' for Active; 'I' for Inactive)
REMARK    1  A    between atoms: C_4  and  C_5
REMARK    2  A    between atoms: C_10  and  C_11
REMARK                            x       y       z     vdW  Elec       q    Type
REMARK                         _______ _______ _______ _____ _____    ______ ____
ROOT
ATOM      1  C   UNL     1       2.460   7.535  18.173  0.00  0.00    +0.000 C 
ATOM      2  O   UNL     1       2.656   8.534  17.480  0.00  0.00    +0.000 OA
ATOM      3  N   UNL     1       1.868   7.545  19.419  0.00  0.00    +0.000 N 
ATOM      4  C   UNL     1       1.399   8.712  19.947  0.00  0.00    +0.000 A 
ATOM      5  N   UNL     1       1.139   9.832  19.325  0.00  0.00    +0.000 NA
ATOM      6  C   UNL     1       0.822  10.806  20.247  0.00  0.00    +0.000 A 
ATOM      7  C   UNL     1       0.809  10.376  21.561  0.00  0.00    +0.000 A 
ATOM      8  S   UNL     1       1.148   8.696  21.628  0.00  0.00    +0.000 S 
ATOM      9  H   UNL     1       1.999   6.784  20.070  0.00  0.00    +0.000 HD
ENDROOT
BRANCH   1  13
ATOM     10  O   UNL     1       2.007   4.592  20.746  0.00  0.00    +0.000 OA
ATOM     11  C   UNL     1       2.742   4.889  19.828  0.00  0.00    +0.000 C 
ATOM     12  C   UNL     1       2.262   4.994  18.394  0.00  0.00    +0.000 C 
ATOM     13  C   UNL     1       2.937   6.157  17.671  0.00  0.00    +0.000 C 
ATOM     14  C   UNL     1       4.440   6.006  17.803  0.00  0.00    +0.000 A 
ATOM     15  C   UNL     1       5.311   6.434  16.797  0.00  0.00    +0.000 A 
ATOM     16  C   UNL     1       6.690   6.397  17.015  0.00  0.00    +0.000 A 
ATOM     17  C   UNL     1       7.200   5.953  18.236  0.00  0.00    +0.000 A 
ATOM     18  C   UNL     1       6.335   5.526  19.243  0.00  0.00    +0.000 A 
ATOM     19  C   UNL     1       4.962   5.529  19.011  0.00  0.00    +0.000 A 
ATOM     20  N   UNL     1       4.087   5.113  20.020  0.00  0.00    +0.000 N 
ATOM     21  H   UNL     1       4.438   4.918  20.951  0.00  0.00    +0.000 HD
ENDBRANCH   1  13
BRANCH   6  22
ATOM     22  C   UNL     1       0.487  12.153  19.803  0.00  0.00    +0.000 A 
ATOM     23  C   UNL     1      -0.680  12.740  20.333  0.00  0.00    +0.000 A 
ATOM     24  C   UNL     1      -1.066  14.025  19.956  0.00  0.00    +0.000 A 
ATOM     25  C   UNL     1      -0.294  14.725  19.040  0.00  0.00    +0.000 A 
ATOM     26  F   UNL     1      -0.665  15.957  18.673  0.00  0.00    +0.000 F 
ATOM     27  C   UNL     1       0.854  14.167  18.494  0.00  0.00    +0.000 A 
ATOM     28  C   UNL     1       1.249  12.882  18.873  0.00  0.00    +0.000 A 
ATOM     29 CL   UNL     1       2.671  12.262  18.101  0.00  0.00    +0.000 Cl
ENDBRANCH   6  22
TORSDOF 2
ENDMDL
MODEL 5
REMARK VINA RESULT:      -8.2      4.232      8.510
REMARK  Name = 
REMARK  2 active torsions:
REMARK  status: ('A' for Active; 'I' for Inactive)
REMARK    1  A    between atoms: C_4  and  C_5
REMARK    2  A    between atoms: C_10  and  C_11
REMARK                            x       y       z     vdW  Elec       q    Type
REMARK                         _______ _______ _______ _____ _____    ______ ____
ROOT
ATOM      1  C   UNL     1       1.369   9.063  19.569  0.00  0.00    +0.000 C 
ATOM      2  O   UNL     1       1.890   9.285  18.476  0.00  0.00    +0.000 OA
ATOM      3  N   UNL     1       1.522   7.897  20.292  0.00  0.00    +0.000 N 
ATOM      4  C   UNL     1       2.341   6.908  19.833  0.00  0.00    +0.000 A 
ATOM      5  N   UNL     1       3.279   6.992  18.927  0.00  0.00    +0.000 NA
ATOM      6  C   UNL     1       3.770   5.733  18.655  0.00  0.00    +0.000 A 
ATOM      7  C   UNL     1       3.209   4.719  19.410  0.00  0.00    +0.000 A 
ATOM      8  S   UNL     1       2.080   5.376  20.522  0.00  0.00    +0.000 S 
ATOM      9  H   UNL     1       0.859   7.630  21.006  0.00  0.00    +0.000 HD
ENDROOT
BRANCH   1  13
ATOM     10  O   UNL     1      -1.872   9.835  17.475  0.00  0.00    +0.000 OA
ATOM     11  C   UNL     1      -1.141  10.404  18.257  0.00  0.00    +0.000 C 
ATOM     12  C   UNL     1      -1.011   9.990  19.710  0.00  0.00    +0.000 C 
ATOM     13  C   UNL     1       0.432  10.117  20.192  0.00  0.00    +0.000 C 
ATOM     14  C   UNL     1       0.916  11.527  19.913  0.00  0.00    +0.000 A 
ATOM     15  C   UNL     1       1.837  12.165  20.748  0.00  0.00    +0.000 A 
ATOM     16  C   UNL     1       2.355  13.409  20.383  0.00  0.00    +0.000 A 
ATOM     17  C   UNL     1       1.973  14.009  19.182  0.00  0.00    +0.000 A 
ATOM     18  C   UNL     1       1.055  13.375  18.344  0.00  0.00    +0.000 A 
ATOM     19  C   UNL     1       0.512  12.152  18.727  0.00  0.00    +0.000 A 
ATOM     20  N   UNL     1      -0.401  11.505  17.887  0.00  0.00    +0.000 N 
ATOM     21  H   UNL     1      -0.581  11.865  16.957  0.00  0.00    +0.000 HD
ENDBRANCH   1  13
BRANCH   6  22
ATOM     22  C   UNL     1       4.834   5.558  17.675  0.00  0.00    +0.000 A 
ATOM     23  C   UNL     1       4.459   5.463  16.320  0.00  0.00    +0.000 A 
ATOM     24  C   UNL     1       5.420   5.295  15.325  0.00  0.00    +0.000 A 
ATOM     25  C   UNL     1       6.758   5.210  15.680  0.00  0.00    +0.000 A 
ATOM     26  F   UNL     1       7.683   5.043  14.727  0.00  0.00    +0.000 F 
ATOM     27  C   UNL     1       7.155   5.289  17.008  0.00  0.00    +0.000 A 
ATOM     28  C   UNL     1       6.196   5.464  18.009  0.00  0.00    +0.000 A 
ATOM     29 CL   UNL     1       6.791   5.507  19.636  0.00  0.00    +0.000 Cl
ENDBRANCH   6  22
TORSDOF 2
ENDMDL
MODEL 6
REMARK VINA RESULT:      -8.1      4.210      8.461
REMARK  Name = 
REMARK  2 active torsions:
REMARK  status: ('A' for Active; 'I' for Inactive)
REMARK    1  A    between atoms: C_4  and  C_5
REMARK    2  A    between atoms: C_10  and  C_11
REMARK                            x       y       z     vdW  Elec       q    Type
REMARK                         _______ _______ _______ _____ _____    ______ ____
ROOT
ATOM      1  C   UNL     1       1.180   9.176  19.612  0.00  0.00    +0.000 C 
ATOM      2  O   UNL     1       1.619   9.301  18.468  0.00  0.00    +0.000 OA
ATOM      3  N   UNL     1       1.374   8.069  20.412  0.00  0.00    +0.000 N 
ATOM      4  C   UNL     1       2.143   7.031  19.974  0.00  0.00    +0.000 A 
ATOM      5  N   UNL     1       3.010   7.026  18.995  0.00  0.00    +0.000 NA
ATOM      6  C   UNL     1       3.462   5.741  18.790  0.00  0.00    +0.000 A 
ATOM      7  C   UNL     1       2.949   4.800  19.664  0.00  0.00    +0.000 A 
ATOM      8  S   UNL     1       1.917   5.563  20.802  0.00  0.00    +0.000 S 
ATOM      9  H   UNL     1       0.765   7.871  21.194  0.00  0.00    +0.000 HD
ENDROOT
BRANCH   1  13
ATOM     10  O   UNL     1      -2.023  10.088  17.516  0.00  0.00    +0.000 OA
ATOM     11  C   UNL     1      -1.256  10.630  18.283  0.00  0.00    +0.000 C 
ATOM     12  C   UNL     1      -1.143  10.238  19.743  0.00  0.00    +0.000 C 
ATOM     13  C   UNL     1       0.307  10.293  20.217  0.00  0.00    +0.000 C 
ATOM     14  C   UNL     1       0.869  11.668  19.908  0.00  0.00    +0.000 A 
ATOM     15  C   UNL     1       1.828  12.270  20.726  0.00  0.00    +0.000 A 
ATOM     16  C   UNL     1       2.414  13.475  20.335  0.00  0.00    +0.000 A 
ATOM     17  C   UNL     1       2.060  14.071  19.123  0.00  0.00    +0.000 A 
ATOM     18  C   UNL     1       1.103  13.474  18.302  0.00  0.00    +0.000 A 
ATOM     19  C   UNL     1       0.494  12.291  18.712  0.00  0.00    +0.000 A 
ATOM     20  N   UNL     1      -0.458  11.680  17.888  0.00  0.00    +0.000 N 
ATOM     21  H   UNL     1      -0.621  12.031  16.951  0.00  0.00    +0.000 HD
ENDBRANCH   1  13
BRANCH   6  22
ATOM     22  C   UNL     1       4.445   5.468  17.750  0.00  0.00    +0.000 A 
ATOM     23  C   UNL     1       5.541   6.349  17.644  0.00  0.00    +0.000 A 
ATOM     24  C   UNL     1       6.522   6.153  16.674  0.00  0.00    +0.000 A 
ATOM     25  C   UNL     1       6.407   5.083  15.798  0.00  0.00    +0.000 A 
ATOM     26  F   UNL     1       7.346   4.896  14.862  0.00  0.00    +0.000 F 
ATOM     27  C   UNL     1       5.333   4.207  15.872  0.00  0.00    +0.000 A 
ATOM     28  C   UNL     1       4.351   4.395  16.847  0.00  0.00    +0.000 A 
ATOM     29 CL   UNL     1       3.032   3.271  16.825  0.00  0.00    +0.000 Cl
ENDBRANCH   6  22
TORSDOF 2
ENDMDL
MODEL 7
REMARK VINA RESULT:      -8.0      3.155      3.814
REMARK  Name = 
REMARK  2 active torsions:
REMARK  status: ('A' for Active; 'I' for Inactive)
REMARK    1  A    between atoms: C_4  and  C_5
REMARK    2  A    between atoms: C_10  and  C_11
REMARK                            x       y       z     vdW  Elec       q    Type
REMARK                         _______ _______ _______ _____ _____    ______ ____
ROOT
ATOM      1  C   UNL     1       2.301   7.798  18.138  0.00  0.00    +0.000 C 
ATOM      2  O   UNL     1       2.636   8.768  17.458  0.00  0.00    +0.000 OA
ATOM      3  N   UNL     1       1.647   7.873  19.351  0.00  0.00    +0.000 N 
ATOM      4  C   UNL     1       1.273   9.085  19.854  0.00  0.00    +0.000 A 
ATOM      5  N   UNL     1       1.163  10.223  19.220  0.00  0.00    +0.000 NA
ATOM      6  C   UNL     1       0.899  11.228  20.125  0.00  0.00    +0.000 A 
ATOM      7  C   UNL     1       0.770  10.807  21.436  0.00  0.00    +0.000 A 
ATOM      8  S   UNL     1       0.932   9.102  21.519  0.00  0.00    +0.000 S 
ATOM      9  H   UNL     1       1.664   7.106  20.007  0.00  0.00    +0.000 HD
ENDROOT
BRANCH   1  13
ATOM     10  O   UNL     1       1.656   4.955  20.781  0.00  0.00    +0.000 OA
ATOM     11  C   UNL     1       2.398   5.174  19.848  0.00  0.00    +0.000 C 
ATOM     12  C   UNL     1       1.907   5.286  18.418  0.00  0.00    +0.000 C 
ATOM     13  C   UNL     1       2.661   6.376  17.661  0.00  0.00    +0.000 C 
ATOM     14  C   UNL     1       4.150   6.109  17.776  0.00  0.00    +0.000 A 
ATOM     15  C   UNL     1       5.037   6.446  16.751  0.00  0.00    +0.000 A 
ATOM     16  C   UNL     1       6.411   6.305  16.952  0.00  0.00    +0.000 A 
ATOM     17  C   UNL     1       6.903   5.848  18.176  0.00  0.00    +0.000 A 
ATOM     18  C   UNL     1       6.021   5.511  19.203  0.00  0.00    +0.000 A 
ATOM     19  C   UNL     1       4.650   5.618  18.988  0.00  0.00    +0.000 A 
ATOM     20  N   UNL     1       3.759   5.294  20.018  0.00  0.00    +0.000 N 
ATOM     21  H   UNL     1       4.108   5.092  20.948  0.00  0.00    +0.000 HD
ENDBRANCH   1  13
BRANCH   6  22
ATOM     22  C   UNL     1       0.727  12.600  19.665  0.00  0.00    +0.000 A 
ATOM     23  C   UNL     1       1.888  13.315  19.306  0.00  0.00    +0.000 A 
ATOM     24  C   UNL     1       1.804  14.632  18.857  0.00  0.00    +0.000 A 
ATOM     25  C   UNL     1       0.562  15.243  18.774  0.00  0.00    +0.000 A 
ATOM     26  F   UNL     1       0.478  16.509  18.348  0.00  0.00    +0.000 F 
ATOM     27  C   UNL     1      -0.597  14.567  19.132  0.00  0.00    +0.000 A 
ATOM     28  C   UNL     1      -0.519  13.245  19.576  0.00  0.00    +0.000 A 
ATOM     29 CL   UNL     1      -2.017  12.506  20.037  0.00  0.00    +0.000 Cl
ENDBRANCH   6  22
TORSDOF 2
ENDMDL
MODEL 8
REMARK VINA RESULT:      -8.0      2.528      3.940
REMARK  Name = 
REMARK  2 active torsions:
REMARK  status: ('A' for Active; 'I' for Inactive)
REMARK    1  A    between atoms: C_4  and  C_5
REMARK    2  A    between atoms: C_10  and  C_11
REMARK                            x       y       z     vdW  Elec       q    Type
REMARK                         _______ _______ _______ _____ _____    ______ ____
ROOT
ATOM      1  C   UNL     1       2.204   6.742  20.319  0.00  0.00    +0.000 C 
ATOM      2  O   UNL     1       1.342   6.747  21.198  0.00  0.00    +0.000 OA
ATOM      3  N   UNL     1       2.375   7.737  19.378  0.00  0.00    +0.000 N 
ATOM      4  C   UNL     1       1.593   8.854  19.411  0.00  0.00    +0.000 A 
ATOM      5  N   UNL     1       0.867   9.303  20.401  0.00  0.00    +0.000 NA
ATOM      6  C   UNL     1       0.121  10.379  19.973  0.00  0.00    +0.000 A 
ATOM      7  C   UNL     1       0.340  10.748  18.659  0.00  0.00    +0.000 A 
ATOM      8  S   UNL     1       1.554   9.751  17.967  0.00  0.00    +0.000 S 
ATOM      9  H   UNL     1       2.868   7.564  18.513  0.00  0.00    +0.000 HD
ENDROOT
BRANCH   1  13
ATOM     10  O   UNL     1       4.256   6.594  16.964  0.00  0.00    +0.000 OA
ATOM     11  C   UNL     1       3.810   5.825  17.790  0.00  0.00    +0.000 C 
ATOM     12  C   UNL     1       4.305   5.780  19.222  0.00  0.00    +0.000 C 
ATOM     13  C   UNL     1       3.155   5.535  20.195  0.00  0.00    +0.000 C 
ATOM     14  C   UNL     1       2.412   4.283  19.765  0.00  0.00    +0.000 A 
ATOM     15  C   UNL     1       1.805   3.436  20.695  0.00  0.00    +0.000 A 
ATOM     16  C   UNL     1       1.021   2.370  20.250  0.00  0.00    +0.000 A 
ATOM     17  C   UNL     1       0.828   2.157  18.884  0.00  0.00    +0.000 A 
ATOM     18  C   UNL     1       1.432   3.002  17.952  0.00  0.00    +0.000 A 
ATOM     19  C   UNL     1       2.242   4.042  18.397  0.00  0.00    +0.000 A 
ATOM     20  N   UNL     1       2.841   4.900  17.468  0.00  0.00    +0.000 N 
ATOM     21  H   UNL     1       2.600   4.837  16.486  0.00  0.00    +0.000 HD
ENDBRANCH   1  13
BRANCH   6  22
ATOM     22  C   UNL     1      -0.774  11.063  20.897  0.00  0.00    +0.000 A 
ATOM     23  C   UNL     1      -1.600  12.077  20.370  0.00  0.00    +0.000 A 
ATOM     24  C   UNL     1      -2.482  12.776  21.192  0.00  0.00    +0.000 A 
ATOM     25  C   UNL     1      -2.535  12.473  22.545  0.00  0.00    +0.000 A 
ATOM     26  F   UNL     1      -3.378  13.147  23.337  0.00  0.00    +0.000 F 
ATOM     27  C   UNL     1      -1.725  11.488  23.092  0.00  0.00    +0.000 A 
ATOM     28  C   UNL     1      -0.844  10.780  22.272  0.00  0.00    +0.000 A 
ATOM     29 CL   UNL     1       0.152   9.602  23.061  0.00  0.00    +0.000 Cl
ENDBRANCH   6  22
TORSDOF 2
ENDMDL
MODEL 9
REMARK VINA RESULT:      -7.9      3.876      8.064
REMARK  Name = 
REMARK  2 active torsions:
REMARK  status: ('A' for Active; 'I' for Inactive)
REMARK    1  A    between atoms: C_4  and  C_5
REMARK    2  A    between atoms: C_10  and  C_11
REMARK                            x       y       z     vdW  Elec       q    Type
REMARK                         _______ _______ _______ _____ _____    ______ ____
ROOT
ATOM      1  C   UNL     1       1.275  10.023  18.646  0.00  0.00    +0.000 C 
ATOM      2  O   UNL     1       0.834   9.495  19.668  0.00  0.00    +0.000 OA
ATOM      3  N   UNL     1       2.163   9.428  17.774  0.00  0.00    +0.000 N 
ATOM      4  C   UNL     1       2.574   8.145  17.982  0.00  0.00    +0.000 A 
ATOM      5  N   UNL     1       2.024   7.233  18.740  0.00  0.00    +0.000 NA
ATOM      6  C   UNL     1       2.833   6.119  18.782  0.00  0.00    +0.000 A 
ATOM      7  C   UNL     1       3.973   6.204  18.004  0.00  0.00    +0.000 A 
ATOM      8  S   UNL     1       3.995   7.698  17.161  0.00  0.00    +0.000 S 
ATOM      9  H   UNL     1       2.726   9.978  17.140  0.00  0.00    +0.000 HD
ENDROOT
BRANCH   1  13
ATOM     10  O   UNL     1       2.377  12.720  21.291  0.00  0.00    +0.000 OA
ATOM     11  C   UNL     1       1.493  12.556  20.477  0.00  0.00    +0.000 C 
ATOM     12  C   UNL     1       1.750  12.514  18.984  0.00  0.00    +0.000 C 
ATOM     13  C   UNL     1       0.868  11.470  18.303  0.00  0.00    +0.000 C 
ATOM     14  C   UNL     1      -0.579  11.743  18.666  0.00  0.00    +0.000 A 
ATOM     15  C   UNL     1      -1.623  11.467  17.779  0.00  0.00    +0.000 A 
ATOM     16  C   UNL     1      -2.945  11.609  18.201  0.00  0.00    +0.000 A 
ATOM     17  C   UNL     1      -3.230  12.007  19.509  0.00  0.00    +0.000 A 
ATOM     18  C   UNL     1      -2.192  12.283  20.398  0.00  0.00    +0.000 A 
ATOM     19  C   UNL     1      -0.874  12.175  19.964  0.00  0.00    +0.000 A 
ATOM     20  N   UNL     1       0.173  12.439  20.855  0.00  0.00    +0.000 N 
ATOM     21  H   UNL     1      -0.020  12.596  21.837  0.00  0.00    +0.000 HD
ENDBRANCH   1  13
BRANCH   6  22
ATOM     22  C   UNL     1       2.437   4.955  19.562  0.00  0.00    +0.000 A 
ATOM     23  C   UNL     1       2.450   5.079  20.967  0.00  0.00    +0.000 A 
ATOM     24  C   UNL     1       2.084   4.008  21.780  0.00  0.00    +0.000 A 
ATOM     25  C   UNL     1       1.713   2.806  21.195  0.00  0.00    +0.000 A 
ATOM     26  F   UNL     1       1.365   1.775  21.974  0.00  0.00    +0.000 F 
ATOM     27  C   UNL     1       1.701   2.653  19.815  0.00  0.00    +0.000 A 
ATOM     28  C   UNL     1       2.061   3.724  18.995  0.00  0.00    +0.000 A 
ATOM     29 CL   UNL     1       2.055   3.415  17.290  0.00  0.00    +0.000 Cl
ENDBRANCH   6  22
TORSDOF 2
ENDMDL
