MODEL 1
REMARK VINA RESULT:      -8.3      0.000      0.000
REMARK  Name = 
REMARK  5 active torsions:
REMARK  status: ('A' for Active; 'I' for Inactive)
REMARK    1  A    between atoms: C_2  and  C_16
REMARK    2  A    between atoms: N_3  and  C_4
REMARK    3  A    between atoms: C_9  and  C_10
REMARK    4  A    between atoms: N_12  and  C_13
REMARK    5  A    between atoms: C_19  and  C_20
REMARK                            x       y       z     vdW  Elec       q    Type
REMARK                         _______ _______ _______ _____ _____    ______ ____
ROOT
ATOM      1  O   UNL     1       3.906   5.862  19.846  0.00  0.00    +0.000 OA
ATOM      2  C   UNL     1       3.136   6.514  19.145  0.00  0.00    +0.000 C 
ATOM      3  N   UNL     1       3.176   6.471  17.758  0.00  0.00    +0.000 N 
ATOM      4  H   UNL     1       2.783   7.264  17.261  0.00  0.00    +0.000 HD
ENDROOT
BRANCH   3   5
ATOM      5  C   UNL     1       4.098   5.623  17.081  0.00  0.00    +0.000 A 
ATOM      6  C   UNL     1       5.157   6.212  16.367  0.00  0.00    +0.000 A 
ATOM      7  C   UNL     1       6.112   5.428  15.708  0.00  0.00    +0.000 A 
ATOM      8  C   UNL     1       6.023   4.044  15.750  0.00  0.00    +0.000 A 
ATOM      9  C   UNL     1       4.976   3.441  16.451  0.00  0.00    +0.000 A 
ATOM     10  C   UNL     1       4.008   4.221  17.119  0.00  0.00    +0.000 A 
BRANCH  10  11
ATOM     11  C   UNL     1       2.880   3.463  17.730  0.00  0.00    +0.000 C 
ATOM     12  O   UNL     1       1.870   3.235  17.072  0.00  0.00    +0.000 OA
ATOM     13  N   UNL     1       3.016   3.118  19.065  0.00  0.00    +0.000 N 
ATOM     14  H   UNL     1       3.757   3.565  19.592  0.00  0.00    +0.000 HD
BRANCH  13  15
ATOM     15  C   UNL     1       1.926   2.554  19.803  0.00  0.00    +0.000 C 
ATOM     16  C   UNL     1       0.943   3.443  20.514  0.00  0.00    +0.000 C 
ATOM     17  C   UNL     1       1.898   2.600  21.306  0.00  0.00    +0.000 C 
ENDBRANCH  13  15
ENDBRANCH  10  11
ENDBRANCH   3   5
BRANCH   2  18
ATOM     18  C   UNL     1       2.214   7.461  19.747  0.00  0.00    +0.000 A 
ATOM     19  C   UNL     1       1.458   7.290  20.892  0.00  0.00    +0.000 A 
ATOM     20  C   UNL     1       0.670   8.444  21.040  0.00  0.00    +0.000 A 
ATOM     21  C   UNL     1       0.986   9.280  19.988  0.00  0.00    +0.000 A 
ATOM     22  O   UNL     1       1.954   8.697  19.204  0.00  0.00    +0.000 OA
BRANCH  21  23
ATOM     23  C   UNL     1       0.487  10.599  19.604  0.00  0.00    +0.000 A 
ATOM     24  C   UNL     1      -0.630  10.748  18.770  0.00  0.00    +0.000 A 
ATOM     25  C   UNL     1      -1.043  12.021  18.357  0.00  0.00    +0.000 A 
ATOM     26  C   UNL     1      -0.350  13.146  18.785  0.00  0.00    +0.000 A 
ATOM     27  F   UNL     1      -0.738  14.360  18.376  0.00  0.00    +0.000 F 
ATOM     28  C   UNL     1       0.752  13.030  19.623  0.00  0.00    +0.000 A 
ATOM     29  C   UNL     1       1.168  11.756  20.031  0.00  0.00    +0.000 A 
ENDBRANCH  21  23
ENDBRANCH   2  18
TORSDOF 5
ENDMDL
MODEL 2
REMARK VINA RESULT:      -8.2      1.941      2.373
REMARK  Name = 
REMARK  5 active torsions:
REMARK  status: ('A' for Active; 'I' for Inactive)
REMARK    1  A    between atoms: C_2  and  C_16
REMARK    2  A    between atoms: N_3  and  C_4
REMARK    3  A    between atoms: C_9  and  C_10
REMARK    4  A    between atoms: N_12  and  C_13
REMARK    5  A    between atoms: C_19  and  C_20
REMARK                            x       y       z     vdW  Elec       q    Type
REMARK                         _______ _______ _______ _____ _____    ______ ____
ROOT
ATOM      1  O   UNL     1       3.507   6.655  19.501  0.00  0.00    +0.000 OA
ATOM      2  C   UNL     1       3.014   7.200  18.517  0.00  0.00    +0.000 C 
ATOM      3  N   UNL     1       3.439   6.926  17.225  0.00  0.00    +0.000 N 
ATOM      4  H   UNL     1       3.260   7.635  16.520  0.00  0.00    +0.000 HD
ENDROOT
BRANCH   3   5
ATOM      5  C   UNL     1       4.450   5.954  16.980  0.00  0.00    +0.000 A 
ATOM      6  C   UNL     1       5.679   6.379  16.446  0.00  0.00    +0.000 A 
ATOM      7  C   UNL     1       6.722   5.472  16.215  0.00  0.00    +0.000 A 
ATOM      8  C   UNL     1       6.552   4.128  16.511  0.00  0.00    +0.000 A 
ATOM      9  C   UNL     1       5.335   3.686  17.037  0.00  0.00    +0.000 A 
ATOM     10  C   UNL     1       4.278   4.590  17.276  0.00  0.00    +0.000 A 
BRANCH  10  11
ATOM     11  C   UNL     1       2.997   3.978  17.729  0.00  0.00    +0.000 C 
ATOM     12  O   UNL     1       2.045   3.916  16.959  0.00  0.00    +0.000 OA
ATOM     13  N   UNL     1       2.938   3.574  19.053  0.00  0.00    +0.000 N 
ATOM     14  H   UNL     1       3.671   3.896  19.675  0.00  0.00    +0.000 HD
BRANCH  13  15
ATOM     15  C   UNL     1       1.707   3.145  19.646  0.00  0.00    +0.000 C 
ATOM     16  C   UNL     1       0.838   4.119  20.393  0.00  0.00    +0.000 C 
ATOM     17  C   UNL     1       1.559   3.035  21.138  0.00  0.00    +0.000 C 
ENDBRANCH  13  15
ENDBRANCH  10  11
ENDBRANCH   3   5
BRANCH   2  18
ATOM     18  C   UNL     1       2.031   8.258  18.675  0.00  0.00    +0.000 A 
ATOM     19  C   UNL     1       1.542   9.106  17.697  0.00  0.00    +0.000 A 
ATOM     20  C   UNL     1       0.668  10.005  18.334  0.00  0.00    +0.000 A 
ATOM     21  C   UNL     1       0.648   9.662  19.671  0.00  0.00    +0.000 A 
ATOM     22  O   UNL     1       1.460   8.573  19.885  0.00  0.00    +0.000 OA
BRANCH  21  23
ATOM     23  C   UNL     1      -0.055  10.236  20.815  0.00  0.00    +0.000 A 
ATOM     24  C   UNL     1      -0.031   9.622  22.076  0.00  0.00    +0.000 A 
ATOM     25  C   UNL     1      -0.774  10.153  23.138  0.00  0.00    +0.000 A 
ATOM     26  C   UNL     1      -1.530  11.302  22.948  0.00  0.00    +0.000 A 
ATOM     27  F   UNL     1      -2.250  11.797  23.962  0.00  0.00    +0.000 F 
ATOM     28  C   UNL     1      -1.561  11.941  21.715  0.00  0.00    +0.000 A 
ATOM     29  C   UNL     1      -0.823  11.406  20.651  0.00  0.00    +0.000 A 
ENDBRANCH  21  23
ENDBRANCH   2  18
TORSDOF 5
ENDMDL
MODEL 3
REMARK VINA RESULT:      -8.2      1.570      1.866
REMARK  Name = 
REMARK  5 active torsions:
REMARK  status: ('A' for Active; 'I' for Inactive)
REMARK    1  A    between atoms: C_2  and  C_16
REMARK    2  A    between atoms: N_3  and  C_4
REMARK    3  A    between atoms: C_9  and  C_10
REMARK    4  A    between atoms: N_12  and  C_13
REMARK    5  A    between atoms: C_19  and  C_20
REMARK                            x       y       z     vdW  Elec       q    Type
REMARK                         _______ _______ _______ _____ _____    ______ ____
ROOT
ATOM      1  O   UNL     1       2.467   8.336  17.289  0.00  0.00    +0.000 OA
ATOM      2  C   UNL     1       2.513   7.804  18.394  0.00  0.00    +0.000 C 
ATOM      3  N   UNL     1       3.206   6.622  18.622  0.00  0.00    +0.000 N 
ATOM      4  H   UNL     1       2.920   6.067  19.423  0.00  0.00    +0.000 HD
ENDROOT
BRANCH   3   5
ATOM      5  C   UNL     1       3.937   5.992  17.576  0.00  0.00    +0.000 A 
ATOM      6  C   UNL     1       4.826   6.769  16.812  0.00  0.00    +0.000 A 
ATOM      7  C   UNL     1       5.596   6.198  15.792  0.00  0.00    +0.000 A 
ATOM      8  C   UNL     1       5.490   4.842  15.517  0.00  0.00    +0.000 A 
ATOM      9  C   UNL     1       4.609   4.055  16.262  0.00  0.00    +0.000 A 
ATOM     10  C   UNL     1       3.828   4.619  17.293  0.00  0.00    +0.000 A 
BRANCH  10  11
ATOM     11  C   UNL     1       2.846   3.700  17.935  0.00  0.00    +0.000 C 
ATOM     12  O   UNL     1       1.851   3.342  17.314  0.00  0.00    +0.000 OA
ATOM     13  N   UNL     1       3.087   3.359  19.255  0.00  0.00    +0.000 N 
ATOM     14  H   UNL     1       3.780   3.899  19.760  0.00  0.00    +0.000 HD
BRANCH  13  15
ATOM     15  C   UNL     1       2.121   2.635  20.026  0.00  0.00    +0.000 C 
ATOM     16  C   UNL     1       1.072   3.367  20.817  0.00  0.00    +0.000 C 
ATOM     17  C   UNL     1       2.169   2.633  21.529  0.00  0.00    +0.000 C 
ENDBRANCH  13  15
ENDBRANCH  10  11
ENDBRANCH   3   5
BRANCH   2  18
ATOM     18  C   UNL     1       1.736   8.333  19.502  0.00  0.00    +0.000 A 
ATOM     19  C   UNL     1       1.583   7.784  20.762  0.00  0.00    +0.000 A 
ATOM     20  C   UNL     1       0.689   8.612  21.464  0.00  0.00    +0.000 A 
ATOM     21  C   UNL     1       0.343   9.639  20.610  0.00  0.00    +0.000 A 
ATOM     22  O   UNL     1       1.004   9.492  19.412  0.00  0.00    +0.000 OA
BRANCH  21  23
ATOM     23  C   UNL     1      -0.553  10.782  20.770  0.00  0.00    +0.000 A 
ATOM     24  C   UNL     1      -0.783  11.366  22.024  0.00  0.00    +0.000 A 
ATOM     25  C   UNL     1      -1.702  12.413  22.161  0.00  0.00    +0.000 A 
ATOM     26  C   UNL     1      -2.384  12.887  21.048  0.00  0.00    +0.000 A 
ATOM     27  F   UNL     1      -3.273  13.877  21.186  0.00  0.00    +0.000 F 
ATOM     28  C   UNL     1      -2.166  12.338  19.790  0.00  0.00    +0.000 A 
ATOM     29  C   UNL     1      -1.250  11.287  19.654  0.00  0.00    +0.000 A 
ENDBRANCH  21  23
ENDBRANCH   2  18
TORSDOF 5
ENDMDL
MODEL 4
REMARK VINA RESULT:      -8.2      1.725      1.873
REMARK  Name = 
REMARK  5 active torsions:
REMARK  status: ('A' for Active; 'I' for Inactive)
REMARK    1  A    between atoms: C_2  and  C_16
REMARK    2  A    between atoms: N_3  and  C_4
REMARK    3  A    between atoms: C_9  and  C_10
REMARK    4  A    between atoms: N_12  and  C_13
REMARK    5  A    between atoms: C_19  and  C_20
REMARK                            x       y       z     vdW  Elec       q    Type
REMARK                         _______ _______ _______ _____ _____    ______ ____
ROOT
ATOM      1  O   UNL     1       2.122   8.159  17.469  0.00  0.00    +0.000 OA
ATOM      2  C   UNL     1       2.376   7.731  18.592  0.00  0.00    +0.000 C 
ATOM      3  N   UNL     1       3.255   6.678  18.805  0.00  0.00    +0.000 N 
ATOM      4  H   UNL     1       3.150   6.157  19.671  0.00  0.00    +0.000 HD
ENDROOT
BRANCH   3   5
ATOM      5  C   UNL     1       3.942   6.069  17.717  0.00  0.00    +0.000 A 
ATOM      6  C   UNL     1       4.843   6.847  16.968  0.00  0.00    +0.000 A 
ATOM      7  C   UNL     1       5.570   6.294  15.906  0.00  0.00    +0.000 A 
ATOM      8  C   UNL     1       5.408   4.957  15.575  0.00  0.00    +0.000 A 
ATOM      9  C   UNL     1       4.513   4.169  16.304  0.00  0.00    +0.000 A 
ATOM     10  C   UNL     1       3.776   4.715  17.376  0.00  0.00    +0.000 A 
BRANCH  10  11
ATOM     11  C   UNL     1       2.773   3.805  17.998  0.00  0.00    +0.000 C 
ATOM     12  O   UNL     1       1.736   3.538  17.398  0.00  0.00    +0.000 OA
ATOM     13  N   UNL     1       3.049   3.363  19.281  0.00  0.00    +0.000 N 
ATOM     14  H   UNL     1       3.789   3.833  19.790  0.00  0.00    +0.000 HD
BRANCH  13  15
ATOM     15  C   UNL     1       2.077   2.638  20.044  0.00  0.00    +0.000 C 
ATOM     16  C   UNL     1       1.037   3.368  20.848  0.00  0.00    +0.000 C 
ATOM     17  C   UNL     1       2.129   2.614  21.547  0.00  0.00    +0.000 C 
ENDBRANCH  13  15
ENDBRANCH  10  11
ENDBRANCH   3   5
BRANCH   2  18
ATOM     18  C   UNL     1       1.668   8.239  19.754  0.00  0.00    +0.000 A 
ATOM     19  C   UNL     1       1.540   7.638  20.993  0.00  0.00    +0.000 A 
ATOM     20  C   UNL     1       0.712   8.468  21.768  0.00  0.00    +0.000 A 
ATOM     21  C   UNL     1       0.378   9.549  20.977  0.00  0.00    +0.000 A 
ATOM     22  O   UNL     1       0.984   9.431  19.748  0.00  0.00    +0.000 OA
BRANCH  21  23
ATOM     23  C   UNL     1      -0.459  10.720  21.227  0.00  0.00    +0.000 A 
ATOM     24  C   UNL     1      -0.911  11.537  20.180  0.00  0.00    +0.000 A 
ATOM     25  C   UNL     1      -1.651  12.694  20.452  0.00  0.00    +0.000 A 
ATOM     26  C   UNL     1      -1.951  13.032  21.765  0.00  0.00    +0.000 A 
ATOM     27  F   UNL     1      -2.645  14.147  22.021  0.00  0.00    +0.000 F 
ATOM     28  C   UNL     1      -1.530  12.234  22.821  0.00  0.00    +0.000 A 
ATOM     29  C   UNL     1      -0.785  11.079  22.549  0.00  0.00    +0.000 A 
ENDBRANCH  21  23
ENDBRANCH   2  18
TORSDOF 5
ENDMDL
MODEL 5
REMARK VINA RESULT:      -8.1      2.186      3.798
REMARK  Name = 
REMARK  5 active torsions:
REMARK  status: ('A' for Active; 'I' for Inactive)
REMARK    1  A    between atoms: C_2  and  C_16
REMARK    2  A    between atoms: N_3  and  C_4
REMARK    3  A    between atoms: C_9  and  C_10
REMARK    4  A    between atoms: N_12  and  C_13
REMARK    5  A    between atoms: C_19  and  C_20
REMARK                            x       y       z     vdW  Elec       q    Type
REMARK                         _______ _______ _______ _____ _____    ______ ____
ROOT
ATOM      1  O   UNL     1       2.768   6.335  20.120  0.00  0.00    +0.000 OA
ATOM      2  C   UNL     1       2.261   6.783  19.095  0.00  0.00    +0.000 C 
ATOM      3  N   UNL     1       2.141   6.031  17.935  0.00  0.00    +0.000 N 
ATOM      4  H   UNL     1       2.054   6.541  17.061  0.00  0.00    +0.000 HD
ENDROOT
BRANCH   3   5
ATOM      5  C   UNL     1       2.569   4.674  17.898  0.00  0.00    +0.000 A 
ATOM      6  C   UNL     1       1.668   3.671  18.300  0.00  0.00    +0.000 A 
ATOM      7  C   UNL     1       2.023   2.317  18.255  0.00  0.00    +0.000 A 
ATOM      8  C   UNL     1       3.282   1.943  17.809  0.00  0.00    +0.000 A 
ATOM      9  C   UNL     1       4.192   2.925  17.410  0.00  0.00    +0.000 A 
ATOM     10  C   UNL     1       3.846   4.292  17.450  0.00  0.00    +0.000 A 
BRANCH  10  11
ATOM     11  C   UNL     1       4.941   5.245  17.110  0.00  0.00    +0.000 C 
ATOM     12  O   UNL     1       4.833   5.972  16.128  0.00  0.00    +0.000 OA
ATOM     13  N   UNL     1       6.075   5.193  17.903  0.00  0.00    +0.000 N 
ATOM     14  H   UNL     1       6.181   4.396  18.520  0.00  0.00    +0.000 HD
BRANCH  13  15
ATOM     15  C   UNL     1       7.257   5.927  17.561  0.00  0.00    +0.000 C 
ATOM     16  C   UNL     1       8.024   6.675  18.616  0.00  0.00    +0.000 C 
ATOM     17  C   UNL     1       7.267   7.430  17.565  0.00  0.00    +0.000 C 
ENDBRANCH  13  15
ENDBRANCH  10  11
ENDBRANCH   3   5
BRANCH   2  18
ATOM     18  C   UNL     1       1.865   8.179  19.017  0.00  0.00    +0.000 A 
ATOM     19  C   UNL     1       2.001   9.034  17.938  0.00  0.00    +0.000 A 
ATOM     20  C   UNL     1       1.543  10.296  18.355  0.00  0.00    +0.000 A 
ATOM     21  C   UNL     1       1.134  10.159  19.665  0.00  0.00    +0.000 A 
ATOM     22  O   UNL     1       1.301   8.855  20.072  0.00  0.00    +0.000 OA
BRANCH  21  23
ATOM     23  C   UNL     1       0.585  11.116  20.623  0.00  0.00    +0.000 A 
ATOM     24  C   UNL     1      -0.341  10.729  21.602  0.00  0.00    +0.000 A 
ATOM     25  C   UNL     1      -0.907  11.680  22.460  0.00  0.00    +0.000 A 
ATOM     26  C   UNL     1      -0.542  13.016  22.350  0.00  0.00    +0.000 A 
ATOM     27  F   UNL     1      -1.096  13.924  23.162  0.00  0.00    +0.000 F 
ATOM     28  C   UNL     1       0.384  13.427  21.400  0.00  0.00    +0.000 A 
ATOM     29  C   UNL     1       0.946  12.476  20.538  0.00  0.00    +0.000 A 
ENDBRANCH  21  23
ENDBRANCH   2  18
TORSDOF 5
ENDMDL
MODEL 6
REMARK VINA RESULT:      -8.1      2.028      2.357
REMARK  Name = 
REMARK  5 active torsions:
REMARK  status: ('A' for Active; 'I' for Inactive)
REMARK    1  A    between atoms: C_2  and  C_16
REMARK    2  A    between atoms: N_3  and  C_4
REMARK    3  A    between atoms: C_9  and  C_10
REMARK    4  A    between atoms: N_12  and  C_13
REMARK    5  A    between atoms: C_19  and  C_20
REMARK                            x       y       z     vdW  Elec       q    Type
REMARK                         _______ _______ _______ _____ _____    ______ ____
ROOT
ATOM      1  O   UNL     1       3.348   6.720  19.705  0.00  0.00    +0.000 OA
ATOM      2  C   UNL     1       2.989   7.313  18.692  0.00  0.00    +0.000 C 
ATOM      3  N   UNL     1       3.626   7.149  17.470  0.00  0.00    +0.000 N 
ATOM      4  H   UNL     1       3.524   7.899  16.792  0.00  0.00    +0.000 HD
ENDROOT
BRANCH   3   5
ATOM      5  C   UNL     1       4.711   6.239  17.329  0.00  0.00    +0.000 A 
ATOM      6  C   UNL     1       5.968   6.741  16.950  0.00  0.00    +0.000 A 
ATOM      7  C   UNL     1       7.080   5.898  16.827  0.00  0.00    +0.000 A 
ATOM      8  C   UNL     1       6.953   4.540  17.079  0.00  0.00    +0.000 A 
ATOM      9  C   UNL     1       5.710   4.021  17.453  0.00  0.00    +0.000 A 
ATOM     10  C   UNL     1       4.584   4.861  17.580  0.00  0.00    +0.000 A 
BRANCH  10  11
ATOM     11  C   UNL     1       3.295   4.171  17.870  0.00  0.00    +0.000 C 
ATOM     12  O   UNL     1       2.432   4.100  17.002  0.00  0.00    +0.000 OA
ATOM     13  N   UNL     1       3.119   3.705  19.163  0.00  0.00    +0.000 N 
ATOM     14  H   UNL     1       3.766   4.031  19.871  0.00  0.00    +0.000 HD
BRANCH  13  15
ATOM     15  C   UNL     1       1.857   3.193  19.604  0.00  0.00    +0.000 C 
ATOM     16  C   UNL     1       0.903   4.068  20.371  0.00  0.00    +0.000 C 
ATOM     17  C   UNL     1       1.591   2.928  21.060  0.00  0.00    +0.000 C 
ENDBRANCH  13  15
ENDBRANCH  10  11
ENDBRANCH   3   5
BRANCH   2  18
ATOM     18  C   UNL     1       1.940   8.317  18.756  0.00  0.00    +0.000 A 
ATOM     19  C   UNL     1       1.418   9.057  17.712  0.00  0.00    +0.000 A 
ATOM     20  C   UNL     1       0.479   9.944  18.268  0.00  0.00    +0.000 A 
ATOM     21  C   UNL     1       0.456   9.701  19.626  0.00  0.00    +0.000 A 
ATOM     22  O   UNL     1       1.329   8.683  19.932  0.00  0.00    +0.000 OA
BRANCH  21  23
ATOM     23  C   UNL     1      -0.301  10.313  20.715  0.00  0.00    +0.000 A 
ATOM     24  C   UNL     1      -1.042  11.489  20.525  0.00  0.00    +0.000 A 
ATOM     25  C   UNL     1      -1.699  12.095  21.603  0.00  0.00    +0.000 A 
ATOM     26  C   UNL     1      -1.628  11.524  22.868  0.00  0.00    +0.000 A 
ATOM     27  F   UNL     1      -2.245  12.115  23.898  0.00  0.00    +0.000 F 
ATOM     28  C   UNL     1      -0.915  10.352  23.082  0.00  0.00    +0.000 A 
ATOM     29  C   UNL     1      -0.253   9.749  22.005  0.00  0.00    +0.000 A 
ENDBRANCH  21  23
ENDBRANCH   2  18
TORSDOF 5
ENDMDL
MODEL 7
REMARK VINA RESULT:      -8.1      1.126      1.312
REMARK  Name = 
REMARK  5 active torsions:
REMARK  status: ('A' for Active; 'I' for Inactive)
REMARK    1  A    between atoms: C_2  and  C_16
REMARK    2  A    between atoms: N_3  and  C_4
REMARK    3  A    between atoms: C_9  and  C_10
REMARK    4  A    between atoms: N_12  and  C_13
REMARK    5  A    between atoms: C_19  and  C_20
REMARK                            x       y       z     vdW  Elec       q    Type
REMARK                         _______ _______ _______ _____ _____    ______ ____
ROOT
ATOM      1  O   UNL     1       1.901   5.830  17.698  0.00  0.00    +0.000 OA
ATOM      2  C   UNL     1       2.611   6.635  18.295  0.00  0.00    +0.000 C 
ATOM      3  N   UNL     1       3.989   6.670  18.138  0.00  0.00    +0.000 N 
ATOM      4  H   UNL     1       4.529   7.087  18.891  0.00  0.00    +0.000 HD
ENDROOT
BRANCH   3   5
ATOM      5  C   UNL     1       4.643   5.789  17.231  0.00  0.00    +0.000 A 
ATOM      6  C   UNL     1       5.011   6.276  15.964  0.00  0.00    +0.000 A 
ATOM      7  C   UNL     1       5.685   5.465  15.043  0.00  0.00    +0.000 A 
ATOM      8  C   UNL     1       6.000   4.154  15.371  0.00  0.00    +0.000 A 
ATOM      9  C   UNL     1       5.638   3.651  16.623  0.00  0.00    +0.000 A 
ATOM     10  C   UNL     1       4.959   4.459  17.560  0.00  0.00    +0.000 A 
BRANCH  10  11
ATOM     11  C   UNL     1       4.527   3.772  18.810  0.00  0.00    +0.000 C 
ATOM     12  O   UNL     1       5.364   3.432  19.639  0.00  0.00    +0.000 OA
ATOM     13  N   UNL     1       3.177   3.487  18.925  0.00  0.00    +0.000 N 
ATOM     14  H   UNL     1       2.607   3.570  18.091  0.00  0.00    +0.000 HD
BRANCH  13  15
ATOM     15  C   UNL     1       2.676   2.672  19.991  0.00  0.00    +0.000 C 
ATOM     16  C   UNL     1       1.234   2.762  20.409  0.00  0.00    +0.000 C 
ATOM     17  C   UNL     1       2.311   3.269  21.321  0.00  0.00    +0.000 C 
ENDBRANCH  13  15
ENDBRANCH  10  11
ENDBRANCH   3   5
BRANCH   2  18
ATOM     18  C   UNL     1       2.041   7.520  19.296  0.00  0.00    +0.000 A 
ATOM     19  C   UNL     1       1.878   7.271  20.646  0.00  0.00    +0.000 A 
ATOM     20  C   UNL     1       1.222   8.388  21.193  0.00  0.00    +0.000 A 
ATOM     21  C   UNL     1       1.023   9.280  20.159  0.00  0.00    +0.000 A 
ATOM     22  O   UNL     1       1.548   8.767  18.995  0.00  0.00    +0.000 OA
BRANCH  21  23
ATOM     23  C   UNL     1       0.387  10.594  20.111  0.00  0.00    +0.000 A 
ATOM     24  C   UNL     1      -0.842  10.793  19.464  0.00  0.00    +0.000 A 
ATOM     25  C   UNL     1      -1.394  12.076  19.369  0.00  0.00    +0.000 A 
ATOM     26  C   UNL     1      -0.729  13.160  19.927  0.00  0.00    +0.000 A 
ATOM     27  F   UNL     1      -1.253  14.386  19.821  0.00  0.00    +0.000 F 
ATOM     28  C   UNL     1       0.482  12.991  20.587  0.00  0.00    +0.000 A 
ATOM     29  C   UNL     1       1.037  11.708  20.677  0.00  0.00    +0.000 A 
ENDBRANCH  21  23
ENDBRANCH   2  18
TORSDOF 5
ENDMDL
MODEL 8
REMARK VINA RESULT:      -8.0      3.513      8.383
REMARK  Name = 
REMARK  5 active torsions:
REMARK  status: ('A' for Active; 'I' for Inactive)
REMARK    1  A    between atoms: C_2  and  C_16
REMARK    2  A    between atoms: N_3  and  C_4
REMARK    3  A    between atoms: C_9  and  C_10
REMARK    4  A    between atoms: N_12  and  C_13
REMARK    5  A    between atoms: C_19  and  C_20
REMARK                            x       y       z     vdW  Elec       q    Type
REMARK                         _______ _______ _______ _____ _____    ______ ____
ROOT
ATOM      1  O   UNL     1       0.931  10.746  21.358  0.00  0.00    +0.000 OA
ATOM      2  C   UNL     1       1.274  10.249  20.288  0.00  0.00    +0.000 C 
ATOM      3  N   UNL     1       1.346  10.987  19.115  0.00  0.00    +0.000 N 
ATOM      4  H   UNL     1       1.284  10.472  18.242  0.00  0.00    +0.000 HD
ENDROOT
BRANCH   3   5
ATOM      5  C   UNL     1       1.063  12.382  19.112  0.00  0.00    +0.000 A 
ATOM      6  C   UNL     1       2.088  13.280  19.460  0.00  0.00    +0.000 A 
ATOM      7  C   UNL     1       1.877  14.664  19.444  0.00  0.00    +0.000 A 
ATOM      8  C   UNL     1       0.639  15.174  19.081  0.00  0.00    +0.000 A 
ATOM      9  C   UNL     1      -0.394  14.298  18.737  0.00  0.00    +0.000 A 
ATOM     10  C   UNL     1      -0.192  12.901  18.749  0.00  0.00    +0.000 A 
BRANCH  10  11
ATOM     11  C   UNL     1      -1.401  12.073  18.475  0.00  0.00    +0.000 C 
ATOM     12  O   UNL     1      -1.896  11.401  19.373  0.00  0.00    +0.000 OA
ATOM     13  N   UNL     1      -1.858  12.058  17.168  0.00  0.00    +0.000 N 
ATOM     14  H   UNL     1      -1.245  12.431  16.452  0.00  0.00    +0.000 HD
BRANCH  13  15
ATOM     15  C   UNL     1      -2.894  11.161  16.751  0.00  0.00    +0.000 C 
ATOM     16  C   UNL     1      -2.552   9.811  16.183  0.00  0.00    +0.000 C 
ATOM     17  C   UNL     1      -3.133  10.871  15.296  0.00  0.00    +0.000 C 
ENDBRANCH  13  15
ENDBRANCH  10  11
ENDBRANCH   3   5
BRANCH   2  18
ATOM     18  C   UNL     1       1.509   8.820  20.180  0.00  0.00    +0.000 A 
ATOM     19  C   UNL     1       1.099   7.830  21.055  0.00  0.00    +0.000 A 
ATOM     20  C   UNL     1       1.617   6.616  20.573  0.00  0.00    +0.000 A 
ATOM     21  C   UNL     1       2.312   6.910  19.417  0.00  0.00    +0.000 A 
ATOM     22  O   UNL     1       2.227   8.257  19.153  0.00  0.00    +0.000 OA
BRANCH  21  23
ATOM     23  C   UNL     1       3.069   6.070  18.493  0.00  0.00    +0.000 A 
ATOM     24  C   UNL     1       4.119   6.588  17.720  0.00  0.00    +0.000 A 
ATOM     25  C   UNL     1       4.780   5.779  16.788  0.00  0.00    +0.000 A 
ATOM     26  C   UNL     1       4.405   4.451  16.634  0.00  0.00    +0.000 A 
ATOM     27  F   UNL     1       5.030   3.685  15.731  0.00  0.00    +0.000 F 
ATOM     28  C   UNL     1       3.380   3.906  17.395  0.00  0.00    +0.000 A 
ATOM     29  C   UNL     1       2.714   4.717  18.324  0.00  0.00    +0.000 A 
ENDBRANCH  21  23
ENDBRANCH   2  18
TORSDOF 5
ENDMDL
MODEL 9
REMARK VINA RESULT:      -8.0      3.775      8.686
REMARK  Name = 
REMARK  5 active torsions:
REMARK  status: ('A' for Active; 'I' for Inactive)
REMARK    1  A    between atoms: C_2  and  C_16
REMARK    2  A    between atoms: N_3  and  C_4
REMARK    3  A    between atoms: C_9  and  C_10
REMARK    4  A    between atoms: N_12  and  C_13
REMARK    5  A    between atoms: C_19  and  C_20
REMARK                            x       y       z     vdW  Elec       q    Type
REMARK                         _______ _______ _______ _____ _____    ______ ____
ROOT
ATOM      1  O   UNL     1       2.230  10.989  17.306  0.00  0.00    +0.000 OA
ATOM      2  C   UNL     1       1.845  10.411  18.319  0.00  0.00    +0.000 C 
ATOM      3  N   UNL     1       1.220  11.079  19.363  0.00  0.00    +0.000 N 
ATOM      4  H   UNL     1       1.254  10.639  20.278  0.00  0.00    +0.000 HD
ENDROOT
BRANCH   3   5
ATOM      5  C   UNL     1       0.956  12.475  19.282  0.00  0.00    +0.000 A 
ATOM      6  C   UNL     1       1.975  13.377  19.636  0.00  0.00    +0.000 A 
ATOM      7  C   UNL     1       1.783  14.761  19.544  0.00  0.00    +0.000 A 
ATOM      8  C   UNL     1       0.570  15.267  19.100  0.00  0.00    +0.000 A 
ATOM      9  C   UNL     1      -0.456  14.387  18.749  0.00  0.00    +0.000 A 
ATOM     10  C   UNL     1      -0.274  12.990  18.836  0.00  0.00    +0.000 A 
BRANCH  10  11
ATOM     11  C   UNL     1      -1.480  12.164  18.544  0.00  0.00    +0.000 C 
ATOM     12  O   UNL     1      -2.075  11.607  19.460  0.00  0.00    +0.000 OA
ATOM     13  N   UNL     1      -1.818  12.012  17.209  0.00  0.00    +0.000 N 
ATOM     14  H   UNL     1      -1.131  12.288  16.516  0.00  0.00    +0.000 HD
BRANCH  13  15
ATOM     15  C   UNL     1      -2.841  11.096  16.800  0.00  0.00    +0.000 C 
ATOM     16  C   UNL     1      -2.482   9.811  16.105  0.00  0.00    +0.000 C 
ATOM     17  C   UNL     1      -3.175  10.904  15.347  0.00  0.00    +0.000 C 
ENDBRANCH  13  15
ENDBRANCH  10  11
ENDBRANCH   3   5
BRANCH   2  18
ATOM     18  C   UNL     1       2.139   9.003  18.523  0.00  0.00    +0.000 A 
ATOM     19  C   UNL     1       1.743   8.204  19.580  0.00  0.00    +0.000 A 
ATOM     20  C   UNL     1       2.322   6.939  19.378  0.00  0.00    +0.000 A 
ATOM     21  C   UNL     1       3.037   7.012  18.199  0.00  0.00    +0.000 A 
ATOM     22  O   UNL     1       2.906   8.267  17.652  0.00  0.00    +0.000 OA
BRANCH  21  23
ATOM     23  C   UNL     1       3.852   6.029  17.490  0.00  0.00    +0.000 A 
ATOM     24  C   UNL     1       4.856   6.419  16.591  0.00  0.00    +0.000 A 
ATOM     25  C   UNL     1       5.574   5.457  15.868  0.00  0.00    +0.000 A 
ATOM     26  C   UNL     1       5.299   4.108  16.049  0.00  0.00    +0.000 A 
ATOM     27  F   UNL     1       5.977   3.193  15.346  0.00  0.00    +0.000 F 
ATOM     28  C   UNL     1       4.321   3.692  16.943  0.00  0.00    +0.000 A 
ATOM     29  C   UNL     1       3.599   4.654  17.662  0.00  0.00    +0.000 A 
ENDBRANCH  21  23
ENDBRANCH   2  18
TORSDOF 5
ENDMDL
