MODEL 1
REMARK VINA RESULT:      -7.9      0.000      0.000
REMARK  Name = 
REMARK  7 active torsions:
REMARK  status: ('A' for Active; 'I' for Inactive)
REMARK    1  A    between atoms: C_1  and  C_2
REMARK    2  A    between atoms: C_5  and  C_6
REMARK    3  A    between atoms: C_6  and  N_7
REMARK    4  A    between atoms: C_12  and  C_13
REMARK    5  A    between atoms: N_15  and  C_16
REMARK    6  A    between atoms: C_16  and  C_17
REMARK    7  A    between atoms: N_21  and  C_22
REMARK                            x       y       z     vdW  Elec       q    Type
REMARK                         _______ _______ _______ _____ _____    ______ ____
ROOT
ATOM      1  C   UNL     1       5.783   4.810  19.200  0.00  0.00    +0.000 C 
ATOM      2  O   UNL     1       5.142   5.443  20.036  0.00  0.00    +0.000 OA
ATOM      3  N   UNL     1       5.448   3.524  18.843  0.00  0.00    +0.000 N 
ATOM      4  H   UNL     1       5.980   3.046  18.120  0.00  0.00    +0.000 HD
ENDROOT
BRANCH   1  10
ATOM      5  N   UNL     1       6.462   6.611  17.589  0.00  0.00    +0.000 N 
ATOM      6  C   UNL     1       7.365   7.661  17.655  0.00  0.00    +0.000 C 
ATOM      7  O   UNL     1       7.287   8.727  17.068  0.00  0.00    +0.000 OA
ATOM      8  C   UNL     1       8.519   7.237  18.527  0.00  0.00    +0.000 C 
ATOM      9  C   UNL     1       7.961   6.045  19.290  0.00  0.00    +0.000 C 
ATOM     10  C   UNL     1       6.901   5.458  18.363  0.00  0.00    +0.000 C 
BRANCH   5  11
ATOM     11  C   UNL     1       5.431   6.532  16.563  0.00  0.00    +0.000 C 
BRANCH  11  16
ATOM     12  C   UNL     1       6.699   2.967  12.125  0.00  0.00    +0.000 C 
ATOM     13  C   UNL     1       6.367   3.864  13.282  0.00  0.00    +0.000 A 
ATOM     14  C   UNL     1       5.213   3.661  14.048  0.00  0.00    +0.000 A 
ATOM     15  C   UNL     1       4.912   4.509  15.120  0.00  0.00    +0.000 A 
ATOM     16  C   UNL     1       5.759   5.579  15.441  0.00  0.00    +0.000 A 
ATOM     17  C   UNL     1       6.920   5.769  14.679  0.00  0.00    +0.000 A 
ATOM     18  C   UNL     1       7.218   4.924  13.607  0.00  0.00    +0.000 A 
ENDBRANCH  11  16
ENDBRANCH   5  11
ENDBRANCH   1  10
BRANCH   3  19
ATOM     19  C   UNL     1       4.391   2.808  19.525  0.00  0.00    +0.000 C 
BRANCH  19  20
ATOM     20  C   UNL     1       3.192   2.716  18.659  0.00  0.00    +0.000 A 
ATOM     21  N   UNL     1       2.803   1.650  17.981  0.00  0.00    +0.000 NA
ATOM     22  N   UNL     1       1.538   1.913  17.540  0.00  0.00    +0.000 NA
ATOM     23  N   UNL     1       1.134   3.106  17.943  0.00  0.00    +0.000 NA
ATOM     24  N   UNL     1       2.191   3.675  18.572  0.00  0.00    +0.000 N 
BRANCH  24  25
ATOM     25  C   UNL     1       2.133   5.020  19.019  0.00  0.00    +0.000 A 
ATOM     26  C   UNL     1       1.713   5.284  20.330  0.00  0.00    +0.000 A 
ATOM     27  C   UNL     1       1.665   6.600  20.805  0.00  0.00    +0.000 A 
ATOM     28  C   UNL     1       2.000   7.658  19.963  0.00  0.00    +0.000 A 
ATOM     29  C   UNL     1       2.378   7.405  18.647  0.00  0.00    +0.000 A 
ATOM     30  C   UNL     1       2.447   6.091  18.172  0.00  0.00    +0.000 A 
ENDBRANCH  24  25
ENDBRANCH  19  20
ENDBRANCH   3  19
TORSDOF 6
ENDMDL
MODEL 2
REMARK VINA RESULT:      -7.9      2.384      6.326
REMARK  Name = 
REMARK  7 active torsions:
REMARK  status: ('A' for Active; 'I' for Inactive)
REMARK    1  A    between atoms: C_1  and  C_2
REMARK    2  A    between atoms: C_5  and  C_6
REMARK    3  A    between atoms: C_6  and  N_7
REMARK    4  A    between atoms: C_12  and  C_13
REMARK    5  A    between atoms: N_15  and  C_16
REMARK    6  A    between atoms: C_16  and  C_17
REMARK    7  A    between atoms: N_21  and  C_22
REMARK                            x       y       z     vdW  Elec       q    Type
REMARK                         _______ _______ _______ _____ _____    ______ ____
ROOT
ATOM      1  C   UNL     1       3.327   3.426  17.194  0.00  0.00    +0.000 C 
ATOM      2  O   UNL     1       2.213   3.515  16.683  0.00  0.00    +0.000 OA
ATOM      3  N   UNL     1       4.452   3.934  16.584  0.00  0.00    +0.000 N 
ATOM      4  H   UNL     1       5.351   3.875  17.056  0.00  0.00    +0.000 HD
ENDROOT
BRANCH   1  10
ATOM      5  N   UNL     1       3.278   3.894  19.659  0.00  0.00    +0.000 N 
ATOM      6  C   UNL     1       2.544   3.376  20.715  0.00  0.00    +0.000 C 
ATOM      7  O   UNL     1       2.229   3.959  21.740  0.00  0.00    +0.000 OA
ATOM      8  C   UNL     1       2.256   1.926  20.423  0.00  0.00    +0.000 C 
ATOM      9  C   UNL     1       2.503   1.815  18.926  0.00  0.00    +0.000 C 
ATOM     10  C   UNL     1       3.532   2.900  18.626  0.00  0.00    +0.000 C 
BRANCH   5  11
ATOM     11  C   UNL     1       4.029   5.137  19.767  0.00  0.00    +0.000 C 
BRANCH  11  16
ATOM     12  C   UNL     1       1.205   9.915  17.977  0.00  0.00    +0.000 C 
ATOM     13  C   UNL     1       1.909   8.676  18.445  0.00  0.00    +0.000 A 
ATOM     14  C   UNL     1       1.628   8.112  19.695  0.00  0.00    +0.000 A 
ATOM     15  C   UNL     1       2.297   6.960  20.122  0.00  0.00    +0.000 A 
ATOM     16  C   UNL     1       3.263   6.354  19.308  0.00  0.00    +0.000 A 
ATOM     17  C   UNL     1       3.531   6.915  18.052  0.00  0.00    +0.000 A 
ATOM     18  C   UNL     1       2.865   8.067  17.627  0.00  0.00    +0.000 A 
ENDBRANCH  11  16
ENDBRANCH   5  11
ENDBRANCH   1  10
BRANCH   3  19
ATOM     19  C   UNL     1       4.394   4.492  15.250  0.00  0.00    +0.000 C 
BRANCH  19  20
ATOM     20  C   UNL     1       5.726   4.423  14.606  0.00  0.00    +0.000 A 
ATOM     21  N   UNL     1       5.978   3.981  13.386  0.00  0.00    +0.000 NA
ATOM     22  N   UNL     1       7.267   4.331  13.107  0.00  0.00    +0.000 NA
ATOM     23  N   UNL     1       7.809   4.990  14.117  0.00  0.00    +0.000 NA
ATOM     24  N   UNL     1       6.892   4.982  15.114  0.00  0.00    +0.000 N 
BRANCH  24  25
ATOM     25  C   UNL     1       7.207   5.501  16.396  0.00  0.00    +0.000 A 
ATOM     26  C   UNL     1       7.496   4.610  17.439  0.00  0.00    +0.000 A 
ATOM     27  C   UNL     1       7.829   5.094  18.709  0.00  0.00    +0.000 A 
ATOM     28  C   UNL     1       7.839   6.465  18.953  0.00  0.00    +0.000 A 
ATOM     29  C   UNL     1       7.512   7.354  17.933  0.00  0.00    +0.000 A 
ATOM     30  C   UNL     1       7.198   6.878  16.655  0.00  0.00    +0.000 A 
ENDBRANCH  24  25
ENDBRANCH  19  20
ENDBRANCH   3  19
TORSDOF 6
ENDMDL
MODEL 3
REMARK VINA RESULT:      -7.8      3.808      6.104
REMARK  Name = 
REMARK  7 active torsions:
REMARK  status: ('A' for Active; 'I' for Inactive)
REMARK    1  A    between atoms: C_1  and  C_2
REMARK    2  A    between atoms: C_5  and  C_6
REMARK    3  A    between atoms: C_6  and  N_7
REMARK    4  A    between atoms: C_12  and  C_13
REMARK    5  A    between atoms: N_15  and  C_16
REMARK    6  A    between atoms: C_16  and  C_17
REMARK    7  A    between atoms: N_21  and  C_22
REMARK                            x       y       z     vdW  Elec       q    Type
REMARK                         _______ _______ _______ _____ _____    ______ ____
ROOT
ATOM      1  C   UNL     1       2.050   5.958  19.108  0.00  0.00    +0.000 C 
ATOM      2  O   UNL     1       2.016   6.363  17.948  0.00  0.00    +0.000 OA
ATOM      3  N   UNL     1       1.949   6.813  20.183  0.00  0.00    +0.000 N 
ATOM      4  H   UNL     1       1.943   6.436  21.127  0.00  0.00    +0.000 HD
ENDROOT
BRANCH   1  10
ATOM      5  N   UNL     1       3.333   3.812  19.324  0.00  0.00    +0.000 N 
ATOM      6  C   UNL     1       3.604   2.964  20.387  0.00  0.00    +0.000 C 
ATOM      7  O   UNL     1       4.588   2.255  20.520  0.00  0.00    +0.000 OA
ATOM      8  C   UNL     1       2.432   3.003  21.332  0.00  0.00    +0.000 C 
ATOM      9  C   UNL     1       1.700   4.275  20.930  0.00  0.00    +0.000 C 
ATOM     10  C   UNL     1       2.035   4.458  19.453  0.00  0.00    +0.000 C 
BRANCH   5  11
ATOM     11  C   UNL     1       4.066   3.746  18.066  0.00  0.00    +0.000 C 
BRANCH  11  16
ATOM     12  C   UNL     1       8.013   8.012  17.581  0.00  0.00    +0.000 C 
ATOM     13  C   UNL     1       7.000   6.909  17.681  0.00  0.00    +0.000 A 
ATOM     14  C   UNL     1       5.988   6.766  16.723  0.00  0.00    +0.000 A 
ATOM     15  C   UNL     1       5.047   5.737  16.832  0.00  0.00    +0.000 A 
ATOM     16  C   UNL     1       5.098   4.835  17.905  0.00  0.00    +0.000 A 
ATOM     17  C   UNL     1       6.120   4.975  18.852  0.00  0.00    +0.000 A 
ATOM     18  C   UNL     1       7.059   6.005  18.744  0.00  0.00    +0.000 A 
ENDBRANCH  11  16
ENDBRANCH   5  11
ENDBRANCH   1  10
BRANCH   3  19
ATOM     19  C   UNL     1       1.918   8.248  19.999  0.00  0.00    +0.000 C 
BRANCH  19  20
ATOM     20  C   UNL     1       1.249   8.899  21.149  0.00  0.00    +0.000 A 
ATOM     21  N   UNL     1       1.455   8.624  22.426  0.00  0.00    +0.000 NA
ATOM     22  N   UNL     1       0.843   9.615  23.138  0.00  0.00    +0.000 NA
ATOM     23  N   UNL     1       0.280  10.499  22.332  0.00  0.00    +0.000 NA
ATOM     24  N   UNL     1       0.439  10.025  21.073  0.00  0.00    +0.000 N 
BRANCH  24  25
ATOM     25  C   UNL     1      -0.165  10.677  19.968  0.00  0.00    +0.000 A 
ATOM     26  C   UNL     1       0.091  12.040  19.759  0.00  0.00    +0.000 A 
ATOM     27  C   UNL     1      -0.476  12.705  18.666  0.00  0.00    +0.000 A 
ATOM     28  C   UNL     1      -1.328  12.024  17.800  0.00  0.00    +0.000 A 
ATOM     29  C   UNL     1      -1.620  10.682  18.026  0.00  0.00    +0.000 A 
ATOM     30  C   UNL     1      -1.041  10.006  19.105  0.00  0.00    +0.000 A 
ENDBRANCH  24  25
ENDBRANCH  19  20
ENDBRANCH   3  19
TORSDOF 6
ENDMDL
MODEL 4
REMARK VINA RESULT:      -7.6      3.446      5.518
REMARK  Name = 
REMARK  7 active torsions:
REMARK  status: ('A' for Active; 'I' for Inactive)
REMARK    1  A    between atoms: C_1  and  C_2
REMARK    2  A    between atoms: C_5  and  C_6
REMARK    3  A    between atoms: C_6  and  N_7
REMARK    4  A    between atoms: C_12  and  C_13
REMARK    5  A    between atoms: N_15  and  C_16
REMARK    6  A    between atoms: C_16  and  C_17
REMARK    7  A    between atoms: N_21  and  C_22
REMARK                            x       y       z     vdW  Elec       q    Type
REMARK                         _______ _______ _______ _____ _____    ______ ____
ROOT
ATOM      1  C   UNL     1       1.826   5.231  19.897  0.00  0.00    +0.000 C 
ATOM      2  O   UNL     1       1.019   5.031  20.802  0.00  0.00    +0.000 OA
ATOM      3  N   UNL     1       2.344   6.481  19.644  0.00  0.00    +0.000 N 
ATOM      4  H   UNL     1       3.039   6.601  18.911  0.00  0.00    +0.000 HD
ENDROOT
BRANCH   1  10
ATOM      5  N   UNL     1       3.821   3.767  19.475  0.00  0.00    +0.000 N 
ATOM      6  C   UNL     1       4.039   2.401  19.567  0.00  0.00    +0.000 C 
ATOM      7  O   UNL     1       5.097   1.848  19.819  0.00  0.00    +0.000 OA
ATOM      8  C   UNL     1       2.754   1.694  19.225  0.00  0.00    +0.000 C 
ATOM      9  C   UNL     1       1.703   2.784  19.377  0.00  0.00    +0.000 C 
ATOM     10  C   UNL     1       2.452   4.081  19.088  0.00  0.00    +0.000 C 
BRANCH   5  11
ATOM     11  C   UNL     1       4.912   4.728  19.382  0.00  0.00    +0.000 C 
BRANCH  11  16
ATOM     12  C   UNL     1       7.169   4.992  14.011  0.00  0.00    +0.000 C 
ATOM     13  C   UNL     1       6.609   4.936  15.402  0.00  0.00    +0.000 A 
ATOM     14  C   UNL     1       7.403   4.545  16.487  0.00  0.00    +0.000 A 
ATOM     15  C   UNL     1       6.866   4.490  17.778  0.00  0.00    +0.000 A 
ATOM     16  C   UNL     1       5.523   4.823  18.006  0.00  0.00    +0.000 A 
ATOM     17  C   UNL     1       4.738   5.227  16.918  0.00  0.00    +0.000 A 
ATOM     18  C   UNL     1       5.273   5.278  15.629  0.00  0.00    +0.000 A 
ENDBRANCH  11  16
ENDBRANCH   5  11
ENDBRANCH   1  10
BRANCH   3  19
ATOM     19  C   UNL     1       1.870   7.647  20.359  0.00  0.00    +0.000 C 
BRANCH  19  20
ATOM     20  C   UNL     1       1.650   8.771  19.419  0.00  0.00    +0.000 A 
ATOM     21  N   UNL     1       2.105   8.849  18.180  0.00  0.00    +0.000 NA
ATOM     22  N   UNL     1       1.464   9.905  17.599  0.00  0.00    +0.000 NA
ATOM     23  N   UNL     1       0.615  10.467  18.443  0.00  0.00    +0.000 NA
ATOM     24  N   UNL     1       0.779   9.833  19.629  0.00  0.00    +0.000 N 
BRANCH  24  25
ATOM     25  C   UNL     1       0.103  10.280  20.793  0.00  0.00    +0.000 A 
ATOM     26  C   UNL     1      -0.418  11.582  20.820  0.00  0.00    +0.000 A 
ATOM     27  C   UNL     1      -1.106  12.043  21.947  0.00  0.00    +0.000 A 
ATOM     28  C   UNL     1      -1.246  11.223  23.064  0.00  0.00    +0.000 A 
ATOM     29  C   UNL     1      -0.695   9.945  23.059  0.00  0.00    +0.000 A 
ATOM     30  C   UNL     1      -0.023   9.469  21.928  0.00  0.00    +0.000 A 
ENDBRANCH  24  25
ENDBRANCH  19  20
ENDBRANCH   3  19
TORSDOF 6
ENDMDL
MODEL 5
REMARK VINA RESULT:      -7.5      3.407      5.487
REMARK  Name = 
REMARK  7 active torsions:
REMARK  status: ('A' for Active; 'I' for Inactive)
REMARK    1  A    between atoms: C_1  and  C_2
REMARK    2  A    between atoms: C_5  and  C_6
REMARK    3  A    between atoms: C_6  and  N_7
REMARK    4  A    between atoms: C_12  and  C_13
REMARK    5  A    between atoms: N_15  and  C_16
REMARK    6  A    between atoms: C_16  and  C_17
REMARK    7  A    between atoms: N_21  and  C_22
REMARK                            x       y       z     vdW  Elec       q    Type
REMARK                         _______ _______ _______ _____ _____    ______ ____
ROOT
ATOM      1  C   UNL     1       2.045   5.170  19.751  0.00  0.00    +0.000 C 
ATOM      2  O   UNL     1       1.811   4.945  20.936  0.00  0.00    +0.000 OA
ATOM      3  N   UNL     1       2.221   6.448  19.271  0.00  0.00    +0.000 N 
ATOM      4  H   UNL     1       2.450   6.592  18.291  0.00  0.00    +0.000 HD
ENDROOT
BRANCH   1  10
ATOM      5  N   UNL     1       3.539   3.285  19.035  0.00  0.00    +0.000 N 
ATOM      6  C   UNL     1       3.350   1.919  18.890  0.00  0.00    +0.000 C 
ATOM      7  O   UNL     1       4.196   1.049  19.017  0.00  0.00    +0.000 OA
ATOM      8  C   UNL     1       1.924   1.682  18.469  0.00  0.00    +0.000 C 
ATOM      9  C   UNL     1       1.230   2.987  18.831  0.00  0.00    +0.000 C 
ATOM     10  C   UNL     1       2.329   4.041  18.743  0.00  0.00    +0.000 C 
BRANCH   5  11
ATOM     11  C   UNL     1       4.863   3.890  19.075  0.00  0.00    +0.000 C 
BRANCH  11  16
ATOM     12  C   UNL     1       7.220   4.959  13.848  0.00  0.00    +0.000 C 
ATOM     13  C   UNL     1       6.604   4.662  15.184  0.00  0.00    +0.000 A 
ATOM     14  C   UNL     1       5.275   4.233  15.290  0.00  0.00    +0.000 A 
ATOM     15  C   UNL     1       4.711   3.967  16.542  0.00  0.00    +0.000 A 
ATOM     16  C   UNL     1       5.465   4.128  17.712  0.00  0.00    +0.000 A 
ATOM     17  C   UNL     1       6.798   4.544  17.600  0.00  0.00    +0.000 A 
ATOM     18  C   UNL     1       7.361   4.814  16.349  0.00  0.00    +0.000 A 
ENDBRANCH  11  16
ENDBRANCH   5  11
ENDBRANCH   1  10
BRANCH   3  19
ATOM     19  C   UNL     1       2.020   7.602  20.121  0.00  0.00    +0.000 C 
BRANCH  19  20
ATOM     20  C   UNL     1       1.799   8.814  19.298  0.00  0.00    +0.000 A 
ATOM     21  N   UNL     1       2.259   9.018  18.076  0.00  0.00    +0.000 NA
ATOM     22  N   UNL     1       1.616  10.125  17.601  0.00  0.00    +0.000 NA
ATOM     23  N   UNL     1       0.761  10.596  18.493  0.00  0.00    +0.000 NA
ATOM     24  N   UNL     1       0.922   9.845  19.610  0.00  0.00    +0.000 N 
BRANCH  24  25
ATOM     25  C   UNL     1       0.239  10.171  20.810  0.00  0.00    +0.000 A 
ATOM     26  C   UNL     1       0.037   9.171  21.771  0.00  0.00    +0.000 A 
ATOM     27  C   UNL     1      -0.617   9.468  22.972  0.00  0.00    +0.000 A 
ATOM     28  C   UNL     1      -1.103  10.752  23.203  0.00  0.00    +0.000 A 
ATOM     29  C   UNL     1      -0.943  11.739  22.234  0.00  0.00    +0.000 A 
ATOM     30  C   UNL     1      -0.273  11.455  21.040  0.00  0.00    +0.000 A 
ENDBRANCH  24  25
ENDBRANCH  19  20
ENDBRANCH   3  19
TORSDOF 6
ENDMDL
MODEL 6
REMARK VINA RESULT:      -7.5      3.786      6.022
REMARK  Name = 
REMARK  7 active torsions:
REMARK  status: ('A' for Active; 'I' for Inactive)
REMARK    1  A    between atoms: C_1  and  C_2
REMARK    2  A    between atoms: C_5  and  C_6
REMARK    3  A    between atoms: C_6  and  N_7
REMARK    4  A    between atoms: C_12  and  C_13
REMARK    5  A    between atoms: N_15  and  C_16
REMARK    6  A    between atoms: C_16  and  C_17
REMARK    7  A    between atoms: N_21  and  C_22
REMARK                            x       y       z     vdW  Elec       q    Type
REMARK                         _______ _______ _______ _____ _____    ______ ____
ROOT
ATOM      1  C   UNL     1       3.873   7.156  17.524  0.00  0.00    +0.000 C 
ATOM      2  O   UNL     1       3.718   7.711  16.438  0.00  0.00    +0.000 OA
ATOM      3  N   UNL     1       3.028   7.383  18.587  0.00  0.00    +0.000 N 
ATOM      4  H   UNL     1       3.166   6.877  19.458  0.00  0.00    +0.000 HD
ENDROOT
BRANCH   1  10
ATOM      5  N   UNL     1       4.770   4.925  16.806  0.00  0.00    +0.000 N 
ATOM      6  C   UNL     1       5.991   4.504  16.303  0.00  0.00    +0.000 C 
ATOM      7  O   UNL     1       6.184   3.562  15.551  0.00  0.00    +0.000 OA
ATOM      8  C   UNL     1       7.071   5.365  16.904  0.00  0.00    +0.000 C 
ATOM      9  C   UNL     1       6.307   6.573  17.424  0.00  0.00    +0.000 C 
ATOM     10  C   UNL     1       4.912   6.039  17.733  0.00  0.00    +0.000 C 
BRANCH   5  11
ATOM     11  C   UNL     1       3.569   4.104  16.730  0.00  0.00    +0.000 C 
BRANCH  11  16
ATOM     12  C   UNL     1       1.371   2.545  21.902  0.00  0.00    +0.000 C 
ATOM     13  C   UNL     1       1.927   2.969  20.575  0.00  0.00    +0.000 A 
ATOM     14  C   UNL     1       1.151   3.696  19.663  0.00  0.00    +0.000 A 
ATOM     15  C   UNL     1       1.680   4.080  18.426  0.00  0.00    +0.000 A 
ATOM     16  C   UNL     1       2.994   3.739  18.077  0.00  0.00    +0.000 A 
ATOM     17  C   UNL     1       3.771   3.024  18.998  0.00  0.00    +0.000 A 
ATOM     18  C   UNL     1       3.241   2.638  20.232  0.00  0.00    +0.000 A 
ENDBRANCH  11  16
ENDBRANCH   5  11
ENDBRANCH   1  10
BRANCH   3  19
ATOM     19  C   UNL     1       1.983   8.382  18.514  0.00  0.00    +0.000 C 
BRANCH  19  20
ATOM     20  C   UNL     1       1.437   8.654  19.864  0.00  0.00    +0.000 A 
ATOM     21  N   UNL     1       1.551   7.868  20.921  0.00  0.00    +0.000 NA
ATOM     22  N   UNL     1       1.141   8.605  21.995  0.00  0.00    +0.000 NA
ATOM     23  N   UNL     1       0.795   9.827  21.628  0.00  0.00    +0.000 NA
ATOM     24  N   UNL     1       0.882   9.859  20.276  0.00  0.00    +0.000 N 
BRANCH  24  25
ATOM     25  C   UNL     1       0.454  10.997  19.546  0.00  0.00    +0.000 A 
ATOM     26  C   UNL     1      -0.854  11.032  19.043  0.00  0.00    +0.000 A 
ATOM     27  C   UNL     1      -1.309  12.150  18.336  0.00  0.00    +0.000 A 
ATOM     28  C   UNL     1      -0.452  13.221  18.097  0.00  0.00    +0.000 A 
ATOM     29  C   UNL     1       0.861  13.175  18.558  0.00  0.00    +0.000 A 
ATOM     30  C   UNL     1       1.317  12.069  19.282  0.00  0.00    +0.000 A 
ENDBRANCH  24  25
ENDBRANCH  19  20
ENDBRANCH   3  19
TORSDOF 6
ENDMDL
MODEL 7
REMARK VINA RESULT:      -7.5      5.332      8.233
REMARK  Name = 
REMARK  7 active torsions:
REMARK  status: ('A' for Active; 'I' for Inactive)
REMARK    1  A    between atoms: C_1  and  C_2
REMARK    2  A    between atoms: C_5  and  C_6
REMARK    3  A    between atoms: C_6  and  N_7
REMARK    4  A    between atoms: C_12  and  C_13
REMARK    5  A    between atoms: N_15  and  C_16
REMARK    6  A    between atoms: C_16  and  C_17
REMARK    7  A    between atoms: N_21  and  C_22
REMARK                            x       y       z     vdW  Elec       q    Type
REMARK                         _______ _______ _______ _____ _____    ______ ____
ROOT
ATOM      1  C   UNL     1       1.097  10.469  19.739  0.00  0.00    +0.000 C 
ATOM      2  O   UNL     1       1.320  10.469  20.948  0.00  0.00    +0.000 OA
ATOM      3  N   UNL     1       1.197   9.326  18.979  0.00  0.00    +0.000 N 
ATOM      4  H   UNL     1       0.968   9.357  17.989  0.00  0.00    +0.000 HD
ENDROOT
BRANCH   1  10
ATOM      5  N   UNL     1      -0.756  12.149  19.535  0.00  0.00    +0.000 N 
ATOM      6  C   UNL     1      -0.814  13.528  19.666  0.00  0.00    +0.000 C 
ATOM      7  O   UNL     1      -1.776  14.186  20.028  0.00  0.00    +0.000 OA
ATOM      8  C   UNL     1       0.502  14.101  19.208  0.00  0.00    +0.000 C 
ATOM      9  C   UNL     1       1.437  12.901  19.242  0.00  0.00    +0.000 C 
ATOM     10  C   UNL     1       0.525  11.699  19.011  0.00  0.00    +0.000 C 
BRANCH   5  11
ATOM     11  C   UNL     1      -1.950  11.314  19.538  0.00  0.00    +0.000 C 
BRANCH  11  16
ATOM     12  C   UNL     1      -3.815  10.093  14.149  0.00  0.00    +0.000 C 
ATOM     13  C   UNL     1      -3.359  10.407  15.543  0.00  0.00    +0.000 A 
ATOM     14  C   UNL     1      -3.993  11.396  16.307  0.00  0.00    +0.000 A 
ATOM     15  C   UNL     1      -3.553  11.683  17.604  0.00  0.00    +0.000 A 
ATOM     16  C   UNL     1      -2.469  10.989  18.159  0.00  0.00    +0.000 A 
ATOM     17  C   UNL     1      -1.848   9.992  17.395  0.00  0.00    +0.000 A 
ATOM     18  C   UNL     1      -2.285   9.707  16.099  0.00  0.00    +0.000 A 
ENDBRANCH  11  16
ENDBRANCH   5  11
ENDBRANCH   1  10
BRANCH   3  19
ATOM     19  C   UNL     1       1.687   8.088  19.547  0.00  0.00    +0.000 C 
BRANCH  19  20
ATOM     20  C   UNL     1       2.557   7.386  18.576  0.00  0.00    +0.000 A 
ATOM     21  N   UNL     1       3.288   7.956  17.634  0.00  0.00    +0.000 NA
ATOM     22  N   UNL     1       4.118   6.986  17.149  0.00  0.00    +0.000 NA
ATOM     23  N   UNL     1       3.927   5.840  17.780  0.00  0.00    +0.000 NA
ATOM     24  N   UNL     1       2.883   6.036  18.622  0.00  0.00    +0.000 N 
BRANCH  24  25
ATOM     25  C   UNL     1       2.334   4.959  19.364  0.00  0.00    +0.000 A 
ATOM     26  C   UNL     1       1.475   4.057  18.720  0.00  0.00    +0.000 A 
ATOM     27  C   UNL     1       0.935   2.974  19.422  0.00  0.00    +0.000 A 
ATOM     28  C   UNL     1       1.218   2.808  20.776  0.00  0.00    +0.000 A 
ATOM     29  C   UNL     1       2.036   3.725  21.431  0.00  0.00    +0.000 A 
ATOM     30  C   UNL     1       2.596   4.798  20.730  0.00  0.00    +0.000 A 
ENDBRANCH  24  25
ENDBRANCH  19  20
ENDBRANCH   3  19
TORSDOF 6
ENDMDL
MODEL 8
REMARK VINA RESULT:      -7.5      3.728      5.960
REMARK  Name = 
REMARK  7 active torsions:
REMARK  status: ('A' for Active; 'I' for Inactive)
REMARK    1  A    between atoms: C_1  and  C_2
REMARK    2  A    between atoms: C_5  and  C_6
REMARK    3  A    between atoms: C_6  and  N_7
REMARK    4  A    between atoms: C_12  and  C_13
REMARK    5  A    between atoms: N_15  and  C_16
REMARK    6  A    between atoms: C_16  and  C_17
REMARK    7  A    between atoms: N_21  and  C_22
REMARK                            x       y       z     vdW  Elec       q    Type
REMARK                         _______ _______ _______ _____ _____    ______ ____
ROOT
ATOM      1  C   UNL     1       3.928   7.095  17.469  0.00  0.00    +0.000 C 
ATOM      2  O   UNL     1       3.773   7.641  16.379  0.00  0.00    +0.000 OA
ATOM      3  N   UNL     1       3.085   7.334  18.531  0.00  0.00    +0.000 N 
ATOM      4  H   UNL     1       3.223   6.835  19.406  0.00  0.00    +0.000 HD
ENDROOT
BRANCH   1  10
ATOM      5  N   UNL     1       4.843   4.874  16.745  0.00  0.00    +0.000 N 
ATOM      6  C   UNL     1       6.075   4.460  16.262  0.00  0.00    +0.000 C 
ATOM      7  O   UNL     1       6.285   3.527  15.504  0.00  0.00    +0.000 OA
ATOM      8  C   UNL     1       7.142   5.316  16.893  0.00  0.00    +0.000 C 
ATOM      9  C   UNL     1       6.365   6.518  17.411  0.00  0.00    +0.000 C 
ATOM     10  C   UNL     1       4.964   5.978  17.686  0.00  0.00    +0.000 C 
BRANCH   5  11
ATOM     11  C   UNL     1       3.646   4.051  16.636  0.00  0.00    +0.000 C 
BRANCH  11  16
ATOM     12  C   UNL     1       1.378   2.616  21.814  0.00  0.00    +0.000 C 
ATOM     13  C   UNL     1       1.970   2.962  20.479  0.00  0.00    +0.000 A 
ATOM     14  C   UNL     1       3.279   2.588  20.149  0.00  0.00    +0.000 A 
ATOM     15  C   UNL     1       3.821   2.922  18.903  0.00  0.00    +0.000 A 
ATOM     16  C   UNL     1       3.065   3.641  17.967  0.00  0.00    +0.000 A 
ATOM     17  C   UNL     1       1.753   4.001  18.297  0.00  0.00    +0.000 A 
ATOM     18  C   UNL     1       1.212   3.669  19.543  0.00  0.00    +0.000 A 
ENDBRANCH  11  16
ENDBRANCH   5  11
ENDBRANCH   1  10
BRANCH   3  19
ATOM     19  C   UNL     1       2.042   8.334  18.450  0.00  0.00    +0.000 C 
BRANCH  19  20
ATOM     20  C   UNL     1       1.426   8.542  19.781  0.00  0.00    +0.000 A 
ATOM     21  N   UNL     1       1.800   7.965  20.910  0.00  0.00    +0.000 NA
ATOM     22  N   UNL     1       1.151   8.624  21.914  0.00  0.00    +0.000 NA
ATOM     23  N   UNL     1       0.401   9.601  21.433  0.00  0.00    +0.000 NA
ATOM     24  N   UNL     1       0.481   9.515  20.083  0.00  0.00    +0.000 N 
BRANCH  24  25
ATOM     25  C   UNL     1      -0.314  10.346  19.253  0.00  0.00    +0.000 A 
ATOM     26  C   UNL     1      -0.050  11.722  19.215  0.00  0.00    +0.000 A 
ATOM     27  C   UNL     1      -0.805  12.563  18.390  0.00  0.00    +0.000 A 
ATOM     28  C   UNL     1      -1.849  12.042  17.630  0.00  0.00    +0.000 A 
ATOM     29  C   UNL     1      -2.143  10.682  17.695  0.00  0.00    +0.000 A 
ATOM     30  C   UNL     1      -1.379   9.833  18.502  0.00  0.00    +0.000 A 
ENDBRANCH  24  25
ENDBRANCH  19  20
ENDBRANCH   3  19
TORSDOF 6
ENDMDL
MODEL 9
REMARK VINA RESULT:      -7.4      3.642      5.958
REMARK  Name = 
REMARK  7 active torsions:
REMARK  status: ('A' for Active; 'I' for Inactive)
REMARK    1  A    between atoms: C_1  and  C_2
REMARK    2  A    between atoms: C_5  and  C_6
REMARK    3  A    between atoms: C_6  and  N_7
REMARK    4  A    between atoms: C_12  and  C_13
REMARK    5  A    between atoms: N_15  and  C_16
REMARK    6  A    between atoms: C_16  and  C_17
REMARK    7  A    between atoms: N_21  and  C_22
REMARK                            x       y       z     vdW  Elec       q    Type
REMARK                         _______ _______ _______ _____ _____    ______ ____
ROOT
ATOM      1  C   UNL     1       2.138   5.723  19.179  0.00  0.00    +0.000 C 
ATOM      2  O   UNL     1       2.046   6.137  18.025  0.00  0.00    +0.000 OA
ATOM      3  N   UNL     1       2.096   6.569  20.264  0.00  0.00    +0.000 N 
ATOM      4  H   UNL     1       2.137   6.185  21.204  0.00  0.00    +0.000 HD
ENDROOT
BRANCH   1  10
ATOM      5  N   UNL     1       3.433   3.582  19.372  0.00  0.00    +0.000 N 
ATOM      6  C   UNL     1       3.714   2.728  20.427  0.00  0.00    +0.000 C 
ATOM      7  O   UNL     1       4.702   2.022  20.551  0.00  0.00    +0.000 OA
ATOM      8  C   UNL     1       2.547   2.753  21.379  0.00  0.00    +0.000 C 
ATOM      9  C   UNL     1       1.806   4.024  20.990  0.00  0.00    +0.000 C 
ATOM     10  C   UNL     1       2.132   4.220  19.513  0.00  0.00    +0.000 C 
BRANCH   5  11
ATOM     11  C   UNL     1       4.160   3.529  18.111  0.00  0.00    +0.000 C 
BRANCH  11  16
ATOM     12  C   UNL     1       7.911   7.957  17.532  0.00  0.00    +0.000 C 
ATOM     13  C   UNL     1       6.949   6.812  17.656  0.00  0.00    +0.000 A 
ATOM     14  C   UNL     1       5.948   6.599  16.700  0.00  0.00    +0.000 A 
ATOM     15  C   UNL     1       5.054   5.532  16.831  0.00  0.00    +0.000 A 
ATOM     16  C   UNL     1       5.142   4.659  17.925  0.00  0.00    +0.000 A 
ATOM     17  C   UNL     1       6.153   4.868  18.872  0.00  0.00    +0.000 A 
ATOM     18  C   UNL     1       7.045   5.937  18.742  0.00  0.00    +0.000 A 
ENDBRANCH  11  16
ENDBRANCH   5  11
ENDBRANCH   1  10
BRANCH   3  19
ATOM     19  C   UNL     1       2.063   8.006  20.092  0.00  0.00    +0.000 C 
BRANCH  19  20
ATOM     20  C   UNL     1       0.912   8.584  20.825  0.00  0.00    +0.000 A 
ATOM     21  N   UNL     1       0.105   7.932  21.644  0.00  0.00    +0.000 NA
ATOM     22  N   UNL     1      -0.636   8.879  22.290  0.00  0.00    +0.000 NA
ATOM     23  N   UNL     1      -0.294  10.095  21.902  0.00  0.00    +0.000 NA
ATOM     24  N   UNL     1       0.615   9.938  20.910  0.00  0.00    +0.000 N 
BRANCH  24  25
ATOM     25  C   UNL     1       1.097  11.056  20.181  0.00  0.00    +0.000 A 
ATOM     26  C   UNL     1       1.220  12.291  20.832  0.00  0.00    +0.000 A 
ATOM     27  C   UNL     1       1.711  13.406  20.144  0.00  0.00    +0.000 A 
ATOM     28  C   UNL     1       2.047  13.303  18.796  0.00  0.00    +0.000 A 
ATOM     29  C   UNL     1       1.888  12.089  18.133  0.00  0.00    +0.000 A 
ATOM     30  C   UNL     1       1.416  10.965  18.820  0.00  0.00    +0.000 A 
ENDBRANCH  24  25
ENDBRANCH  19  20
ENDBRANCH   3  19
TORSDOF 6
ENDMDL
