MODEL 1
REMARK VINA RESULT:      -9.4      0.000      0.000
REMARK  Name = 
REMARK  4 active torsions:
REMARK  status: ('A' for Active; 'I' for Inactive)
REMARK    1  A    between atoms: C_2  and  C_16
REMARK    2  A    between atoms: N_3  and  C_4
REMARK    3  A    between atoms: C_8  and  N_9
REMARK    4  A    between atoms: C_18  and  C_19
REMARK                            x       y       z     vdW  Elec       q    Type
REMARK                         _______ _______ _______ _____ _____    ______ ____
ROOT
ATOM      1  O   UNL     1       2.534   8.734  17.062  0.00  0.00    +0.000 OA
ATOM      2  C   UNL     1       2.216   8.300  18.163  0.00  0.00    +0.000 C 
ATOM      3  N   UNL     1       1.357   8.956  19.043  0.00  0.00    +0.000 N 
ATOM      4  H   UNL     1       1.090   8.461  19.878  0.00  0.00    +0.000 HD
ENDROOT
BRANCH   2   5
ATOM      5  C   UNL     1       2.789   6.970  18.662  0.00  0.00    +0.000 A 
ATOM      6  C   UNL     1       2.174   6.324  19.752  0.00  0.00    +0.000 A 
ATOM      7  C   UNL     1       2.653   5.105  20.217  0.00  0.00    +0.000 A 
ATOM      8  N   UNL     1       3.817   4.615  19.758  0.00  0.00    +0.000 NA
ATOM      9  C   UNL     1       4.499   5.281  18.823  0.00  0.00    +0.000 A 
ATOM     10  C   UNL     1       5.788   4.834  18.579  0.00  0.00    +0.000 A 
ATOM     11  C   UNL     1       6.615   5.463  17.655  0.00  0.00    +0.000 A 
ATOM     12  C   UNL     1       6.092   6.468  16.858  0.00  0.00    +0.000 A 
ATOM     13  C   UNL     1       4.785   6.915  17.073  0.00  0.00    +0.000 A 
ATOM     14  C   UNL     1       4.000   6.416  18.148  0.00  0.00    +0.000 A 
BRANCH   7  15
ATOM     15  C   UNL     1       1.892   4.238  21.193  0.00  0.00    +0.000 C 
ATOM     16  C   UNL     1       2.277   2.817  21.517  0.00  0.00    +0.000 C 
ATOM     17  C   UNL     1       1.063   3.084  20.678  0.00  0.00    +0.000 C 
ENDBRANCH   7  15
ENDBRANCH   2   5
BRANCH   3  18
ATOM     18  C   UNL     1       0.742  10.231  18.921  0.00  0.00    +0.000 A 
ATOM     19  C   UNL     1       1.375  11.443  19.170  0.00  0.00    +0.000 A 
ATOM     20  C   UNL     1       0.683  12.641  18.980  0.00  0.00    +0.000 A 
ATOM     21  C   UNL     1      -0.653  12.643  18.556  0.00  0.00    +0.000 A 
ATOM     22  C   UNL     1      -1.344  11.444  18.335  0.00  0.00    +0.000 A 
ATOM     23  C   UNL     1      -0.617  10.249  18.519  0.00  0.00    +0.000 A 
BRANCH  22  24
ATOM     24  N   UNL     1      -2.713  11.428  17.935  0.00  0.00    +0.000 N 
ATOM     25  C   UNL     1      -3.794  11.804  18.821  0.00  0.00    +0.000 C 
ATOM     26  C   UNL     1      -5.048  11.295  18.138  0.00  0.00    +0.000 C 
ATOM     27  C   UNL     1      -4.712  11.385  16.665  0.00  0.00    +0.000 C 
ATOM     28  C   UNL     1      -3.204  11.205  16.638  0.00  0.00    +0.000 C 
ATOM     29  O   UNL     1      -2.602  10.945  15.608  0.00  0.00    +0.000 OA
ENDBRANCH  22  24
ENDBRANCH   3  18
TORSDOF 4
ENDMDL
MODEL 2
REMARK VINA RESULT:      -9.4      1.271      3.381
REMARK  Name = 
REMARK  4 active torsions:
REMARK  status: ('A' for Active; 'I' for Inactive)
REMARK    1  A    between atoms: C_2  and  C_16
REMARK    2  A    between atoms: N_3  and  C_4
REMARK    3  A    between atoms: C_8  and  N_9
REMARK    4  A    between atoms: C_18  and  C_19
REMARK                            x       y       z     vdW  Elec       q    Type
REMARK                         _______ _______ _______ _____ _____    ______ ____
ROOT
ATOM      1  O   UNL     1       1.837   7.982  20.448  0.00  0.00    +0.000 OA
ATOM      2  C   UNL     1       2.050   7.851  19.249  0.00  0.00    +0.000 C 
ATOM      3  N   UNL     1       1.716   8.803  18.287  0.00  0.00    +0.000 N 
ATOM      4  H   UNL     1       2.025   8.631  17.345  0.00  0.00    +0.000 HD
ENDROOT
BRANCH   2   5
ATOM      5  C   UNL     1       2.699   6.570  18.717  0.00  0.00    +0.000 A 
ATOM      6  C   UNL     1       3.598   6.654  17.636  0.00  0.00    +0.000 A 
ATOM      7  C   UNL     1       4.224   5.515  17.143  0.00  0.00    +0.000 A 
ATOM      8  N   UNL     1       3.843   4.297  17.563  0.00  0.00    +0.000 NA
ATOM      9  C   UNL     1       2.886   4.179  18.487  0.00  0.00    +0.000 A 
ATOM     10  C   UNL     1       2.393   2.900  18.689  0.00  0.00    +0.000 A 
ATOM     11  C   UNL     1       1.371   2.648  19.598  0.00  0.00    +0.000 A 
ATOM     12  C   UNL     1       0.936   3.672  20.423  0.00  0.00    +0.000 A 
ATOM     13  C   UNL     1       1.440   4.964  20.249  0.00  0.00    +0.000 A 
ATOM     14  C   UNL     1       2.336   5.273  19.191  0.00  0.00    +0.000 A 
BRANCH   7  15
ATOM     15  C   UNL     1       5.385   5.565  16.177  0.00  0.00    +0.000 C 
ATOM     16  C   UNL     1       6.301   4.396  15.917  0.00  0.00    +0.000 C 
ATOM     17  C   UNL     1       6.799   5.568  16.709  0.00  0.00    +0.000 C 
ENDBRANCH   7  15
ENDBRANCH   2   5
BRANCH   3  18
ATOM     18  C   UNL     1       1.029  10.037  18.441  0.00  0.00    +0.000 A 
ATOM     19  C   UNL     1       1.597  11.202  18.946  0.00  0.00    +0.000 A 
ATOM     20  C   UNL     1       0.836  12.371  19.017  0.00  0.00    +0.000 A 
ATOM     21  C   UNL     1      -0.503  12.388  18.603  0.00  0.00    +0.000 A 
ATOM     22  C   UNL     1      -1.128  11.227  18.128  0.00  0.00    +0.000 A 
ATOM     23  C   UNL     1      -0.333  10.064  18.052  0.00  0.00    +0.000 A 
BRANCH  22  24
ATOM     24  N   UNL     1      -2.499  11.219  17.732  0.00  0.00    +0.000 N 
ATOM     25  C   UNL     1      -3.574  11.595  18.624  0.00  0.00    +0.000 C 
ATOM     26  C   UNL     1      -4.833  11.095  17.943  0.00  0.00    +0.000 C 
ATOM     27  C   UNL     1      -4.501  11.192  16.469  0.00  0.00    +0.000 C 
ATOM     28  C   UNL     1      -2.995  11.006  16.436  0.00  0.00    +0.000 C 
ATOM     29  O   UNL     1      -2.397  10.749  15.403  0.00  0.00    +0.000 OA
ENDBRANCH  22  24
ENDBRANCH   3  18
TORSDOF 4
ENDMDL
MODEL 3
REMARK VINA RESULT:      -9.3      1.669      3.633
REMARK  Name = 
REMARK  4 active torsions:
REMARK  status: ('A' for Active; 'I' for Inactive)
REMARK    1  A    between atoms: C_2  and  C_16
REMARK    2  A    between atoms: N_3  and  C_4
REMARK    3  A    between atoms: C_8  and  N_9
REMARK    4  A    between atoms: C_18  and  C_19
REMARK                            x       y       z     vdW  Elec       q    Type
REMARK                         _______ _______ _______ _____ _____    ______ ____
ROOT
ATOM      1  O   UNL     1       2.066   7.659  20.313  0.00  0.00    +0.000 OA
ATOM      2  C   UNL     1       2.201   7.610  19.096  0.00  0.00    +0.000 C 
ATOM      3  N   UNL     1       1.742   8.592  18.219  0.00  0.00    +0.000 N 
ATOM      4  H   UNL     1       1.993   8.494  17.249  0.00  0.00    +0.000 HD
ENDROOT
BRANCH   2   5
ATOM      5  C   UNL     1       2.887   6.406  18.445  0.00  0.00    +0.000 A 
ATOM      6  C   UNL     1       3.881   6.628  17.471  0.00  0.00    +0.000 A 
ATOM      7  C   UNL     1       4.542   5.559  16.875  0.00  0.00    +0.000 A 
ATOM      8  N   UNL     1       4.117   4.301  17.080  0.00  0.00    +0.000 NA
ATOM      9  C   UNL     1       3.079   4.070  17.889  0.00  0.00    +0.000 A 
ATOM     10  C   UNL     1       2.562   2.785  17.859  0.00  0.00    +0.000 A 
ATOM     11  C   UNL     1       1.461   2.425  18.628  0.00  0.00    +0.000 A 
ATOM     12  C   UNL     1       0.959   3.328  19.550  0.00  0.00    +0.000 A 
ATOM     13  C   UNL     1       1.485   4.622  19.610  0.00  0.00    +0.000 A 
ATOM     14  C   UNL     1       2.475   5.062  18.691  0.00  0.00    +0.000 A 
BRANCH   7  15
ATOM     15  C   UNL     1       5.786   5.724  16.034  0.00  0.00    +0.000 C 
ATOM     16  C   UNL     1       6.767   4.610  15.773  0.00  0.00    +0.000 C 
ATOM     17  C   UNL     1       7.143   5.728  16.699  0.00  0.00    +0.000 C 
ENDBRANCH   7  15
ENDBRANCH   2   5
BRANCH   3  18
ATOM     18  C   UNL     1       0.994   9.768  18.494  0.00  0.00    +0.000 A 
ATOM     19  C   UNL     1       1.439  10.824  19.282  0.00  0.00    +0.000 A 
ATOM     20  C   UNL     1       0.632  11.950  19.454  0.00  0.00    +0.000 A 
ATOM     21  C   UNL     1      -0.634  12.030  18.857  0.00  0.00    +0.000 A 
ATOM     22  C   UNL     1      -1.140  10.972  18.090  0.00  0.00    +0.000 A 
ATOM     23  C   UNL     1      -0.299   9.853  17.919  0.00  0.00    +0.000 A 
BRANCH  22  24
ATOM     24  N   UNL     1      -2.438  11.024  17.501  0.00  0.00    +0.000 N 
ATOM     25  C   UNL     1      -2.748  10.408  16.229  0.00  0.00    +0.000 C 
ATOM     26  C   UNL     1      -4.079  11.009  15.822  0.00  0.00    +0.000 C 
ATOM     27  C   UNL     1      -4.766  11.277  17.144  0.00  0.00    +0.000 C 
ATOM     28  C   UNL     1      -3.609  11.520  18.097  0.00  0.00    +0.000 C 
ATOM     29  O   UNL     1      -3.771  12.037  19.192  0.00  0.00    +0.000 OA
ENDBRANCH  22  24
ENDBRANCH   3  18
TORSDOF 4
ENDMDL
MODEL 4
REMARK VINA RESULT:      -9.2      2.649      5.154
REMARK  Name = 
REMARK  4 active torsions:
REMARK  status: ('A' for Active; 'I' for Inactive)
REMARK    1  A    between atoms: C_2  and  C_16
REMARK    2  A    between atoms: N_3  and  C_4
REMARK    3  A    between atoms: C_8  and  N_9
REMARK    4  A    between atoms: C_18  and  C_19
REMARK                            x       y       z     vdW  Elec       q    Type
REMARK                         _______ _______ _______ _____ _____    ______ ____
ROOT
ATOM      1  O   UNL     1       2.228   7.575  20.058  0.00  0.00    +0.000 OA
ATOM      2  C   UNL     1       2.330   7.465  18.843  0.00  0.00    +0.000 C 
ATOM      3  N   UNL     1       1.885   8.421  17.931  0.00  0.00    +0.000 N 
ATOM      4  H   UNL     1       2.108   8.270  16.961  0.00  0.00    +0.000 HD
ENDROOT
BRANCH   2   5
ATOM      5  C   UNL     1       2.958   6.208  18.232  0.00  0.00    +0.000 A 
ATOM      6  C   UNL     1       3.943   6.349  17.235  0.00  0.00    +0.000 A 
ATOM      7  C   UNL     1       4.551   5.231  16.675  0.00  0.00    +0.000 A 
ATOM      8  N   UNL     1       4.080   4.000  16.940  0.00  0.00    +0.000 NA
ATOM      9  C   UNL     1       3.048   3.845  17.774  0.00  0.00    +0.000 A 
ATOM     10  C   UNL     1       2.481   2.582  17.808  0.00  0.00    +0.000 A 
ATOM     11  C   UNL     1       1.380   2.299  18.609  0.00  0.00    +0.000 A 
ATOM     12  C   UNL     1       0.930   3.259  19.499  0.00  0.00    +0.000 A 
ATOM     13  C   UNL     1       1.507   4.532  19.495  0.00  0.00    +0.000 A 
ATOM     14  C   UNL     1       2.497   4.894  18.543  0.00  0.00    +0.000 A 
BRANCH   7  15
ATOM     15  C   UNL     1       5.785   5.310  15.808  0.00  0.00    +0.000 C 
ATOM     16  C   UNL     1       6.361   4.128  15.071  0.00  0.00    +0.000 C 
ATOM     17  C   UNL     1       7.070   4.668  16.277  0.00  0.00    +0.000 C 
ENDBRANCH   7  15
ENDBRANCH   2   5
BRANCH   3  18
ATOM     18  C   UNL     1       1.185   9.635  18.168  0.00  0.00    +0.000 A 
ATOM     19  C   UNL     1      -0.196   9.782  18.093  0.00  0.00    +0.000 A 
ATOM     20  C   UNL     1      -0.780  11.017  18.383  0.00  0.00    +0.000 A 
ATOM     21  C   UNL     1       0.006  12.122  18.735  0.00  0.00    +0.000 A 
ATOM     22  C   UNL     1       1.404  12.032  18.781  0.00  0.00    +0.000 A 
ATOM     23  C   UNL     1       1.968  10.769  18.499  0.00  0.00    +0.000 A 
BRANCH  22  24
ATOM     24  N   UNL     1       2.220  13.155  19.107  0.00  0.00    +0.000 N 
ATOM     25  C   UNL     1       2.843  13.989  18.101  0.00  0.00    +0.000 C 
ATOM     26  C   UNL     1       3.882  14.794  18.857  0.00  0.00    +0.000 C 
ATOM     27  C   UNL     1       3.277  14.949  20.236  0.00  0.00    +0.000 C 
ATOM     28  C   UNL     1       2.420  13.704  20.384  0.00  0.00    +0.000 C 
ATOM     29  O   UNL     1       1.992  13.338  21.468  0.00  0.00    +0.000 OA
ENDBRANCH  22  24
ENDBRANCH   3  18
TORSDOF 4
ENDMDL
MODEL 5
REMARK VINA RESULT:      -9.0      2.691      4.721
REMARK  Name = 
REMARK  4 active torsions:
REMARK  status: ('A' for Active; 'I' for Inactive)
REMARK    1  A    between atoms: C_2  and  C_16
REMARK    2  A    between atoms: N_3  and  C_4
REMARK    3  A    between atoms: C_8  and  N_9
REMARK    4  A    between atoms: C_18  and  C_19
REMARK                            x       y       z     vdW  Elec       q    Type
REMARK                         _______ _______ _______ _____ _____    ______ ____
ROOT
ATOM      1  O   UNL     1       1.966   7.877  18.610  0.00  0.00    +0.000 OA
ATOM      2  C   UNL     1       2.207   7.214  19.611  0.00  0.00    +0.000 C 
ATOM      3  N   UNL     1       1.737   7.525  20.887  0.00  0.00    +0.000 N 
ATOM      4  H   UNL     1       1.917   6.858  21.617  0.00  0.00    +0.000 HD
ENDROOT
BRANCH   2   5
ATOM      5  C   UNL     1       3.093   5.969  19.516  0.00  0.00    +0.000 A 
ATOM      6  C   UNL     1       4.452   6.119  19.175  0.00  0.00    +0.000 A 
ATOM      7  C   UNL     1       5.292   5.014  19.102  0.00  0.00    +0.000 A 
ATOM      8  N   UNL     1       4.784   3.772  19.173  0.00  0.00    +0.000 NA
ATOM      9  C   UNL     1       3.472   3.596  19.352  0.00  0.00    +0.000 A 
ATOM     10  C   UNL     1       3.005   2.303  19.178  0.00  0.00    +0.000 A 
ATOM     11  C   UNL     1       1.655   1.994  19.302  0.00  0.00    +0.000 A 
ATOM     12  C   UNL     1       0.779   2.969  19.750  0.00  0.00    +0.000 A 
ATOM     13  C   UNL     1       1.238   4.273  19.954  0.00  0.00    +0.000 A 
ATOM     14  C   UNL     1       2.572   4.646  19.637  0.00  0.00    +0.000 A 
BRANCH   7  15
ATOM     15  C   UNL     1       6.796   5.125  19.007  0.00  0.00    +0.000 C 
ATOM     16  C   UNL     1       7.501   6.201  18.221  0.00  0.00    +0.000 C 
ATOM     17  C   UNL     1       7.488   4.794  17.705  0.00  0.00    +0.000 C 
ENDBRANCH   7  15
ENDBRANCH   2   5
BRANCH   3  18
ATOM     18  C   UNL     1       0.980   8.648  21.320  0.00  0.00    +0.000 A 
ATOM     19  C   UNL     1       0.067   8.631  22.368  0.00  0.00    +0.000 A 
ATOM     20  C   UNL     1      -0.594   9.806  22.732  0.00  0.00    +0.000 A 
ATOM     21  C   UNL     1      -0.365  11.006  22.045  0.00  0.00    +0.000 A 
ATOM     22  C   UNL     1       0.514  11.060  20.956  0.00  0.00    +0.000 A 
ATOM     23  C   UNL     1       1.181   9.862  20.618  0.00  0.00    +0.000 A 
BRANCH  22  24
ATOM     24  N   UNL     1       0.735  12.265  20.226  0.00  0.00    +0.000 N 
ATOM     25  C   UNL     1      -0.159  12.727  19.186  0.00  0.00    +0.000 C 
ATOM     26  C   UNL     1       0.625  13.795  18.449  0.00  0.00    +0.000 C 
ATOM     27  C   UNL     1       1.511  14.389  19.523  0.00  0.00    +0.000 C 
ATOM     28  C   UNL     1       1.720  13.233  20.484  0.00  0.00    +0.000 C 
ATOM     29  O   UNL     1       2.600  13.245  21.330  0.00  0.00    +0.000 OA
ENDBRANCH  22  24
ENDBRANCH   3  18
TORSDOF 4
ENDMDL
MODEL 6
REMARK VINA RESULT:      -9.0      1.085      1.408
REMARK  Name = 
REMARK  4 active torsions:
REMARK  status: ('A' for Active; 'I' for Inactive)
REMARK    1  A    between atoms: C_2  and  C_16
REMARK    2  A    between atoms: N_3  and  C_4
REMARK    3  A    between atoms: C_8  and  N_9
REMARK    4  A    between atoms: C_18  and  C_19
REMARK                            x       y       z     vdW  Elec       q    Type
REMARK                         _______ _______ _______ _____ _____    ______ ____
ROOT
ATOM      1  O   UNL     1       2.601   8.444  17.079  0.00  0.00    +0.000 OA
ATOM      2  C   UNL     1       2.431   7.891  18.159  0.00  0.00    +0.000 C 
ATOM      3  N   UNL     1       1.615   8.390  19.173  0.00  0.00    +0.000 N 
ATOM      4  H   UNL     1       1.474   7.804  19.979  0.00  0.00    +0.000 HD
ENDROOT
BRANCH   2   5
ATOM      5  C   UNL     1       3.156   6.579  18.475  0.00  0.00    +0.000 A 
ATOM      6  C   UNL     1       2.511   5.615  19.275  0.00  0.00    +0.000 A 
ATOM      7  C   UNL     1       3.129   4.404  19.563  0.00  0.00    +0.000 A 
ATOM      8  N   UNL     1       4.419   4.209  19.242  0.00  0.00    +0.000 NA
ATOM      9  C   UNL     1       5.102   5.166  18.609  0.00  0.00    +0.000 A 
ATOM     10  C   UNL     1       6.472   4.980  18.526  0.00  0.00    +0.000 A 
ATOM     11  C   UNL     1       7.301   5.920  17.923  0.00  0.00    +0.000 A 
ATOM     12  C   UNL     1       6.729   6.995  17.263  0.00  0.00    +0.000 A 
ATOM     13  C   UNL     1       5.346   7.185  17.315  0.00  0.00    +0.000 A 
ATOM     14  C   UNL     1       4.512   6.342  18.097  0.00  0.00    +0.000 A 
BRANCH   7  15
ATOM     15  C   UNL     1       2.402   3.232  20.181  0.00  0.00    +0.000 C 
ATOM     16  C   UNL     1       0.976   3.302  20.666  0.00  0.00    +0.000 C 
ATOM     17  C   UNL     1       2.096   3.240  21.661  0.00  0.00    +0.000 C 
ENDBRANCH   7  15
ENDBRANCH   2   5
BRANCH   3  18
ATOM     18  C   UNL     1       0.891   9.611  19.229  0.00  0.00    +0.000 A 
ATOM     19  C   UNL     1       1.237  10.702  20.018  0.00  0.00    +0.000 A 
ATOM     20  C   UNL     1       0.472  11.869  19.965  0.00  0.00    +0.000 A 
ATOM     21  C   UNL     1      -0.656  11.955  19.137  0.00  0.00    +0.000 A 
ATOM     22  C   UNL     1      -1.067  10.866  18.358  0.00  0.00    +0.000 A 
ATOM     23  C   UNL     1      -0.268   9.705  18.418  0.00  0.00    +0.000 A 
BRANCH  22  24
ATOM     24  N   UNL     1      -2.231  10.926  17.534  0.00  0.00    +0.000 N 
ATOM     25  C   UNL     1      -2.299  10.309  16.227  0.00  0.00    +0.000 C 
ATOM     26  C   UNL     1      -3.524  10.919  15.576  0.00  0.00    +0.000 C 
ATOM     27  C   UNL     1      -4.447  11.195  16.744  0.00  0.00    +0.000 C 
ATOM     28  C   UNL     1      -3.489  11.432  17.898  0.00  0.00    +0.000 C 
ATOM     29  O   UNL     1      -3.850  11.952  18.942  0.00  0.00    +0.000 OA
ENDBRANCH  22  24
ENDBRANCH   3  18
TORSDOF 4
ENDMDL
MODEL 7
REMARK VINA RESULT:      -9.0      0.945      1.199
REMARK  Name = 
REMARK  4 active torsions:
REMARK  status: ('A' for Active; 'I' for Inactive)
REMARK    1  A    between atoms: C_2  and  C_16
REMARK    2  A    between atoms: N_3  and  C_4
REMARK    3  A    between atoms: C_8  and  N_9
REMARK    4  A    between atoms: C_18  and  C_19
REMARK                            x       y       z     vdW  Elec       q    Type
REMARK                         _______ _______ _______ _____ _____    ______ ____
ROOT
ATOM      1  O   UNL     1       2.913   8.928  17.098  0.00  0.00    +0.000 OA
ATOM      2  C   UNL     1       2.395   8.381  18.064  0.00  0.00    +0.000 C 
ATOM      3  N   UNL     1       1.382   8.950  18.835  0.00  0.00    +0.000 N 
ATOM      4  H   UNL     1       0.965   8.371  19.544  0.00  0.00    +0.000 HD
ENDROOT
BRANCH   2   5
ATOM      5  C   UNL     1       2.869   6.995  18.510  0.00  0.00    +0.000 A 
ATOM      6  C   UNL     1       2.300   6.412  19.659  0.00  0.00    +0.000 A 
ATOM      7  C   UNL     1       2.689   5.146  20.080  0.00  0.00    +0.000 A 
ATOM      8  N   UNL     1       3.742   4.537  19.510  0.00  0.00    +0.000 NA
ATOM      9  C   UNL     1       4.395   5.131  18.508  0.00  0.00    +0.000 A 
ATOM     10  C   UNL     1       5.597   4.550  18.139  0.00  0.00    +0.000 A 
ATOM     11  C   UNL     1       6.390   5.091  17.134  0.00  0.00    +0.000 A 
ATOM     12  C   UNL     1       5.901   6.151  16.387  0.00  0.00    +0.000 A 
ATOM     13  C   UNL     1       4.679   6.734  16.730  0.00  0.00    +0.000 A 
ATOM     14  C   UNL     1       3.956   6.317  17.880  0.00  0.00    +0.000 A 
BRANCH   7  15
ATOM     15  C   UNL     1       1.941   4.360  21.132  0.00  0.00    +0.000 C 
ATOM     16  C   UNL     1       2.321   2.963  21.553  0.00  0.00    +0.000 C 
ATOM     17  C   UNL     1       1.093   3.179  20.720  0.00  0.00    +0.000 C 
ENDBRANCH   7  15
ENDBRANCH   2   5
BRANCH   3  18
ATOM     18  C   UNL     1       0.796  10.241  18.742  0.00  0.00    +0.000 A 
ATOM     19  C   UNL     1       1.482  11.438  18.925  0.00  0.00    +0.000 A 
ATOM     20  C   UNL     1       0.811  12.653  18.772  0.00  0.00    +0.000 A 
ATOM     21  C   UNL     1      -0.553  12.690  18.452  0.00  0.00    +0.000 A 
ATOM     22  C   UNL     1      -1.293  11.509  18.301  0.00  0.00    +0.000 A 
ATOM     23  C   UNL     1      -0.589  10.295  18.446  0.00  0.00    +0.000 A 
BRANCH  22  24
ATOM     24  N   UNL     1      -2.689  11.529  18.007  0.00  0.00    +0.000 N 
ATOM     25  C   UNL     1      -3.246  10.939  16.809  0.00  0.00    +0.000 C 
ATOM     26  C   UNL     1      -4.651  11.501  16.719  0.00  0.00    +0.000 C 
ATOM     27  C   UNL     1      -5.045  11.703  18.167  0.00  0.00    +0.000 C 
ATOM     28  C   UNL     1      -3.719  11.962  18.858  0.00  0.00    +0.000 C 
ATOM     29  O   UNL     1      -3.656  12.440  19.980  0.00  0.00    +0.000 OA
ENDBRANCH  22  24
ENDBRANCH   3  18
TORSDOF 4
ENDMDL
MODEL 8
REMARK VINA RESULT:      -9.0      2.322      4.370
REMARK  Name = 
REMARK  4 active torsions:
REMARK  status: ('A' for Active; 'I' for Inactive)
REMARK    1  A    between atoms: C_2  and  C_16
REMARK    2  A    between atoms: N_3  and  C_4
REMARK    3  A    between atoms: C_8  and  N_9
REMARK    4  A    between atoms: C_18  and  C_19
REMARK                            x       y       z     vdW  Elec       q    Type
REMARK                         _______ _______ _______ _____ _____    ______ ____
ROOT
ATOM      1  O   UNL     1       1.990   7.871  18.594  0.00  0.00    +0.000 OA
ATOM      2  C   UNL     1       2.237   7.217  19.600  0.00  0.00    +0.000 C 
ATOM      3  N   UNL     1       1.771   7.538  20.875  0.00  0.00    +0.000 N 
ATOM      4  H   UNL     1       1.957   6.878  21.611  0.00  0.00    +0.000 HD
ENDROOT
BRANCH   2   5
ATOM      5  C   UNL     1       3.127   5.974  19.513  0.00  0.00    +0.000 A 
ATOM      6  C   UNL     1       4.486   6.126  19.174  0.00  0.00    +0.000 A 
ATOM      7  C   UNL     1       5.329   5.023  19.108  0.00  0.00    +0.000 A 
ATOM      8  N   UNL     1       4.824   3.780  19.182  0.00  0.00    +0.000 NA
ATOM      9  C   UNL     1       3.513   3.601  19.358  0.00  0.00    +0.000 A 
ATOM     10  C   UNL     1       3.049   2.307  19.189  0.00  0.00    +0.000 A 
ATOM     11  C   UNL     1       1.700   1.994  19.311  0.00  0.00    +0.000 A 
ATOM     12  C   UNL     1       0.820   2.969  19.752  0.00  0.00    +0.000 A 
ATOM     13  C   UNL     1       1.275   4.275  19.952  0.00  0.00    +0.000 A 
ATOM     14  C   UNL     1       2.609   4.650  19.637  0.00  0.00    +0.000 A 
BRANCH   7  15
ATOM     15  C   UNL     1       6.833   5.138  19.016  0.00  0.00    +0.000 C 
ATOM     16  C   UNL     1       7.539   6.299  18.363  0.00  0.00    +0.000 C 
ATOM     17  C   UNL     1       7.514   4.965  17.678  0.00  0.00    +0.000 C 
ENDBRANCH   7  15
ENDBRANCH   2   5
BRANCH   3  18
ATOM     18  C   UNL     1       1.013   8.662  21.301  0.00  0.00    +0.000 A 
ATOM     19  C   UNL     1       0.264   8.715  22.472  0.00  0.00    +0.000 A 
ATOM     20  C   UNL     1      -0.413   9.888  22.810  0.00  0.00    +0.000 A 
ATOM     21  C   UNL     1      -0.365  11.015  21.979  0.00  0.00    +0.000 A 
ATOM     22  C   UNL     1       0.342  10.993  20.769  0.00  0.00    +0.000 A 
ATOM     23  C   UNL     1       1.030   9.801  20.458  0.00  0.00    +0.000 A 
BRANCH  22  24
ATOM     24  N   UNL     1       0.375  12.121  19.896  0.00  0.00    +0.000 N 
ATOM     25  C   UNL     1       1.595  12.832  19.580  0.00  0.00    +0.000 C 
ATOM     26  C   UNL     1       1.132  14.132  18.953  0.00  0.00    +0.000 C 
ATOM     27  C   UNL     1      -0.165  13.754  18.269  0.00  0.00    +0.000 C 
ATOM     28  C   UNL     1      -0.687  12.608  19.117  0.00  0.00    +0.000 C 
ATOM     29  O   UNL     1      -1.843  12.222  19.042  0.00  0.00    +0.000 OA
ENDBRANCH  22  24
ENDBRANCH   3  18
TORSDOF 4
ENDMDL
MODEL 9
REMARK VINA RESULT:      -8.8      2.406      4.344
REMARK  Name = 
REMARK  4 active torsions:
REMARK  status: ('A' for Active; 'I' for Inactive)
REMARK    1  A    between atoms: C_2  and  C_16
REMARK    2  A    between atoms: N_3  and  C_4
REMARK    3  A    between atoms: C_8  and  N_9
REMARK    4  A    between atoms: C_18  and  C_19
REMARK                            x       y       z     vdW  Elec       q    Type
REMARK                         _______ _______ _______ _____ _____    ______ ____
ROOT
ATOM      1  O   UNL     1       1.750   8.135  17.813  0.00  0.00    +0.000 OA
ATOM      2  C   UNL     1       2.285   7.481  18.700  0.00  0.00    +0.000 C 
ATOM      3  N   UNL     1       2.026   7.648  20.060  0.00  0.00    +0.000 N 
ATOM      4  H   UNL     1       2.450   6.990  20.692  0.00  0.00    +0.000 HD
ENDROOT
BRANCH   2   5
ATOM      5  C   UNL     1       3.327   6.415  18.349  0.00  0.00    +0.000 A 
ATOM      6  C   UNL     1       4.603   6.820  17.911  0.00  0.00    +0.000 A 
ATOM      7  C   UNL     1       5.581   5.881  17.606  0.00  0.00    +0.000 A 
ATOM      8  N   UNL     1       5.269   4.575  17.545  0.00  0.00    +0.000 NA
ATOM      9  C   UNL     1       4.025   4.172  17.815  0.00  0.00    +0.000 A 
ATOM     10  C   UNL     1       3.734   2.854  17.502  0.00  0.00    +0.000 A 
ATOM     11  C   UNL     1       2.465   2.321  17.702  0.00  0.00    +0.000 A 
ATOM     12  C   UNL     1       1.512   3.079  18.361  0.00  0.00    +0.000 A 
ATOM     13  C   UNL     1       1.797   4.404  18.706  0.00  0.00    +0.000 A 
ATOM     14  C   UNL     1       3.020   5.021  18.327  0.00  0.00    +0.000 A 
BRANCH   7  15
ATOM     15  C   UNL     1       7.032   6.241  17.392  0.00  0.00    +0.000 C 
ATOM     16  C   UNL     1       7.950   6.689  18.501  0.00  0.00    +0.000 C 
ATOM     17  C   UNL     1       7.466   7.686  17.490  0.00  0.00    +0.000 C 
ENDBRANCH   7  15
ENDBRANCH   2   5
BRANCH   3  18
ATOM     18  C   UNL     1       1.196   8.601  20.708  0.00  0.00    +0.000 A 
ATOM     19  C   UNL     1       0.457   8.355  21.861  0.00  0.00    +0.000 A 
ATOM     20  C   UNL     1      -0.297   9.380  22.435  0.00  0.00    +0.000 A 
ATOM     21  C   UNL     1      -0.338  10.657  21.858  0.00  0.00    +0.000 A 
ATOM     22  C   UNL     1       0.355  10.938  20.673  0.00  0.00    +0.000 A 
ATOM     23  C   UNL     1       1.122   9.889  20.122  0.00  0.00    +0.000 A 
BRANCH  22  24
ATOM     24  N   UNL     1       0.299  12.222  20.055  0.00  0.00    +0.000 N 
ATOM     25  C   UNL     1       1.218  13.291  20.384  0.00  0.00    +0.000 C 
ATOM     26  C   UNL     1       0.584  14.538  19.799  0.00  0.00    +0.000 C 
ATOM     27  C   UNL     1      -0.161  14.022  18.587  0.00  0.00    +0.000 C 
ATOM     28  C   UNL     1      -0.513  12.596  18.973  0.00  0.00    +0.000 C 
ATOM     29  O   UNL     1      -1.351  11.949  18.364  0.00  0.00    +0.000 OA
ENDBRANCH  22  24
ENDBRANCH   3  18
TORSDOF 4
ENDMDL
