MODEL 1
REMARK VINA RESULT:      -9.5      0.000      0.000
REMARK  Name = 
REMARK  5 active torsions:
REMARK  status: ('A' for Active; 'I' for Inactive)
REMARK    1  A    between atoms: C_1  and  C_2
REMARK    2  A    between atoms: C_5  and  N_6
REMARK    3  A    between atoms: C_7  and  C_9
REMARK    4  A    between atoms: C_9  and  O_10
REMARK    5  A    between atoms: O_10  and  C_11
REMARK                            x       y       z     vdW  Elec       q    Type
REMARK                         _______ _______ _______ _____ _____    ______ ____
ROOT
ATOM      1  C   UNL     1       6.135   6.219  17.090  0.00  0.00    +0.000 A 
ATOM      2  C   UNL     1       5.346   6.386  18.211  0.00  0.00    +0.000 A 
ATOM      3  C   UNL     1       4.334   5.485  18.526  0.00  0.00    +0.000 A 
ATOM      4  O   UNL     1       3.670   5.868  19.707  0.00  0.00    +0.000 OA
ATOM      5  C   UNL     1       2.413   5.399  19.943  0.00  0.00    +0.000 A 
ATOM      6  O   UNL     1       1.645   5.927  20.730  0.00  0.00    +0.000 OA
ATOM      7  C   UNL     1       2.087   4.160  19.232  0.00  0.00    +0.000 A 
ATOM      8  C   UNL     1       2.789   3.614  18.227  0.00  0.00    +0.000 A 
ATOM      9  C   UNL     1       3.988   4.368  17.765  0.00  0.00    +0.000 A 
ATOM     10  C   UNL     1       4.815   4.145  16.648  0.00  0.00    +0.000 A 
ATOM     11  C   UNL     1       5.886   5.061  16.324  0.00  0.00    +0.000 A 
ATOM     12 CL   UNL     1       6.872   4.700  14.953  0.00  0.00    +0.000 Cl
ATOM     13  C   UNL     1       2.122   2.345  17.809  0.00  0.00    +0.000 C 
ATOM     14  C   UNL     1       0.889   2.216  18.745  0.00  0.00    +0.000 C 
ATOM     15  C   UNL     1       0.884   3.427  19.669  0.00  0.00    +0.000 C 
ENDROOT
BRANCH   1  16
ATOM     16  O   UNL     1       7.136   7.120  16.755  0.00  0.00    +0.000 OA
BRANCH  16  17
ATOM     17  C   UNL     1       7.952   7.551  17.856  0.00  0.00    +0.000 C 
BRANCH  17  19
ATOM     18  N   UNL     1       9.164   9.296  19.098  0.00  0.00    +0.000 N 
ATOM     19  C   UNL     1       8.239   9.044  18.108  0.00  0.00    +0.000 C 
ATOM     20  O   UNL     1       7.604   9.888  17.478  0.00  0.00    +0.000 OA
ATOM     21  H   UNL     1       9.608   8.479  19.503  0.00  0.00    +0.000 HD
BRANCH  18  26
ATOM     22  C   UNL     1      10.862  14.515  20.807  0.00  0.00    +0.000 C 
ATOM     23  C   UNL     1      10.424  13.140  20.393  0.00  0.00    +0.000 A 
ATOM     24  C   UNL     1       9.643  12.349  21.240  0.00  0.00    +0.000 A 
ATOM     25  C   UNL     1       9.220  11.073  20.841  0.00  0.00    +0.000 A 
ATOM     26  C   UNL     1       9.565  10.562  19.586  0.00  0.00    +0.000 A 
ATOM     27  C   UNL     1      10.361  11.349  18.747  0.00  0.00    +0.000 A 
ATOM     28  C   UNL     1      10.784  12.626  19.144  0.00  0.00    +0.000 A 
ENDBRANCH  18  26
ENDBRANCH  17  19
ENDBRANCH  16  17
ENDBRANCH   1  16
TORSDOF 4
ENDMDL
MODEL 2
REMARK VINA RESULT:      -9.4      5.361      7.140
REMARK  Name = 
REMARK  5 active torsions:
REMARK  status: ('A' for Active; 'I' for Inactive)
REMARK    1  A    between atoms: C_1  and  C_2
REMARK    2  A    between atoms: C_5  and  N_6
REMARK    3  A    between atoms: C_7  and  C_9
REMARK    4  A    between atoms: C_9  and  O_10
REMARK    5  A    between atoms: O_10  and  C_11
REMARK                            x       y       z     vdW  Elec       q    Type
REMARK                         _______ _______ _______ _____ _____    ______ ____
ROOT
ATOM      1  C   UNL     1       3.325   2.928  19.591  0.00  0.00    +0.000 A 
ATOM      2  C   UNL     1       4.582   3.491  19.492  0.00  0.00    +0.000 A 
ATOM      3  C   UNL     1       5.113   3.867  18.262  0.00  0.00    +0.000 A 
ATOM      4  O   UNL     1       6.402   4.412  18.417  0.00  0.00    +0.000 OA
ATOM      5  C   UNL     1       7.246   4.431  17.348  0.00  0.00    +0.000 A 
ATOM      6  O   UNL     1       8.455   4.552  17.460  0.00  0.00    +0.000 OA
ATOM      7  C   UNL     1       6.575   4.372  16.047  0.00  0.00    +0.000 A 
ATOM      8  C   UNL     1       5.288   4.063  15.831  0.00  0.00    +0.000 A 
ATOM      9  C   UNL     1       4.479   3.702  17.030  0.00  0.00    +0.000 A 
ATOM     10  C   UNL     1       3.174   3.182  17.111  0.00  0.00    +0.000 A 
ATOM     11  C   UNL     1       2.602   2.809  18.386  0.00  0.00    +0.000 A 
ATOM     12 CL   UNL     1       0.984   2.206  18.401  0.00  0.00    +0.000 Cl
ATOM     13  C   UNL     1       5.012   4.146  14.366  0.00  0.00    +0.000 C 
ATOM     14  C   UNL     1       6.366   4.565  13.730  0.00  0.00    +0.000 C 
ATOM     15  C   UNL     1       7.382   4.701  14.856  0.00  0.00    +0.000 C 
ENDROOT
BRANCH   1  16
ATOM     16  O   UNL     1       2.792   2.531  20.810  0.00  0.00    +0.000 OA
BRANCH  16  17
ATOM     17  C   UNL     1       2.189   3.586  21.575  0.00  0.00    +0.000 C 
BRANCH  17  19
ATOM     18  N   UNL     1       2.276   5.948  20.888  0.00  0.00    +0.000 N 
ATOM     19  C   UNL     1       1.520   4.796  20.892  0.00  0.00    +0.000 C 
ATOM     20  O   UNL     1       0.373   4.679  20.465  0.00  0.00    +0.000 OA
ATOM     21  H   UNL     1       3.212   5.861  21.266  0.00  0.00    +0.000 HD
BRANCH  18  26
ATOM     22  C   UNL     1       0.755  11.009  18.627  0.00  0.00    +0.000 C 
ATOM     23  C   UNL     1       1.159   9.704  19.248  0.00  0.00    +0.000 A 
ATOM     24  C   UNL     1       0.810   9.395  20.564  0.00  0.00    +0.000 A 
ATOM     25  C   UNL     1       1.173   8.166  21.134  0.00  0.00    +0.000 A 
ATOM     26  C   UNL     1       1.888   7.218  20.398  0.00  0.00    +0.000 A 
ATOM     27  C   UNL     1       2.251   7.535  19.084  0.00  0.00    +0.000 A 
ATOM     28  C   UNL     1       1.889   8.764  18.513  0.00  0.00    +0.000 A 
ENDBRANCH  18  26
ENDBRANCH  17  19
ENDBRANCH  16  17
ENDBRANCH   1  16
TORSDOF 4
ENDMDL
MODEL 3
REMARK VINA RESULT:      -8.9      1.580      1.688
REMARK  Name = 
REMARK  5 active torsions:
REMARK  status: ('A' for Active; 'I' for Inactive)
REMARK    1  A    between atoms: C_1  and  C_2
REMARK    2  A    between atoms: C_5  and  N_6
REMARK    3  A    between atoms: C_7  and  C_9
REMARK    4  A    between atoms: C_9  and  O_10
REMARK    5  A    between atoms: O_10  and  C_11
REMARK                            x       y       z     vdW  Elec       q    Type
REMARK                         _______ _______ _______ _____ _____    ______ ____
ROOT
ATOM      1  C   UNL     1       6.362   5.621  17.447  0.00  0.00    +0.000 A 
ATOM      2  C   UNL     1       6.252   4.623  18.395  0.00  0.00    +0.000 A 
ATOM      3  C   UNL     1       5.040   3.983  18.637  0.00  0.00    +0.000 A 
ATOM      4  O   UNL     1       5.178   3.010  19.645  0.00  0.00    +0.000 OA
ATOM      5  C   UNL     1       4.072   2.596  20.324  0.00  0.00    +0.000 A 
ATOM      6  O   UNL     1       4.128   2.041  21.409  0.00  0.00    +0.000 OA
ATOM      7  C   UNL     1       2.811   2.802  19.605  0.00  0.00    +0.000 A 
ATOM      8  C   UNL     1       2.637   3.552  18.507  0.00  0.00    +0.000 A 
ATOM      9  C   UNL     1       3.835   4.279  17.999  0.00  0.00    +0.000 A 
ATOM     10  C   UNL     1       3.935   5.253  16.989  0.00  0.00    +0.000 A 
ATOM     11  C   UNL     1       5.193   5.909  16.711  0.00  0.00    +0.000 A 
ATOM     12 CL   UNL     1       5.236   7.071  15.436  0.00  0.00    +0.000 Cl
ATOM     13  C   UNL     1       1.206   3.467  18.088  0.00  0.00    +0.000 C 
ATOM     14  C   UNL     1       0.542   2.526  19.130  0.00  0.00    +0.000 C 
ATOM     15  C   UNL     1       1.618   2.106  20.123  0.00  0.00    +0.000 C 
ENDROOT
BRANCH   1  16
ATOM     16  O   UNL     1       7.560   6.279  17.209  0.00  0.00    +0.000 OA
BRANCH  16  17
ATOM     17  C   UNL     1       8.065   7.032  18.323  0.00  0.00    +0.000 C 
BRANCH  17  19
ATOM     18  N   UNL     1       9.158   9.090  19.116  0.00  0.00    +0.000 N 
ATOM     19  C   UNL     1       8.221   8.564  18.254  0.00  0.00    +0.000 C 
ATOM     20  O   UNL     1       7.482   9.205  17.507  0.00  0.00    +0.000 OA
ATOM     21  H   UNL     1       9.694   8.413  19.648  0.00  0.00    +0.000 HD
BRANCH  18  26
ATOM     22  C   UNL     1      10.367  14.685  19.641  0.00  0.00    +0.000 C 
ATOM     23  C   UNL     1      10.066  13.218  19.535  0.00  0.00    +0.000 A 
ATOM     24  C   UNL     1       9.631  12.492  20.646  0.00  0.00    +0.000 A 
ATOM     25  C   UNL     1       9.332  11.125  20.538  0.00  0.00    +0.000 A 
ATOM     26  C   UNL     1       9.458  10.458  19.317  0.00  0.00    +0.000 A 
ATOM     27  C   UNL     1       9.909  11.184  18.209  0.00  0.00    +0.000 A 
ATOM     28  C   UNL     1      10.208  12.551  18.315  0.00  0.00    +0.000 A 
ENDBRANCH  18  26
ENDBRANCH  17  19
ENDBRANCH  16  17
ENDBRANCH   1  16
TORSDOF 4
ENDMDL
MODEL 4
REMARK VINA RESULT:      -8.8      6.376      8.341
REMARK  Name = 
REMARK  5 active torsions:
REMARK  status: ('A' for Active; 'I' for Inactive)
REMARK    1  A    between atoms: C_1  and  C_2
REMARK    2  A    between atoms: C_5  and  N_6
REMARK    3  A    between atoms: C_7  and  C_9
REMARK    4  A    between atoms: C_9  and  O_10
REMARK    5  A    between atoms: O_10  and  C_11
REMARK                            x       y       z     vdW  Elec       q    Type
REMARK                         _______ _______ _______ _____ _____    ______ ____
ROOT
ATOM      1  C   UNL     1       1.580   8.139  20.087  0.00  0.00    +0.000 A 
ATOM      2  C   UNL     1       1.609   6.967  20.817  0.00  0.00    +0.000 A 
ATOM      3  C   UNL     1       2.071   5.778  20.261  0.00  0.00    +0.000 A 
ATOM      4  O   UNL     1       2.001   4.726  21.196  0.00  0.00    +0.000 OA
ATOM      5  C   UNL     1       1.981   3.441  20.747  0.00  0.00    +0.000 A 
ATOM      6  O   UNL     1       1.583   2.507  21.424  0.00  0.00    +0.000 OA
ATOM      7  C   UNL     1       2.551   3.259  19.409  0.00  0.00    +0.000 A 
ATOM      8  C   UNL     1       2.843   4.232  18.532  0.00  0.00    +0.000 A 
ATOM      9  C   UNL     1       2.513   5.625  18.947  0.00  0.00    +0.000 A 
ATOM     10  C   UNL     1       2.545   6.817  18.201  0.00  0.00    +0.000 A 
ATOM     11  C   UNL     1       2.091   8.064  18.774  0.00  0.00    +0.000 A 
ATOM     12 CL   UNL     1       2.190   9.486  17.801  0.00  0.00    +0.000 Cl
ATOM     13  C   UNL     1       3.427   3.613  17.305  0.00  0.00    +0.000 C 
ATOM     14  C   UNL     1       3.440   2.087  17.596  0.00  0.00    +0.000 C 
ATOM     15  C   UNL     1       2.852   1.878  18.985  0.00  0.00    +0.000 C 
ENDROOT
BRANCH   1  16
ATOM     16  O   UNL     1       1.105   9.327  20.624  0.00  0.00    +0.000 OA
BRANCH  16  17
ATOM     17  C   UNL     1      -0.098   9.201  21.398  0.00  0.00    +0.000 C 
BRANCH  17  19
ATOM     18  N   UNL     1      -1.243  11.279  22.052  0.00  0.00    +0.000 N 
ATOM     19  C   UNL     1      -0.466  10.227  22.487  0.00  0.00    +0.000 C 
ATOM     20  O   UNL     1      -0.009  10.084  23.621  0.00  0.00    +0.000 OA
ATOM     21  H   UNL     1      -1.549  11.228  21.087  0.00  0.00    +0.000 HD
BRANCH  18  26
ATOM     22  C   UNL     1      -3.177  15.645  25.252  0.00  0.00    +0.000 C 
ATOM     23  C   UNL     1      -2.658  14.528  24.394  0.00  0.00    +0.000 A 
ATOM     24  C   UNL     1      -1.389  14.597  23.814  0.00  0.00    +0.000 A 
ATOM     25  C   UNL     1      -0.900  13.542  23.029  0.00  0.00    +0.000 A 
ATOM     26  C   UNL     1      -1.667  12.395  22.812  0.00  0.00    +0.000 A 
ATOM     27  C   UNL     1      -2.945  12.335  23.380  0.00  0.00    +0.000 A 
ATOM     28  C   UNL     1      -3.434  13.389  24.166  0.00  0.00    +0.000 A 
ENDBRANCH  18  26
ENDBRANCH  17  19
ENDBRANCH  16  17
ENDBRANCH   1  16
TORSDOF 4
ENDMDL
MODEL 5
REMARK VINA RESULT:      -8.6      0.974      1.337
REMARK  Name = 
REMARK  5 active torsions:
REMARK  status: ('A' for Active; 'I' for Inactive)
REMARK    1  A    between atoms: C_1  and  C_2
REMARK    2  A    between atoms: C_5  and  N_6
REMARK    3  A    between atoms: C_7  and  C_9
REMARK    4  A    between atoms: C_9  and  O_10
REMARK    5  A    between atoms: O_10  and  C_11
REMARK                            x       y       z     vdW  Elec       q    Type
REMARK                         _______ _______ _______ _____ _____    ______ ____
ROOT
ATOM      1  C   UNL     1       6.541   5.951  17.331  0.00  0.00    +0.000 A 
ATOM      2  C   UNL     1       5.746   6.100  18.450  0.00  0.00    +0.000 A 
ATOM      3  C   UNL     1       4.658   5.264  18.682  0.00  0.00    +0.000 A 
ATOM      4  O   UNL     1       4.004   5.612  19.880  0.00  0.00    +0.000 OA
ATOM      5  C   UNL     1       2.709   5.232  20.062  0.00  0.00    +0.000 A 
ATOM      6  O   UNL     1       1.970   5.762  20.876  0.00  0.00    +0.000 OA
ATOM      7  C   UNL     1       2.297   4.080  19.255  0.00  0.00    +0.000 A 
ATOM      8  C   UNL     1       2.973   3.554  18.222  0.00  0.00    +0.000 A 
ATOM      9  C   UNL     1       4.238   4.239  17.834  0.00  0.00    +0.000 A 
ATOM     10  C   UNL     1       5.066   4.032  16.716  0.00  0.00    +0.000 A 
ATOM     11  C   UNL     1       6.214   4.878  16.476  0.00  0.00    +0.000 A 
ATOM     12 CL   UNL     1       7.195   4.539  15.096  0.00  0.00    +0.000 Cl
ATOM     13  C   UNL     1       2.213   2.379  17.701  0.00  0.00    +0.000 C 
ATOM     14  C   UNL     1       0.955   2.284  18.607  0.00  0.00    +0.000 C 
ATOM     15  C   UNL     1       1.030   3.419  19.619  0.00  0.00    +0.000 C 
ENDROOT
BRANCH   1  16
ATOM     16  O   UNL     1       7.619   6.789  17.078  0.00  0.00    +0.000 OA
BRANCH  16  17
ATOM     17  C   UNL     1       7.368   8.183  17.322  0.00  0.00    +0.000 C 
BRANCH  17  19
ATOM     18  N   UNL     1       8.437  10.365  17.711  0.00  0.00    +0.000 N 
ATOM     19  C   UNL     1       8.359   9.051  18.120  0.00  0.00    +0.000 C 
ATOM     20  O   UNL     1       9.040   8.524  18.999  0.00  0.00    +0.000 OA
ATOM     21  H   UNL     1       7.787  10.637  16.983  0.00  0.00    +0.000 HD
BRANCH  18  26
ATOM     22  C   UNL     1      11.821  14.410  19.999  0.00  0.00    +0.000 C 
ATOM     23  C   UNL     1      10.945  13.365  19.369  0.00  0.00    +0.000 A 
ATOM     24  C   UNL     1      11.351  12.686  18.218  0.00  0.00    +0.000 A 
ATOM     25  C   UNL     1      10.539  11.697  17.645  0.00  0.00    +0.000 A 
ATOM     26  C   UNL     1       9.306  11.362  18.213  0.00  0.00    +0.000 A 
ATOM     27  C   UNL     1       8.895  12.055  19.357  0.00  0.00    +0.000 A 
ATOM     28  C   UNL     1       9.707  13.044  19.932  0.00  0.00    +0.000 A 
ENDBRANCH  18  26
ENDBRANCH  17  19
ENDBRANCH  16  17
ENDBRANCH   1  16
TORSDOF 4
ENDMDL
MODEL 6
REMARK VINA RESULT:      -8.5      1.045      1.163
REMARK  Name = 
REMARK  5 active torsions:
REMARK  status: ('A' for Active; 'I' for Inactive)
REMARK    1  A    between atoms: C_1  and  C_2
REMARK    2  A    between atoms: C_5  and  N_6
REMARK    3  A    between atoms: C_7  and  C_9
REMARK    4  A    between atoms: C_9  and  O_10
REMARK    5  A    between atoms: O_10  and  C_11
REMARK                            x       y       z     vdW  Elec       q    Type
REMARK                         _______ _______ _______ _____ _____    ______ ____
ROOT
ATOM      1  C   UNL     1       5.383   6.245  16.797  0.00  0.00    +0.000 A 
ATOM      2  C   UNL     1       4.731   6.471  17.993  0.00  0.00    +0.000 A 
ATOM      3  C   UNL     1       3.818   5.553  18.505  0.00  0.00    +0.000 A 
ATOM      4  O   UNL     1       3.284   6.005  19.727  0.00  0.00    +0.000 OA
ATOM      5  C   UNL     1       2.096   5.499  20.158  0.00  0.00    +0.000 A 
ATOM      6  O   UNL     1       1.401   6.056  20.992  0.00  0.00    +0.000 OA
ATOM      7  C   UNL     1       1.756   4.189  19.595  0.00  0.00    +0.000 A 
ATOM      8  C   UNL     1       2.359   3.593  18.556  0.00  0.00    +0.000 A 
ATOM      9  C   UNL     1       3.447   4.360  17.885  0.00  0.00    +0.000 A 
ATOM     10  C   UNL     1       4.141   4.081  16.694  0.00  0.00    +0.000 A 
ATOM     11  C   UNL     1       5.109   5.015  16.163  0.00  0.00    +0.000 A 
ATOM     12 CL   UNL     1       5.938   4.584  14.711  0.00  0.00    +0.000 Cl
ATOM     13  C   UNL     1       1.720   2.262  18.329  0.00  0.00    +0.000 C 
ATOM     14  C   UNL     1       0.621   2.157  19.422  0.00  0.00    +0.000 C 
ATOM     15  C   UNL     1       0.660   3.441  20.239  0.00  0.00    +0.000 C 
ENDROOT
BRANCH   1  16
ATOM     16  O   UNL     1       6.282   7.160  16.266  0.00  0.00    +0.000 OA
BRANCH  16  17
ATOM     17  C   UNL     1       7.622   7.050  16.770  0.00  0.00    +0.000 C 
BRANCH  17  19
ATOM     18  N   UNL     1       8.271   9.284  17.575  0.00  0.00    +0.000 N 
ATOM     19  C   UNL     1       8.130   7.955  17.910  0.00  0.00    +0.000 C 
ATOM     20  O   UNL     1       8.427   7.444  18.990  0.00  0.00    +0.000 OA
ATOM     21  H   UNL     1       7.959   9.538  16.645  0.00  0.00    +0.000 HD
BRANCH  18  26
ATOM     22  C   UNL     1      10.208  13.680  20.732  0.00  0.00    +0.000 C 
ATOM     23  C   UNL     1       9.729  12.512  19.919  0.00  0.00    +0.000 A 
ATOM     24  C   UNL     1       9.770  11.214  20.433  0.00  0.00    +0.000 A 
ATOM     25  C   UNL     1       9.303  10.128  19.677  0.00  0.00    +0.000 A 
ATOM     26  C   UNL     1       8.781  10.319  18.395  0.00  0.00    +0.000 A 
ATOM     27  C   UNL     1       8.756  11.618  17.876  0.00  0.00    +0.000 A 
ATOM     28  C   UNL     1       9.222  12.705  18.631  0.00  0.00    +0.000 A 
ENDBRANCH  18  26
ENDBRANCH  17  19
ENDBRANCH  16  17
ENDBRANCH   1  16
TORSDOF 4
ENDMDL
MODEL 7
REMARK VINA RESULT:      -8.5      5.001      7.176
REMARK  Name = 
REMARK  5 active torsions:
REMARK  status: ('A' for Active; 'I' for Inactive)
REMARK    1  A    between atoms: C_1  and  C_2
REMARK    2  A    between atoms: C_5  and  N_6
REMARK    3  A    between atoms: C_7  and  C_9
REMARK    4  A    between atoms: C_9  and  O_10
REMARK    5  A    between atoms: O_10  and  C_11
REMARK                            x       y       z     vdW  Elec       q    Type
REMARK                         _______ _______ _______ _____ _____    ______ ____
ROOT
ATOM      1  C   UNL     1       3.460   3.185  19.642  0.00  0.00    +0.000 A 
ATOM      2  C   UNL     1       4.514   4.057  19.454  0.00  0.00    +0.000 A 
ATOM      3  C   UNL     1       5.018   4.322  18.184  0.00  0.00    +0.000 A 
ATOM      4  O   UNL     1       6.087   5.237  18.249  0.00  0.00    +0.000 OA
ATOM      5  C   UNL     1       6.977   5.289  17.220  0.00  0.00    +0.000 A 
ATOM      6  O   UNL     1       8.091   5.774  17.330  0.00  0.00    +0.000 OA
ATOM      7  C   UNL     1       6.458   4.784  15.945  0.00  0.00    +0.000 A 
ATOM      8  C   UNL     1       5.329   4.080  15.772  0.00  0.00    +0.000 A 
ATOM      9  C   UNL     1       4.558   3.742  17.002  0.00  0.00    +0.000 A 
ATOM     10  C   UNL     1       3.448   2.893  17.162  0.00  0.00    +0.000 A 
ATOM     11  C   UNL     1       2.900   2.628  18.474  0.00  0.00    +0.000 A 
ATOM     12 CL   UNL     1       1.519   1.597  18.581  0.00  0.00    +0.000 Cl
ATOM     13  C   UNL     1       5.163   3.790  14.316  0.00  0.00    +0.000 C 
ATOM     14  C   UNL     1       6.393   4.450  13.636  0.00  0.00    +0.000 C 
ATOM     15  C   UNL     1       7.235   5.093  14.730  0.00  0.00    +0.000 C 
ENDROOT
BRANCH   1  16
ATOM     16  O   UNL     1       2.961   2.898  20.905  0.00  0.00    +0.000 OA
BRANCH  16  17
ATOM     17  C   UNL     1       2.341   4.007  21.574  0.00  0.00    +0.000 C 
BRANCH  17  19
ATOM     18  N   UNL     1       2.214   6.350  20.832  0.00  0.00    +0.000 N 
ATOM     19  C   UNL     1       1.608   5.113  20.789  0.00  0.00    +0.000 C 
ATOM     20  O   UNL     1       0.537   4.848  20.246  0.00  0.00    +0.000 OA
ATOM     21  H   UNL     1       3.107   6.386  21.309  0.00  0.00    +0.000 HD
BRANCH  18  26
ATOM     22  C   UNL     1       0.166  11.323  18.803  0.00  0.00    +0.000 C 
ATOM     23  C   UNL     1       0.697  10.010  19.301  0.00  0.00    +0.000 A 
ATOM     24  C   UNL     1       1.565   9.244  18.520  0.00  0.00    +0.000 A 
ATOM     25  C   UNL     1       2.075   8.027  18.998  0.00  0.00    +0.000 A 
ATOM     26  C   UNL     1       1.730   7.554  20.266  0.00  0.00    +0.000 A 
ATOM     27  C   UNL     1       0.847   8.315  21.040  0.00  0.00    +0.000 A 
ATOM     28  C   UNL     1       0.337   9.533  20.564  0.00  0.00    +0.000 A 
ENDBRANCH  18  26
ENDBRANCH  17  19
ENDBRANCH  16  17
ENDBRANCH   1  16
TORSDOF 4
ENDMDL
MODEL 8
REMARK VINA RESULT:      -8.4      6.047      8.365
REMARK  Name = 
REMARK  5 active torsions:
REMARK  status: ('A' for Active; 'I' for Inactive)
REMARK    1  A    between atoms: C_1  and  C_2
REMARK    2  A    between atoms: C_5  and  N_6
REMARK    3  A    between atoms: C_7  and  C_9
REMARK    4  A    between atoms: C_9  and  O_10
REMARK    5  A    between atoms: O_10  and  C_11
REMARK                            x       y       z     vdW  Elec       q    Type
REMARK                         _______ _______ _______ _____ _____    ______ ____
ROOT
ATOM      1  C   UNL     1       1.607   7.767  19.885  0.00  0.00    +0.000 A 
ATOM      2  C   UNL     1       2.252   6.557  20.045  0.00  0.00    +0.000 A 
ATOM      3  C   UNL     1       3.176   6.099  19.112  0.00  0.00    +0.000 A 
ATOM      4  O   UNL     1       3.695   4.846  19.490  0.00  0.00    +0.000 OA
ATOM      5  C   UNL     1       4.253   4.045  18.541  0.00  0.00    +0.000 A 
ATOM      6  O   UNL     1       4.406   2.844  18.691  0.00  0.00    +0.000 OA
ATOM      7  C   UNL     1       4.727   4.758  17.351  0.00  0.00    +0.000 A 
ATOM      8  C   UNL     1       4.447   6.029  17.024  0.00  0.00    +0.000 A 
ATOM      9  C   UNL     1       3.528   6.765  17.937  0.00  0.00    +0.000 A 
ATOM     10  C   UNL     1       2.925   8.027  17.781  0.00  0.00    +0.000 A 
ATOM     11  C   UNL     1       1.980   8.525  18.756  0.00  0.00    +0.000 A 
ATOM     12 CL   UNL     1       1.309  10.095  18.504  0.00  0.00    +0.000 Cl
ATOM     13  C   UNL     1       5.151   6.363  15.750  0.00  0.00    +0.000 C 
ATOM     14  C   UNL     1       5.914   5.066  15.365  0.00  0.00    +0.000 C 
ATOM     15  C   UNL     1       5.614   4.021  16.431  0.00  0.00    +0.000 C 
ENDROOT
BRANCH   1  16
ATOM     16  O   UNL     1       0.669   8.226  20.800  0.00  0.00    +0.000 OA
BRANCH  16  17
ATOM     17  C   UNL     1       1.217   8.953  21.911  0.00  0.00    +0.000 C 
BRANCH  17  19
ATOM     18  N   UNL     1      -0.336  10.851  22.124  0.00  0.00    +0.000 N 
ATOM     19  C   UNL     1       0.334   9.853  22.798  0.00  0.00    +0.000 C 
ATOM     20  O   UNL     1       0.331   9.671  24.015  0.00  0.00    +0.000 OA
ATOM     21  H   UNL     1      -0.236  10.843  21.115  0.00  0.00    +0.000 HD
BRANCH  18  26
ATOM     22  C   UNL     1      -3.488  15.145  24.284  0.00  0.00    +0.000 C 
ATOM     23  C   UNL     1      -2.676  14.003  23.746  0.00  0.00    +0.000 A 
ATOM     24  C   UNL     1      -3.173  12.697  23.760  0.00  0.00    +0.000 A 
ATOM     25  C   UNL     1      -2.418  11.636  23.238  0.00  0.00    +0.000 A 
ATOM     26  C   UNL     1      -1.153  11.859  22.689  0.00  0.00    +0.000 A 
ATOM     27  C   UNL     1      -0.650  13.164  22.691  0.00  0.00    +0.000 A 
ATOM     28  C   UNL     1      -1.404  14.226  23.212  0.00  0.00    +0.000 A 
ENDBRANCH  18  26
ENDBRANCH  17  19
ENDBRANCH  16  17
ENDBRANCH   1  16
TORSDOF 4
ENDMDL
MODEL 9
REMARK VINA RESULT:      -8.4      1.943      2.292
REMARK  Name = 
REMARK  5 active torsions:
REMARK  status: ('A' for Active; 'I' for Inactive)
REMARK    1  A    between atoms: C_1  and  C_2
REMARK    2  A    between atoms: C_5  and  N_6
REMARK    3  A    between atoms: C_7  and  C_9
REMARK    4  A    between atoms: C_9  and  O_10
REMARK    5  A    between atoms: O_10  and  C_11
REMARK                            x       y       z     vdW  Elec       q    Type
REMARK                         _______ _______ _______ _____ _____    ______ ____
ROOT
ATOM      1  C   UNL     1       5.782   5.894  17.751  0.00  0.00    +0.000 A 
ATOM      2  C   UNL     1       5.941   4.677  18.383  0.00  0.00    +0.000 A 
ATOM      3  C   UNL     1       4.885   4.065  19.053  0.00  0.00    +0.000 A 
ATOM      4  O   UNL     1       5.291   2.840  19.617  0.00  0.00    +0.000 OA
ATOM      5  C   UNL     1       4.573   2.316  20.649  0.00  0.00    +0.000 A 
ATOM      6  O   UNL     1       5.023   1.475  21.410  0.00  0.00    +0.000 OA
ATOM      7  C   UNL     1       3.188   2.788  20.722  0.00  0.00    +0.000 A 
ATOM      8  C   UNL     1       2.667   3.826  20.052  0.00  0.00    +0.000 A 
ATOM      9  C   UNL     1       3.603   4.598  19.186  0.00  0.00    +0.000 A 
ATOM     10  C   UNL     1       3.402   5.810  18.501  0.00  0.00    +0.000 A 
ATOM     11  C   UNL     1       4.484   6.445  17.781  0.00  0.00    +0.000 A 
ATOM     12 CL   UNL     1       4.146   7.916  16.944  0.00  0.00    +0.000 Cl
ATOM     13  C   UNL     1       1.219   3.945  20.399  0.00  0.00    +0.000 C 
ATOM     14  C   UNL     1       0.953   2.787  21.399  0.00  0.00    +0.000 C 
ATOM     15  C   UNL     1       2.266   2.043  21.602  0.00  0.00    +0.000 C 
ENDROOT
BRANCH   1  16
ATOM     16  O   UNL     1       6.831   6.524  17.095  0.00  0.00    +0.000 OA
BRANCH  16  17
ATOM     17  C   UNL     1       7.830   7.087  17.959  0.00  0.00    +0.000 C 
BRANCH  17  19
ATOM     18  N   UNL     1       9.001   9.006  18.961  0.00  0.00    +0.000 N 
ATOM     19  C   UNL     1       8.085   8.606  18.013  0.00  0.00    +0.000 C 
ATOM     20  O   UNL     1       7.433   9.346  17.277  0.00  0.00    +0.000 OA
ATOM     21  H   UNL     1       9.461   8.260  19.470  0.00  0.00    +0.000 HD
BRANCH  18  26
ATOM     22  C   UNL     1      10.476  14.470  19.968  0.00  0.00    +0.000 C 
ATOM     23  C   UNL     1      10.108  13.034  19.734  0.00  0.00    +0.000 A 
ATOM     24  C   UNL     1       9.757  12.199  20.798  0.00  0.00    +0.000 A 
ATOM     25  C   UNL     1       9.395  10.863  20.572  0.00  0.00    +0.000 A 
ATOM     26  C   UNL     1       9.372  10.334  19.278  0.00  0.00    +0.000 A 
ATOM     27  C   UNL     1       9.741  11.167  18.216  0.00  0.00    +0.000 A 
ATOM     28  C   UNL     1      10.102  12.504  18.440  0.00  0.00    +0.000 A 
ENDBRANCH  18  26
ENDBRANCH  17  19
ENDBRANCH  16  17
ENDBRANCH   1  16
TORSDOF 4
ENDMDL
