MODEL 1
REMARK VINA RESULT:      -9.0      0.000      0.000
REMARK  Name = 
REMARK  6 active torsions:
REMARK  status: ('A' for Active; 'I' for Inactive)
REMARK    1  A    between atoms: C_2  and  C_7
REMARK    2  A    between atoms: N_3  and  C_4
REMARK    3  A    between atoms: C_11  and  N_12
REMARK    4  A    between atoms: C_13  and  C_15
REMARK    5  A    between atoms: C_17  and  C_18
REMARK    6  A    between atoms: N_22  and  C_23
REMARK                            x       y       z     vdW  Elec       q    Type
REMARK                         _______ _______ _______ _____ _____    ______ ____
ROOT
ATOM      1  N   UNL     1       1.781   8.654  17.809  0.00  0.00    +0.000 N 
ATOM      2  C   UNL     1       2.378   7.719  18.654  0.00  0.00    +0.000 C 
ATOM      3  O   UNL     1       2.158   7.653  19.858  0.00  0.00    +0.000 OA
ATOM      4  H   UNL     1       1.962   8.565  16.819  0.00  0.00    +0.000 HD
ENDROOT
BRANCH   1   9
ATOM      5  C   UNL     1      -1.495  10.410  18.014  0.00  0.00    +0.000 A 
ATOM      6  C   UNL     1      -1.260  11.328  19.044  0.00  0.00    +0.000 A 
ATOM      7  C   UNL     1      -0.010  11.397  19.640  0.00  0.00    +0.000 A 
ATOM      8  C   UNL     1       1.004  10.540  19.217  0.00  0.00    +0.000 A 
ATOM      9  C   UNL     1       0.787   9.594  18.205  0.00  0.00    +0.000 A 
ATOM     10  C   UNL     1      -0.465   9.556  17.576  0.00  0.00    +0.000 A 
BRANCH   5  12
ATOM     11  O   UNL     1      -3.133   9.595  16.543  0.00  0.00    +0.000 OA
ATOM     12  C   UNL     1      -2.862  10.399  17.429  0.00  0.00    +0.000 C 
ATOM     13  N   UNL     1      -3.743  11.361  17.886  0.00  0.00    +0.000 N 
ATOM     14  H   UNL     1      -3.400  12.108  18.475  0.00  0.00    +0.000 HD
BRANCH  13  15
ATOM     15  C   UNL     1      -5.038  11.507  17.293  0.00  0.00    +0.000 C 
ATOM     16  C   UNL     1      -5.978  12.603  17.710  0.00  0.00    +0.000 C 
ATOM     17  C   UNL     1      -6.271  11.180  18.089  0.00  0.00    +0.000 C 
ENDBRANCH  13  15
ENDBRANCH   5  12
ENDBRANCH   1   9
BRANCH   2  18
ATOM     18  C   UNL     1       3.269   6.785  18.012  0.00  0.00    +0.000 A 
ATOM     19  C   UNL     1       4.215   6.990  17.024  0.00  0.00    +0.000 A 
ATOM     20  C   UNL     1       4.959   5.802  16.967  0.00  0.00    +0.000 A 
ATOM     21  N   UNL     1       4.538   4.898  17.849  0.00  0.00    +0.000 NA
ATOM     22  N   UNL     1       3.432   5.456  18.415  0.00  0.00    +0.000 N 
BRANCH  22  23
ATOM     23  C   UNL     1       2.597   4.650  19.245  0.00  0.00    +0.000 A 
ATOM     24  C   UNL     1       1.502   3.981  18.679  0.00  0.00    +0.000 A 
ATOM     25  C   UNL     1       0.704   3.151  19.472  0.00  0.00    +0.000 A 
ATOM     26  C   UNL     1       0.975   3.007  20.832  0.00  0.00    +0.000 A 
ATOM     27  C   UNL     1       2.037   3.700  21.406  0.00  0.00    +0.000 A 
ATOM     28  C   UNL     1       2.842   4.525  20.620  0.00  0.00    +0.000 A 
ENDBRANCH  22  23
BRANCH  20  29
ATOM     29  C   UNL     1       6.141   5.586  16.034  0.00  0.00    +0.000 C 
ATOM     30  C   UNL     1       6.372   4.204  15.449  0.00  0.00    +0.000 C 
ATOM     31  C   UNL     1       7.285   4.709  16.512  0.00  0.00    +0.000 C 
ENDBRANCH  20  29
ENDBRANCH   2  18
TORSDOF 6
ENDMDL
MODEL 2
REMARK VINA RESULT:      -8.8      1.637      2.022
REMARK  Name = 
REMARK  6 active torsions:
REMARK  status: ('A' for Active; 'I' for Inactive)
REMARK    1  A    between atoms: C_2  and  C_7
REMARK    2  A    between atoms: N_3  and  C_4
REMARK    3  A    between atoms: C_11  and  N_12
REMARK    4  A    between atoms: C_13  and  C_15
REMARK    5  A    between atoms: C_17  and  C_18
REMARK    6  A    between atoms: N_22  and  C_23
REMARK                            x       y       z     vdW  Elec       q    Type
REMARK                         _______ _______ _______ _____ _____    ______ ____
ROOT
ATOM      1  N   UNL     1       2.191   8.114  19.594  0.00  0.00    +0.000 N 
ATOM      2  C   UNL     1       2.346   7.619  18.299  0.00  0.00    +0.000 C 
ATOM      3  O   UNL     1       1.591   7.891  17.373  0.00  0.00    +0.000 OA
ATOM      4  H   UNL     1       2.920   7.901  20.261  0.00  0.00    +0.000 HD
ENDROOT
BRANCH   1   9
ATOM      5  C   UNL     1      -0.568  10.603  19.373  0.00  0.00    +0.000 A 
ATOM      6  C   UNL     1      -0.872  10.810  20.723  0.00  0.00    +0.000 A 
ATOM      7  C   UNL     1      -0.138  10.163  21.706  0.00  0.00    +0.000 A 
ATOM      8  C   UNL     1       0.891   9.297  21.341  0.00  0.00    +0.000 A 
ATOM      9  C   UNL     1       1.198   9.053  19.995  0.00  0.00    +0.000 A 
ATOM     10  C   UNL     1       0.483   9.741  19.006  0.00  0.00    +0.000 A 
BRANCH   5  12
ATOM     11  O   UNL     1      -1.872  12.428  18.677  0.00  0.00    +0.000 OA
ATOM     12  C   UNL     1      -1.402  11.333  18.382  0.00  0.00    +0.000 C 
ATOM     13  N   UNL     1      -1.653  10.691  17.183  0.00  0.00    +0.000 N 
ATOM     14  H   UNL     1      -1.395   9.718  17.079  0.00  0.00    +0.000 HD
BRANCH  13  15
ATOM     15  C   UNL     1      -2.545  11.261  16.220  0.00  0.00    +0.000 C 
ATOM     16  C   UNL     1      -3.989  10.853  16.142  0.00  0.00    +0.000 C 
ATOM     17  C   UNL     1      -3.032  10.435  15.063  0.00  0.00    +0.000 C 
ENDBRANCH  13  15
ENDBRANCH   5  12
ENDBRANCH   1   9
BRANCH   2  18
ATOM     18  C   UNL     1       3.495   6.773  18.095  0.00  0.00    +0.000 A 
ATOM     19  C   UNL     1       4.729   7.062  17.542  0.00  0.00    +0.000 A 
ATOM     20  C   UNL     1       5.537   5.952  17.831  0.00  0.00    +0.000 A 
ATOM     21  N   UNL     1       4.886   5.018  18.521  0.00  0.00    +0.000 NA
ATOM     22  N   UNL     1       3.603   5.468  18.589  0.00  0.00    +0.000 N 
BRANCH  22  23
ATOM     23  C   UNL     1       2.584   4.590  19.065  0.00  0.00    +0.000 A 
ATOM     24  C   UNL     1       1.883   3.789  18.153  0.00  0.00    +0.000 A 
ATOM     25  C   UNL     1       0.916   2.890  18.612  0.00  0.00    +0.000 A 
ATOM     26  C   UNL     1       0.623   2.808  19.973  0.00  0.00    +0.000 A 
ATOM     27  C   UNL     1       1.289   3.630  20.878  0.00  0.00    +0.000 A 
ATOM     28  C   UNL     1       2.260   4.525  20.427  0.00  0.00    +0.000 A 
ENDBRANCH  22  23
BRANCH  20  29
ATOM     29  C   UNL     1       7.004   5.846  17.440  0.00  0.00    +0.000 C 
ATOM     30  C   UNL     1       7.805   4.645  17.913  0.00  0.00    +0.000 C 
ATOM     31  C   UNL     1       8.051   5.977  18.531  0.00  0.00    +0.000 C 
ENDBRANCH  20  29
ENDBRANCH   2  18
TORSDOF 6
ENDMDL
MODEL 3
REMARK VINA RESULT:      -8.8      1.932      2.941
REMARK  Name = 
REMARK  6 active torsions:
REMARK  status: ('A' for Active; 'I' for Inactive)
REMARK    1  A    between atoms: C_2  and  C_7
REMARK    2  A    between atoms: N_3  and  C_4
REMARK    3  A    between atoms: C_11  and  N_12
REMARK    4  A    between atoms: C_13  and  C_15
REMARK    5  A    between atoms: C_17  and  C_18
REMARK    6  A    between atoms: N_22  and  C_23
REMARK                            x       y       z     vdW  Elec       q    Type
REMARK                         _______ _______ _______ _____ _____    ______ ____
ROOT
ATOM      1  N   UNL     1       2.875   6.681  17.671  0.00  0.00    +0.000 N 
ATOM      2  C   UNL     1       4.246   6.685  17.411  0.00  0.00    +0.000 C 
ATOM      3  O   UNL     1       5.022   7.512  17.875  0.00  0.00    +0.000 OA
ATOM      4  H   UNL     1       2.339   5.903  17.312  0.00  0.00    +0.000 HD
ENDROOT
BRANCH   1   9
ATOM      5  C   UNL     1       0.757   9.494  18.878  0.00  0.00    +0.000 A 
ATOM      6  C   UNL     1       0.762   9.279  20.261  0.00  0.00    +0.000 A 
ATOM      7  C   UNL     1       1.498   8.234  20.798  0.00  0.00    +0.000 A 
ATOM      8  C   UNL     1       2.220   7.393  19.953  0.00  0.00    +0.000 A 
ATOM      9  C   UNL     1       2.211   7.571  18.562  0.00  0.00    +0.000 A 
ATOM     10  C   UNL     1       1.501   8.655  18.027  0.00  0.00    +0.000 A 
BRANCH   5  12
ATOM     11  O   UNL     1       0.191  11.771  18.779  0.00  0.00    +0.000 OA
ATOM     12  C   UNL     1      -0.057  10.636  18.384  0.00  0.00    +0.000 C 
ATOM     13  N   UNL     1      -1.107  10.332  17.537  0.00  0.00    +0.000 N 
ATOM     14  H   UNL     1      -1.371   9.365  17.403  0.00  0.00    +0.000 HD
BRANCH  13  15
ATOM     15  C   UNL     1      -2.020  11.348  17.110  0.00  0.00    +0.000 C 
ATOM     16  C   UNL     1      -3.473  11.316  17.490  0.00  0.00    +0.000 C 
ATOM     17  C   UNL     1      -3.063  11.036  16.074  0.00  0.00    +0.000 C 
ENDBRANCH  13  15
ENDBRANCH   5  12
ENDBRANCH   1   9
BRANCH   2  18
ATOM     18  C   UNL     1       4.718   5.615  16.569  0.00  0.00    +0.000 A 
ATOM     19  C   UNL     1       5.493   5.657  15.424  0.00  0.00    +0.000 A 
ATOM     20  C   UNL     1       5.861   4.325  15.174  0.00  0.00    +0.000 A 
ATOM     21  N   UNL     1       5.372   3.486  16.084  0.00  0.00    +0.000 NA
ATOM     22  N   UNL     1       4.579   4.258  16.878  0.00  0.00    +0.000 N 
BRANCH  22  23
ATOM     23  C   UNL     1       3.717   3.625  17.821  0.00  0.00    +0.000 A 
ATOM     24  C   UNL     1       4.161   3.426  19.137  0.00  0.00    +0.000 A 
ATOM     25  C   UNL     1       3.308   2.850  20.082  0.00  0.00    +0.000 A 
ATOM     26  C   UNL     1       2.026   2.443  19.717  0.00  0.00    +0.000 A 
ATOM     27  C   UNL     1       1.595   2.602  18.402  0.00  0.00    +0.000 A 
ATOM     28  C   UNL     1       2.439   3.182  17.454  0.00  0.00    +0.000 A 
ENDBRANCH  22  23
BRANCH  20  29
ATOM     29  C   UNL     1       6.754   3.895  14.019  0.00  0.00    +0.000 C 
ATOM     30  C   UNL     1       6.910   4.822  12.828  0.00  0.00    +0.000 C 
ATOM     31  C   UNL     1       6.103   3.579  12.685  0.00  0.00    +0.000 C 
ENDBRANCH  20  29
ENDBRANCH   2  18
TORSDOF 6
ENDMDL
MODEL 4
REMARK VINA RESULT:      -8.8      0.535      1.101
REMARK  Name = 
REMARK  6 active torsions:
REMARK  status: ('A' for Active; 'I' for Inactive)
REMARK    1  A    between atoms: C_2  and  C_7
REMARK    2  A    between atoms: N_3  and  C_4
REMARK    3  A    between atoms: C_11  and  N_12
REMARK    4  A    between atoms: C_13  and  C_15
REMARK    5  A    between atoms: C_17  and  C_18
REMARK    6  A    between atoms: N_22  and  C_23
REMARK                            x       y       z     vdW  Elec       q    Type
REMARK                         _______ _______ _______ _____ _____    ______ ____
ROOT
ATOM      1  N   UNL     1       2.148   8.484  17.678  0.00  0.00    +0.000 N 
ATOM      2  C   UNL     1       2.576   7.477  18.544  0.00  0.00    +0.000 C 
ATOM      3  O   UNL     1       2.223   7.393  19.714  0.00  0.00    +0.000 OA
ATOM      4  H   UNL     1       2.426   8.410  16.709  0.00  0.00    +0.000 HD
ENDROOT
BRANCH   1   9
ATOM      5  C   UNL     1      -1.100  10.290  17.905  0.00  0.00    +0.000 A 
ATOM      6  C   UNL     1      -0.767  11.367  18.734  0.00  0.00    +0.000 A 
ATOM      7  C   UNL     1       0.536  11.522  19.181  0.00  0.00    +0.000 A 
ATOM      8  C   UNL     1       1.507  10.592  18.812  0.00  0.00    +0.000 A 
ATOM      9  C   UNL     1       1.194   9.490  18.004  0.00  0.00    +0.000 A 
ATOM     10  C   UNL     1      -0.114   9.361  17.519  0.00  0.00    +0.000 A 
BRANCH   5  12
ATOM     11  O   UNL     1      -2.795   9.587  16.442  0.00  0.00    +0.000 OA
ATOM     12  C   UNL     1      -2.518  10.196  17.470  0.00  0.00    +0.000 C 
ATOM     13  N   UNL     1      -3.451  10.871  18.235  0.00  0.00    +0.000 N 
ATOM     14  H   UNL     1      -3.135  11.506  18.956  0.00  0.00    +0.000 HD
BRANCH  13  15
ATOM     15  C   UNL     1      -4.821  10.941  17.825  0.00  0.00    +0.000 C 
ATOM     16  C   UNL     1      -5.371  12.143  17.110  0.00  0.00    +0.000 C 
ATOM     17  C   UNL     1      -5.771  11.867  18.530  0.00  0.00    +0.000 C 
ENDBRANCH  13  15
ENDBRANCH   5  12
ENDBRANCH   1   9
BRANCH   2  18
ATOM     18  C   UNL     1       3.454   6.494  17.962  0.00  0.00    +0.000 A 
ATOM     19  C   UNL     1       4.423   6.630  16.984  0.00  0.00    +0.000 A 
ATOM     20  C   UNL     1       5.137   5.422  16.996  0.00  0.00    +0.000 A 
ATOM     21  N   UNL     1       4.676   4.570  17.909  0.00  0.00    +0.000 NA
ATOM     22  N   UNL     1       3.575   5.180  18.428  0.00  0.00    +0.000 N 
BRANCH  22  23
ATOM     23  C   UNL     1       2.704   4.434  19.276  0.00  0.00    +0.000 A 
ATOM     24  C   UNL     1       3.024   4.286  20.633  0.00  0.00    +0.000 A 
ATOM     25  C   UNL     1       2.155   3.597  21.484  0.00  0.00    +0.000 A 
ATOM     26  C   UNL     1       0.984   3.029  20.984  0.00  0.00    +0.000 A 
ATOM     27  C   UNL     1       0.683   3.140  19.629  0.00  0.00    +0.000 A 
ATOM     28  C   UNL     1       1.542   3.831  18.775  0.00  0.00    +0.000 A 
ENDBRANCH  22  23
BRANCH  20  29
ATOM     29  C   UNL     1       6.331   5.134  16.097  0.00  0.00    +0.000 C 
ATOM     30  C   UNL     1       6.160   5.242  14.593  0.00  0.00    +0.000 C 
ATOM     31  C   UNL     1       6.289   3.897  15.218  0.00  0.00    +0.000 C 
ENDBRANCH  20  29
ENDBRANCH   2  18
TORSDOF 6
ENDMDL
MODEL 5
REMARK VINA RESULT:      -8.8      1.650      2.307
REMARK  Name = 
REMARK  6 active torsions:
REMARK  status: ('A' for Active; 'I' for Inactive)
REMARK    1  A    between atoms: C_2  and  C_7
REMARK    2  A    between atoms: N_3  and  C_4
REMARK    3  A    between atoms: C_11  and  N_12
REMARK    4  A    between atoms: C_13  and  C_15
REMARK    5  A    between atoms: C_17  and  C_18
REMARK    6  A    between atoms: N_22  and  C_23
REMARK                            x       y       z     vdW  Elec       q    Type
REMARK                         _______ _______ _______ _____ _____    ______ ____
ROOT
ATOM      1  N   UNL     1       2.427   6.946  18.033  0.00  0.00    +0.000 N 
ATOM      2  C   UNL     1       3.768   7.010  17.651  0.00  0.00    +0.000 C 
ATOM      3  O   UNL     1       4.498   7.964  17.893  0.00  0.00    +0.000 OA
ATOM      4  H   UNL     1       1.939   6.078  17.864  0.00  0.00    +0.000 HD
ENDROOT
BRANCH   1   9
ATOM      5  C   UNL     1       0.222   9.814  18.911  0.00  0.00    +0.000 A 
ATOM      6  C   UNL     1       0.286   9.803  20.309  0.00  0.00    +0.000 A 
ATOM      7  C   UNL     1       1.090   8.879  20.959  0.00  0.00    +0.000 A 
ATOM      8  C   UNL     1       1.821   7.955  20.214  0.00  0.00    +0.000 A 
ATOM      9  C   UNL     1       1.754   7.928  18.814  0.00  0.00    +0.000 A 
ATOM     10  C   UNL     1       0.973   8.891  18.159  0.00  0.00    +0.000 A 
BRANCH   5  12
ATOM     11  O   UNL     1      -0.643  11.987  18.713  0.00  0.00    +0.000 OA
ATOM     12  C   UNL     1      -0.664  10.835  18.292  0.00  0.00    +0.000 C 
ATOM     13  N   UNL     1      -1.520  10.398  17.298  0.00  0.00    +0.000 N 
ATOM     14  H   UNL     1      -1.620   9.406  17.131  0.00  0.00    +0.000 HD
BRANCH  13  15
ATOM     15  C   UNL     1      -2.494  11.281  16.731  0.00  0.00    +0.000 C 
ATOM     16  C   UNL     1      -3.948  10.911  16.660  0.00  0.00    +0.000 C 
ATOM     17  C   UNL     1      -3.124  10.956  15.406  0.00  0.00    +0.000 C 
ENDBRANCH  13  15
ENDBRANCH   5  12
ENDBRANCH   1   9
BRANCH   2  18
ATOM     18  C   UNL     1       4.271   5.846  16.967  0.00  0.00    +0.000 A 
ATOM     19  C   UNL     1       5.126   5.747  15.884  0.00  0.00    +0.000 A 
ATOM     20  C   UNL     1       5.476   4.390  15.808  0.00  0.00    +0.000 A 
ATOM     21  N   UNL     1       4.904   3.665  16.765  0.00  0.00    +0.000 NA
ATOM     22  N   UNL     1       4.077   4.533  17.411  0.00  0.00    +0.000 N 
BRANCH  22  23
ATOM     23  C   UNL     1       3.135   4.023  18.353  0.00  0.00    +0.000 A 
ATOM     24  C   UNL     1       1.918   3.496  17.894  0.00  0.00    +0.000 A 
ATOM     25  C   UNL     1       1.007   2.950  18.802  0.00  0.00    +0.000 A 
ATOM     26  C   UNL     1       1.288   2.953  20.168  0.00  0.00    +0.000 A 
ATOM     27  C   UNL     1       2.477   3.511  20.631  0.00  0.00    +0.000 A 
ATOM     28  C   UNL     1       3.395   4.052  19.730  0.00  0.00    +0.000 A 
ENDBRANCH  22  23
BRANCH  20  29
ATOM     29  C   UNL     1       6.438   3.820  14.775  0.00  0.00    +0.000 C 
ATOM     30  C   UNL     1       6.990   4.739  13.700  0.00  0.00    +0.000 C 
ATOM     31  C   UNL     1       5.969   3.718  13.334  0.00  0.00    +0.000 C 
ENDBRANCH  20  29
ENDBRANCH   2  18
TORSDOF 6
ENDMDL
MODEL 6
REMARK VINA RESULT:      -8.7      0.680      1.178
REMARK  Name = 
REMARK  6 active torsions:
REMARK  status: ('A' for Active; 'I' for Inactive)
REMARK    1  A    between atoms: C_2  and  C_7
REMARK    2  A    between atoms: N_3  and  C_4
REMARK    3  A    between atoms: C_11  and  N_12
REMARK    4  A    between atoms: C_13  and  C_15
REMARK    5  A    between atoms: C_17  and  C_18
REMARK    6  A    between atoms: N_22  and  C_23
REMARK                            x       y       z     vdW  Elec       q    Type
REMARK                         _______ _______ _______ _____ _____    ______ ____
ROOT
ATOM      1  N   UNL     1       1.792   8.858  18.376  0.00  0.00    +0.000 N 
ATOM      2  C   UNL     1       2.118   7.677  19.043  0.00  0.00    +0.000 C 
ATOM      3  O   UNL     1       1.578   7.312  20.080  0.00  0.00    +0.000 OA
ATOM      4  H   UNL     1       2.233   9.022  17.482  0.00  0.00    +0.000 HD
ENDROOT
BRANCH   1   9
ATOM      5  C   UNL     1      -1.438  10.708  18.290  0.00  0.00    +0.000 A 
ATOM      6  C   UNL     1      -1.414  11.377  19.519  0.00  0.00    +0.000 A 
ATOM      7  C   UNL     1      -0.315  11.253  20.355  0.00  0.00    +0.000 A 
ATOM      8  C   UNL     1       0.757  10.448  19.971  0.00  0.00    +0.000 A 
ATOM      9  C   UNL     1       0.747   9.748  18.757  0.00  0.00    +0.000 A 
ATOM     10  C   UNL     1      -0.347   9.910  17.895  0.00  0.00    +0.000 A 
BRANCH   5  12
ATOM     11  O   UNL     1      -2.530  11.188  16.268  0.00  0.00    +0.000 OA
ATOM     12  C   UNL     1      -2.652  10.894  17.453  0.00  0.00    +0.000 C 
ATOM     13  N   UNL     1      -3.873  10.784  18.092  0.00  0.00    +0.000 N 
ATOM     14  H   UNL     1      -3.901  10.728  19.101  0.00  0.00    +0.000 HD
BRANCH  13  15
ATOM     15  C   UNL     1      -5.091  11.068  17.396  0.00  0.00    +0.000 C 
ATOM     16  C   UNL     1      -5.736  12.424  17.454  0.00  0.00    +0.000 C 
ATOM     17  C   UNL     1      -6.369  11.263  18.164  0.00  0.00    +0.000 C 
ENDBRANCH  13  15
ENDBRANCH   5  12
ENDBRANCH   1   9
BRANCH   2  18
ATOM     18  C   UNL     1       3.131   6.871  18.411  0.00  0.00    +0.000 A 
ATOM     19  C   UNL     1       4.112   7.222  17.501  0.00  0.00    +0.000 A 
ATOM     20  C   UNL     1       4.968   6.111  17.428  0.00  0.00    +0.000 A 
ATOM     21  N   UNL     1       4.581   5.120  18.228  0.00  0.00    +0.000 NA
ATOM     22  N   UNL     1       3.394   5.539  18.749  0.00  0.00    +0.000 N 
BRANCH  22  23
ATOM     23  C   UNL     1       2.590   4.610  19.475  0.00  0.00    +0.000 A 
ATOM     24  C   UNL     1       2.837   4.405  20.840  0.00  0.00    +0.000 A 
ATOM     25  C   UNL     1       2.026   3.533  21.572  0.00  0.00    +0.000 A 
ATOM     26  C   UNL     1       0.990   2.842  20.945  0.00  0.00    +0.000 A 
ATOM     27  C   UNL     1       0.767   3.013  19.581  0.00  0.00    +0.000 A 
ATOM     28  C   UNL     1       1.568   3.886  18.845  0.00  0.00    +0.000 A 
ENDBRANCH  22  23
BRANCH  20  29
ATOM     29  C   UNL     1       6.221   6.062  16.565  0.00  0.00    +0.000 C 
ATOM     30  C   UNL     1       7.316   5.073  16.919  0.00  0.00    +0.000 C 
ATOM     31  C   UNL     1       7.532   6.524  17.174  0.00  0.00    +0.000 C 
ENDBRANCH  20  29
ENDBRANCH   2  18
TORSDOF 6
ENDMDL
MODEL 7
REMARK VINA RESULT:      -8.6      1.620      2.265
REMARK  Name = 
REMARK  6 active torsions:
REMARK  status: ('A' for Active; 'I' for Inactive)
REMARK    1  A    between atoms: C_2  and  C_7
REMARK    2  A    between atoms: N_3  and  C_4
REMARK    3  A    between atoms: C_11  and  N_12
REMARK    4  A    between atoms: C_13  and  C_15
REMARK    5  A    between atoms: C_17  and  C_18
REMARK    6  A    between atoms: N_22  and  C_23
REMARK                            x       y       z     vdW  Elec       q    Type
REMARK                         _______ _______ _______ _____ _____    ______ ____
ROOT
ATOM      1  N   UNL     1       2.308   7.417  19.379  0.00  0.00    +0.000 N 
ATOM      2  C   UNL     1       2.774   7.527  18.069  0.00  0.00    +0.000 C 
ATOM      3  O   UNL     1       2.464   8.441  17.313  0.00  0.00    +0.000 OA
ATOM      4  H   UNL     1       2.694   6.676  19.947  0.00  0.00    +0.000 HD
ENDROOT
BRANCH   1   9
ATOM      5  C   UNL     1      -0.206  10.116  19.885  0.00  0.00    +0.000 A 
ATOM      6  C   UNL     1      -0.263  10.192  21.281  0.00  0.00    +0.000 A 
ATOM      7  C   UNL     1       0.559   9.386  22.053  0.00  0.00    +0.000 A 
ATOM      8  C   UNL     1       1.429   8.492  21.433  0.00  0.00    +0.000 A 
ATOM      9  C   UNL     1       1.486   8.377  20.036  0.00  0.00    +0.000 A 
ATOM     10  C   UNL     1       0.685   9.224  19.258  0.00  0.00    +0.000 A 
BRANCH   5  12
ATOM     11  O   UNL     1      -1.647  11.961  19.705  0.00  0.00    +0.000 OA
ATOM     12  C   UNL     1      -1.120  11.014  19.130  0.00  0.00    +0.000 C 
ATOM     13  N   UNL     1      -1.373  10.681  17.812  0.00  0.00    +0.000 N 
ATOM     14  H   UNL     1      -1.057   9.788  17.457  0.00  0.00    +0.000 HD
BRANCH  13  15
ATOM     15  C   UNL     1      -2.333  11.413  17.044  0.00  0.00    +0.000 C 
ATOM     16  C   UNL     1      -3.743  10.924  16.869  0.00  0.00    +0.000 C 
ATOM     17  C   UNL     1      -2.789  10.889  15.711  0.00  0.00    +0.000 C 
ENDBRANCH  13  15
ENDBRANCH   5  12
ENDBRANCH   1   9
BRANCH   2  18
ATOM     18  C   UNL     1       3.691   6.498  17.651  0.00  0.00    +0.000 A 
ATOM     19  C   UNL     1       4.742   6.550  16.753  0.00  0.00    +0.000 A 
ATOM     20  C   UNL     1       5.443   5.347  16.929  0.00  0.00    +0.000 A 
ATOM     21  N   UNL     1       4.899   4.576  17.868  0.00  0.00    +0.000 NA
ATOM     22  N   UNL     1       3.762   5.229  18.236  0.00  0.00    +0.000 N 
BRANCH  22  23
ATOM     23  C   UNL     1       2.816   4.558  19.066  0.00  0.00    +0.000 A 
ATOM     24  C   UNL     1       3.028   4.507  20.452  0.00  0.00    +0.000 A 
ATOM     25  C   UNL     1       2.085   3.894  21.281  0.00  0.00    +0.000 A 
ATOM     26  C   UNL     1       0.946   3.304  20.734  0.00  0.00    +0.000 A 
ATOM     27  C   UNL     1       0.751   3.317  19.355  0.00  0.00    +0.000 A 
ATOM     28  C   UNL     1       1.685   3.933  18.522  0.00  0.00    +0.000 A 
ENDBRANCH  22  23
BRANCH  20  29
ATOM     29  C   UNL     1       6.708   4.983  16.165  0.00  0.00    +0.000 C 
ATOM     30  C   UNL     1       6.776   5.277  14.677  0.00  0.00    +0.000 C 
ATOM     31  C   UNL     1       6.633   3.868  15.138  0.00  0.00    +0.000 C 
ENDBRANCH  20  29
ENDBRANCH   2  18
TORSDOF 6
ENDMDL
MODEL 8
REMARK VINA RESULT:      -8.5      2.703      4.001
REMARK  Name = 
REMARK  6 active torsions:
REMARK  status: ('A' for Active; 'I' for Inactive)
REMARK    1  A    between atoms: C_2  and  C_7
REMARK    2  A    between atoms: N_3  and  C_4
REMARK    3  A    between atoms: C_11  and  N_12
REMARK    4  A    between atoms: C_13  and  C_15
REMARK    5  A    between atoms: C_17  and  C_18
REMARK    6  A    between atoms: N_22  and  C_23
REMARK                            x       y       z     vdW  Elec       q    Type
REMARK                         _______ _______ _______ _____ _____    ______ ____
ROOT
ATOM      1  N   UNL     1       2.474   8.197  17.525  0.00  0.00    +0.000 N 
ATOM      2  C   UNL     1       2.979   7.223  18.386  0.00  0.00    +0.000 C 
ATOM      3  O   UNL     1       2.817   7.241  19.601  0.00  0.00    +0.000 OA
ATOM      4  H   UNL     1       2.587   8.040  16.533  0.00  0.00    +0.000 HD
ENDROOT
BRANCH   1   9
ATOM      5  C   UNL     1       1.455  11.606  18.620  0.00  0.00    +0.000 A 
ATOM      6  C   UNL     1       0.059  11.513  18.572  0.00  0.00    +0.000 A 
ATOM      7  C   UNL     1      -0.545  10.315  18.222  0.00  0.00    +0.000 A 
ATOM      8  C   UNL     1       0.245   9.211  17.905  0.00  0.00    +0.000 A 
ATOM      9  C   UNL     1       1.645   9.285  17.920  0.00  0.00    +0.000 A 
ATOM     10  C   UNL     1       2.251  10.485  18.316  0.00  0.00    +0.000 A 
BRANCH   5  12
ATOM     11  O   UNL     1       1.694  13.436  20.070  0.00  0.00    +0.000 OA
ATOM     12  C   UNL     1       2.023  12.924  19.004  0.00  0.00    +0.000 C 
ATOM     13  N   UNL     1       2.858  13.535  18.087  0.00  0.00    +0.000 N 
ATOM     14  H   UNL     1       2.937  13.150  17.155  0.00  0.00    +0.000 HD
BRANCH  13  15
ATOM     15  C   UNL     1       3.352  14.859  18.316  0.00  0.00    +0.000 C 
ATOM     16  C   UNL     1       2.481  16.070  18.134  0.00  0.00    +0.000 C 
ATOM     17  C   UNL     1       3.585  15.786  17.156  0.00  0.00    +0.000 C 
ENDBRANCH  13  15
ENDBRANCH   5  12
ENDBRANCH   1   9
BRANCH   2  18
ATOM     18  C   UNL     1       3.694   6.146  17.750  0.00  0.00    +0.000 A 
ATOM     19  C   UNL     1       4.640   6.176  16.741  0.00  0.00    +0.000 A 
ATOM     20  C   UNL     1       5.181   4.882  16.698  0.00  0.00    +0.000 A 
ATOM     21  N   UNL     1       4.638   4.075  17.607  0.00  0.00    +0.000 NA
ATOM     22  N   UNL     1       3.649   4.815  18.180  0.00  0.00    +0.000 N 
BRANCH  22  23
ATOM     23  C   UNL     1       2.712   4.171  19.042  0.00  0.00    +0.000 A 
ATOM     24  C   UNL     1       1.537   3.630  18.502  0.00  0.00    +0.000 A 
ATOM     25  C   UNL     1       0.634   2.955  19.328  0.00  0.00    +0.000 A 
ATOM     26  C   UNL     1       0.882   2.842  20.695  0.00  0.00    +0.000 A 
ATOM     27  C   UNL     1       2.028   3.412  21.243  0.00  0.00    +0.000 A 
ATOM     28  C   UNL     1       2.937   4.082  20.423  0.00  0.00    +0.000 A 
ENDBRANCH  22  23
BRANCH  20  29
ATOM     29  C   UNL     1       6.294   4.459  15.749  0.00  0.00    +0.000 C 
ATOM     30  C   UNL     1       6.468   5.210  14.442  0.00  0.00    +0.000 C 
ATOM     31  C   UNL     1       5.908   3.830  14.422  0.00  0.00    +0.000 C 
ENDBRANCH  20  29
ENDBRANCH   2  18
TORSDOF 6
ENDMDL
MODEL 9
REMARK VINA RESULT:      -8.5      2.518      3.396
REMARK  Name = 
REMARK  6 active torsions:
REMARK  status: ('A' for Active; 'I' for Inactive)
REMARK    1  A    between atoms: C_2  and  C_7
REMARK    2  A    between atoms: N_3  and  C_4
REMARK    3  A    between atoms: C_11  and  N_12
REMARK    4  A    between atoms: C_13  and  C_15
REMARK    5  A    between atoms: C_17  and  C_18
REMARK    6  A    between atoms: N_22  and  C_23
REMARK                            x       y       z     vdW  Elec       q    Type
REMARK                         _______ _______ _______ _____ _____    ______ ____
ROOT
ATOM      1  N   UNL     1       2.103   8.524  19.128  0.00  0.00    +0.000 N 
ATOM      2  C   UNL     1       2.148   7.529  18.152  0.00  0.00    +0.000 C 
ATOM      3  O   UNL     1       1.215   7.274  17.399  0.00  0.00    +0.000 OA
ATOM      4  H   UNL     1       2.956   8.714  19.635  0.00  0.00    +0.000 HD
ENDROOT
BRANCH   1   9
ATOM      5  C   UNL     1      -0.387  10.675  20.869  0.00  0.00    +0.000 A 
ATOM      6  C   UNL     1      -1.028  11.296  19.791  0.00  0.00    +0.000 A 
ATOM      7  C   UNL     1      -0.669  10.973  18.492  0.00  0.00    +0.000 A 
ATOM      8  C   UNL     1       0.340  10.039  18.267  0.00  0.00    +0.000 A 
ATOM      9  C   UNL     1       1.016   9.421  19.329  0.00  0.00    +0.000 A 
ATOM     10  C   UNL     1       0.620   9.719  20.640  0.00  0.00    +0.000 A 
BRANCH   5  12
ATOM     11  O   UNL     1      -0.256  10.618  23.213  0.00  0.00    +0.000 OA
ATOM     12  C   UNL     1      -0.831  11.077  22.230  0.00  0.00    +0.000 C 
ATOM     13  N   UNL     1      -1.929  11.913  22.307  0.00  0.00    +0.000 N 
ATOM     14  H   UNL     1      -2.468  12.101  21.472  0.00  0.00    +0.000 HD
BRANCH  13  15
ATOM     15  C   UNL     1      -2.502  12.254  23.573  0.00  0.00    +0.000 C 
ATOM     16  C   UNL     1      -3.956  12.608  23.712  0.00  0.00    +0.000 C 
ATOM     17  C   UNL     1      -2.907  13.672  23.859  0.00  0.00    +0.000 C 
ENDBRANCH  13  15
ENDBRANCH   5  12
ENDBRANCH   1   9
BRANCH   2  18
ATOM     18  C   UNL     1       3.398   6.819  18.050  0.00  0.00    +0.000 A 
ATOM     19  C   UNL     1       4.599   7.204  17.485  0.00  0.00    +0.000 A 
ATOM     20  C   UNL     1       5.532   6.240  17.898  0.00  0.00    +0.000 A 
ATOM     21  N   UNL     1       4.986   5.307  18.674  0.00  0.00    +0.000 NA
ATOM     22  N   UNL     1       3.655   5.596  18.680  0.00  0.00    +0.000 N 
BRANCH  22  23
ATOM     23  C   UNL     1       2.743   4.650  19.234  0.00  0.00    +0.000 A 
ATOM     24  C   UNL     1       2.586   4.577  20.626  0.00  0.00    +0.000 A 
ATOM     25  C   UNL     1       1.660   3.687  21.178  0.00  0.00    +0.000 A 
ATOM     26  C   UNL     1       0.914   2.848  20.353  0.00  0.00    +0.000 A 
ATOM     27  C   UNL     1       1.096   2.888  18.974  0.00  0.00    +0.000 A 
ATOM     28  C   UNL     1       2.013   3.778  18.414  0.00  0.00    +0.000 A 
ENDBRANCH  22  23
BRANCH  20  29
ATOM     29  C   UNL     1       7.010   6.282  17.537  0.00  0.00    +0.000 C 
ATOM     30  C   UNL     1       8.034   6.415  18.650  0.00  0.00    +0.000 C 
ATOM     31  C   UNL     1       7.769   7.578  17.758  0.00  0.00    +0.000 C 
ENDBRANCH  20  29
ENDBRANCH   2  18
TORSDOF 6
ENDMDL
