MODEL 1
REMARK VINA RESULT:      -8.0      0.000      0.000
REMARK  Name = 
REMARK  6 active torsions:
REMARK  status: ('A' for Active; 'I' for Inactive)
REMARK    1  A    between atoms: C_1  and  N_2
REMARK    2  A    between atoms: C_6  and  C_7
REMARK    3  A    between atoms: C_7  and  C_8
REMARK    4  A    between atoms: C_8  and  C_9
REMARK    5  A    between atoms: C_13  and  N_14
REMARK    6  A    between atoms: C_20  and  C_21
REMARK                            x       y       z     vdW  Elec       q    Type
REMARK                         _______ _______ _______ _____ _____    ______ ____
ROOT
ATOM      1  C   UNL     1       1.040  10.059  19.239  0.00  0.00    +0.000 A 
ATOM      2  C   UNL     1       1.631  10.242  17.969  0.00  0.00    +0.000 A 
ATOM      3  C   UNL     1       2.485   9.278  17.393  0.00  0.00    +0.000 A 
ATOM      4  C   UNL     1       2.746   8.069  18.030  0.00  0.00    +0.000 A 
ATOM      5  C   UNL     1       2.135   7.793  19.241  0.00  0.00    +0.000 A 
ATOM      6  C   UNL     1       1.358   8.824  19.842  0.00  0.00    +0.000 A 
ENDROOT
BRANCH   5   7
ATOM      7  N   UNL     1       2.140   6.548  19.817  0.00  0.00    +0.000 N 
ATOM      8  C   UNL     1       1.584   5.969  21.075  0.00  0.00    +0.000 C 
ATOM      9  C   UNL     1       2.053   4.514  20.936  0.00  0.00    +0.000 A 
ATOM     10  C   UNL     1       1.601   3.338  21.514  0.00  0.00    +0.000 A 
ATOM     11  C   UNL     1       1.825   2.143  20.812  0.00  0.00    +0.000 A 
ATOM     12  C   UNL     1       2.283   2.191  19.484  0.00  0.00    +0.000 A 
ATOM     13  C   UNL     1       2.705   3.405  18.939  0.00  0.00    +0.000 A 
ATOM     14  C   UNL     1       2.871   4.460  19.808  0.00  0.00    +0.000 A 
ATOM     15  C   UNL     1       3.364   5.826  19.518  0.00  0.00    +0.000 C 
BRANCH  13  16
ATOM     16  C   UNL     1       2.535   3.731  17.472  0.00  0.00    +0.000 C 
ATOM     17  F   UNL     1       2.412   2.627  16.686  0.00  0.00    +0.000 F 
ATOM     18  F   UNL     1       1.379   4.441  17.274  0.00  0.00    +0.000 F 
ENDBRANCH  13  16
ENDBRANCH   5   7
BRANCH   1  19
ATOM     19  C   UNL     1       0.099  11.193  19.950  0.00  0.00    +0.000 C 
ATOM     20  C   UNL     1      -0.695  10.824  21.236  0.00  0.00    +0.000 C 
ATOM     21  O   UNL     1      -0.051  11.869  22.003  0.00  0.00    +0.000 OA
ATOM     22  C   UNL     1       0.867  12.136  20.925  0.00  0.00    +0.000 C 
BRANCH  19  23
ATOM     23  C   UNL     1      -0.751  12.015  18.944  0.00  0.00    +0.000 C 
BRANCH  23  29
ATOM     24  C   UNL     1      -3.804  12.400  19.674  0.00  0.00    +0.000 C 
ATOM     25  N   UNL     1      -3.248  11.508  18.691  0.00  0.00    +0.000 N 
ATOM     26  C   UNL     1      -3.979  10.663  17.912  0.00  0.00    +0.000 A 
ATOM     27  N   UNL     1      -3.172   9.955  17.159  0.00  0.00    +0.000 NA
ATOM     28  N   UNL     1      -1.888  10.343  17.439  0.00  0.00    +0.000 NA
ATOM     29  C   UNL     1      -1.932  11.301  18.352  0.00  0.00    +0.000 A 
ENDBRANCH  23  29
ENDBRANCH  19  23
ENDBRANCH   1  19
TORSDOF 5
ENDMDL
MODEL 2
REMARK VINA RESULT:      -7.9      0.675      1.272
REMARK  Name = 
REMARK  6 active torsions:
REMARK  status: ('A' for Active; 'I' for Inactive)
REMARK    1  A    between atoms: C_1  and  N_2
REMARK    2  A    between atoms: C_6  and  C_7
REMARK    3  A    between atoms: C_7  and  C_8
REMARK    4  A    between atoms: C_8  and  C_9
REMARK    5  A    between atoms: C_13  and  N_14
REMARK    6  A    between atoms: C_20  and  C_21
REMARK                            x       y       z     vdW  Elec       q    Type
REMARK                         _______ _______ _______ _____ _____    ______ ____
ROOT
ATOM      1  C   UNL     1       1.067  10.008  19.292  0.00  0.00    +0.000 A 
ATOM      2  C   UNL     1       1.610  10.189  18.001  0.00  0.00    +0.000 A 
ATOM      3  C   UNL     1       2.430   9.216  17.390  0.00  0.00    +0.000 A 
ATOM      4  C   UNL     1       2.701   8.002  18.012  0.00  0.00    +0.000 A 
ATOM      5  C   UNL     1       2.134   7.730  19.245  0.00  0.00    +0.000 A 
ATOM      6  C   UNL     1       1.393   8.768  19.879  0.00  0.00    +0.000 A 
ENDROOT
BRANCH   5   7
ATOM      7  N   UNL     1       2.146   6.483  19.816  0.00  0.00    +0.000 N 
ATOM      8  C   UNL     1       1.655   5.911  21.105  0.00  0.00    +0.000 C 
ATOM      9  C   UNL     1       2.082   4.446  20.933  0.00  0.00    +0.000 A 
ATOM     10  C   UNL     1       1.640   3.279  21.535  0.00  0.00    +0.000 A 
ATOM     11  C   UNL     1       1.793   2.082  20.818  0.00  0.00    +0.000 A 
ATOM     12  C   UNL     1       2.170   2.125  19.465  0.00  0.00    +0.000 A 
ATOM     13  C   UNL     1       2.584   3.331  18.897  0.00  0.00    +0.000 A 
ATOM     14  C   UNL     1       2.828   4.379  19.757  0.00  0.00    +0.000 A 
ATOM     15  C   UNL     1       3.333   5.734  19.440  0.00  0.00    +0.000 C 
BRANCH  13  16
ATOM     16  C   UNL     1       2.332   3.667  17.445  0.00  0.00    +0.000 C 
ATOM     17  F   UNL     1       1.388   4.632  17.271  0.00  0.00    +0.000 F 
ATOM     18  F   UNL     1       3.469   4.170  16.868  0.00  0.00    +0.000 F 
ENDBRANCH  13  16
ENDBRANCH   5   7
BRANCH   1  19
ATOM     19  C   UNL     1       0.167  11.150  20.043  0.00  0.00    +0.000 C 
ATOM     20  C   UNL     1      -0.718  10.745  21.256  0.00  0.00    +0.000 C 
ATOM     21  O   UNL     1      -0.047  11.681  22.133  0.00  0.00    +0.000 OA
ATOM     22  C   UNL     1       0.943  11.961  21.124  0.00  0.00    +0.000 C 
BRANCH  19  23
ATOM     23  C   UNL     1      -0.569  12.105  19.064  0.00  0.00    +0.000 C 
BRANCH  23  29
ATOM     24  C   UNL     1      -1.940  10.063  17.076  0.00  0.00    +0.000 C 
ATOM     25  N   UNL     1      -2.592  10.940  18.013  0.00  0.00    +0.000 N 
ATOM     26  C   UNL     1      -3.942  11.028  18.179  0.00  0.00    +0.000 A 
ATOM     27  N   UNL     1      -4.211  11.951  19.071  0.00  0.00    +0.000 NA
ATOM     28  N   UNL     1      -3.023  12.474  19.507  0.00  0.00    +0.000 NA
ATOM     29  C   UNL     1      -2.037  11.847  18.883  0.00  0.00    +0.000 A 
ENDBRANCH  23  29
ENDBRANCH  19  23
ENDBRANCH   1  19
TORSDOF 5
ENDMDL
MODEL 3
REMARK VINA RESULT:      -7.9      3.794      8.409
REMARK  Name = 
REMARK  6 active torsions:
REMARK  status: ('A' for Active; 'I' for Inactive)
REMARK    1  A    between atoms: C_1  and  N_2
REMARK    2  A    between atoms: C_6  and  C_7
REMARK    3  A    between atoms: C_7  and  C_8
REMARK    4  A    between atoms: C_8  and  C_9
REMARK    5  A    between atoms: C_13  and  N_14
REMARK    6  A    between atoms: C_20  and  C_21
REMARK                            x       y       z     vdW  Elec       q    Type
REMARK                         _______ _______ _______ _____ _____    ______ ____
ROOT
ATOM      1  C   UNL     1       2.896   6.177  18.585  0.00  0.00    +0.000 A 
ATOM      2  C   UNL     1       3.613   6.936  17.633  0.00  0.00    +0.000 A 
ATOM      3  C   UNL     1       3.344   8.303  17.408  0.00  0.00    +0.000 A 
ATOM      4  C   UNL     1       2.391   8.987  18.155  0.00  0.00    +0.000 A 
ATOM      5  C   UNL     1       1.708   8.320  19.158  0.00  0.00    +0.000 A 
ATOM      6  C   UNL     1       1.930   6.920  19.295  0.00  0.00    +0.000 A 
ENDROOT
BRANCH   5   7
ATOM      7  N   UNL     1       0.937   8.962  20.094  0.00  0.00    +0.000 N 
ATOM      8  C   UNL     1       0.548   8.682  21.507  0.00  0.00    +0.000 C 
ATOM      9  C   UNL     1      -0.333   9.906  21.795  0.00  0.00    +0.000 A 
ATOM     10  C   UNL     1      -0.719  10.508  22.983  0.00  0.00    +0.000 A 
ATOM     11  C   UNL     1      -1.036  11.874  22.943  0.00  0.00    +0.000 A 
ATOM     12  C   UNL     1      -0.749  12.623  21.789  0.00  0.00    +0.000 A 
ATOM     13  C   UNL     1      -0.339  11.972  20.623  0.00  0.00    +0.000 A 
ATOM     14  C   UNL     1      -0.463  10.601  20.593  0.00  0.00    +0.000 A 
ATOM     15  C   UNL     1      -0.170   9.672  19.478  0.00  0.00    +0.000 C 
BRANCH  13  16
ATOM     16  C   UNL     1       0.619  12.607  19.641  0.00  0.00    +0.000 C 
ATOM     17  F   UNL     1       0.640  13.966  19.710  0.00  0.00    +0.000 F 
ATOM     18  F   UNL     1       1.905  12.215  19.910  0.00  0.00    +0.000 F 
ENDBRANCH  13  16
ENDBRANCH   5   7
BRANCH   1  19
ATOM     19  C   UNL     1       3.148   4.577  18.815  0.00  0.00    +0.000 C 
ATOM     20  C   UNL     1       2.970   3.975  20.238  0.00  0.00    +0.000 C 
ATOM     21  O   UNL     1       1.957   3.048  19.783  0.00  0.00    +0.000 OA
ATOM     22  C   UNL     1       1.912   3.686  18.491  0.00  0.00    +0.000 C 
BRANCH  19  23
ATOM     23  C   UNL     1       4.416   4.038  18.097  0.00  0.00    +0.000 C 
BRANCH  23  29
ATOM     24  C   UNL     1       6.990   4.634  16.358  0.00  0.00    +0.000 C 
ATOM     25  N   UNL     1       6.815   4.871  17.767  0.00  0.00    +0.000 N 
ATOM     26  C   UNL     1       7.768   5.396  18.586  0.00  0.00    +0.000 A 
ATOM     27  N   UNL     1       7.311   5.439  19.815  0.00  0.00    +0.000 NA
ATOM     28  N   UNL     1       6.035   4.942  19.806  0.00  0.00    +0.000 NA
ATOM     29  C   UNL     1       5.722   4.618  18.561  0.00  0.00    +0.000 A 
ENDBRANCH  23  29
ENDBRANCH  19  23
ENDBRANCH   1  19
TORSDOF 5
ENDMDL
MODEL 4
REMARK VINA RESULT:      -7.8      2.649      3.161
REMARK  Name = 
REMARK  6 active torsions:
REMARK  status: ('A' for Active; 'I' for Inactive)
REMARK    1  A    between atoms: C_1  and  N_2
REMARK    2  A    between atoms: C_6  and  C_7
REMARK    3  A    between atoms: C_7  and  C_8
REMARK    4  A    between atoms: C_8  and  C_9
REMARK    5  A    between atoms: C_13  and  N_14
REMARK    6  A    between atoms: C_20  and  C_21
REMARK                            x       y       z     vdW  Elec       q    Type
REMARK                         _______ _______ _______ _____ _____    ______ ____
ROOT
ATOM      1  C   UNL     1       0.993   9.107  19.950  0.00  0.00    +0.000 A 
ATOM      2  C   UNL     1       1.013   9.809  18.724  0.00  0.00    +0.000 A 
ATOM      3  C   UNL     1       1.838   9.417  17.649  0.00  0.00    +0.000 A 
ATOM      4  C   UNL     1       2.637   8.281  17.725  0.00  0.00    +0.000 A 
ATOM      5  C   UNL     1       2.604   7.503  18.870  0.00  0.00    +0.000 A 
ATOM      6  C   UNL     1       1.838   7.978  19.973  0.00  0.00    +0.000 A 
ENDROOT
BRANCH   5   7
ATOM      7  N   UNL     1       3.163   6.253  18.943  0.00  0.00    +0.000 N 
ATOM      8  C   UNL     1       4.425   5.696  19.513  0.00  0.00    +0.000 C 
ATOM      9  C   UNL     1       4.257   4.213  19.153  0.00  0.00    +0.000 A 
ATOM     10  C   UNL     1       4.829   3.065  19.677  0.00  0.00    +0.000 A 
ATOM     11  C   UNL     1       4.107   1.868  19.555  0.00  0.00    +0.000 A 
ATOM     12  C   UNL     1       2.770   1.902  19.121  0.00  0.00    +0.000 A 
ATOM     13  C   UNL     1       2.231   3.090  18.625  0.00  0.00    +0.000 A 
ATOM     14  C   UNL     1       3.111   4.118  18.365  0.00  0.00    +0.000 A 
ATOM     15  C   UNL     1       2.828   5.448  17.781  0.00  0.00    +0.000 C 
BRANCH  13  16
ATOM     16  C   UNL     1       0.773   3.449  18.802  0.00  0.00    +0.000 C 
ATOM     17  F   UNL     1      -0.044   2.363  18.868  0.00  0.00    +0.000 F 
ATOM     18  F   UNL     1       0.587   4.110  19.988  0.00  0.00    +0.000 F 
ENDBRANCH  13  16
ENDBRANCH   5   7
BRANCH   1  19
ATOM     19  C   UNL     1       0.092   9.583  21.230  0.00  0.00    +0.000 C 
ATOM     20  C   UNL     1      -0.598   8.508  22.117  0.00  0.00    +0.000 C 
ATOM     21  O   UNL     1       0.087   8.965  23.306  0.00  0.00    +0.000 OA
ATOM     22  C   UNL     1       0.918   9.846  22.525  0.00  0.00    +0.000 C 
BRANCH  19  23
ATOM     23  C   UNL     1      -0.841  10.785  20.920  0.00  0.00    +0.000 C 
BRANCH  23  29
ATOM     24  C   UNL     1      -2.602  12.046  23.226  0.00  0.00    +0.000 C 
ATOM     25  N   UNL     1      -1.357  12.548  22.704  0.00  0.00    +0.000 N 
ATOM     26  C   UNL     1      -0.739  13.683  23.137  0.00  0.00    +0.000 A 
ATOM     27  N   UNL     1       0.345  13.885  22.428  0.00  0.00    +0.000 NA
ATOM     28  N   UNL     1       0.450  12.865  21.520  0.00  0.00    +0.000 NA
ATOM     29  C   UNL     1      -0.569  12.039  21.700  0.00  0.00    +0.000 A 
ENDBRANCH  23  29
ENDBRANCH  19  23
ENDBRANCH   1  19
TORSDOF 5
ENDMDL
MODEL 5
REMARK VINA RESULT:      -7.8      2.300      3.098
REMARK  Name = 
REMARK  6 active torsions:
REMARK  status: ('A' for Active; 'I' for Inactive)
REMARK    1  A    between atoms: C_1  and  N_2
REMARK    2  A    between atoms: C_6  and  C_7
REMARK    3  A    between atoms: C_7  and  C_8
REMARK    4  A    between atoms: C_8  and  C_9
REMARK    5  A    between atoms: C_13  and  N_14
REMARK    6  A    between atoms: C_20  and  C_21
REMARK                            x       y       z     vdW  Elec       q    Type
REMARK                         _______ _______ _______ _____ _____    ______ ____
ROOT
ATOM      1  C   UNL     1       1.063   9.347  20.063  0.00  0.00    +0.000 A 
ATOM      2  C   UNL     1       0.776   9.947  18.817  0.00  0.00    +0.000 A 
ATOM      3  C   UNL     1       1.328   9.470  17.610  0.00  0.00    +0.000 A 
ATOM      4  C   UNL     1       2.144   8.344  17.582  0.00  0.00    +0.000 A 
ATOM      5  C   UNL     1       2.401   7.662  18.758  0.00  0.00    +0.000 A 
ATOM      6  C   UNL     1       1.911   8.224  19.972  0.00  0.00    +0.000 A 
ENDROOT
BRANCH   5   7
ATOM      7  N   UNL     1       2.986   6.422  18.793  0.00  0.00    +0.000 N 
ATOM      8  C   UNL     1       4.393   5.921  18.787  0.00  0.00    +0.000 C 
ATOM      9  C   UNL     1       4.144   4.407  18.842  0.00  0.00    +0.000 A 
ATOM     10  C   UNL     1       4.951   3.352  19.238  0.00  0.00    +0.000 A 
ATOM     11  C   UNL     1       4.316   2.191  19.705  0.00  0.00    +0.000 A 
ATOM     12  C   UNL     1       2.934   2.209  19.964  0.00  0.00    +0.000 A 
ATOM     13  C   UNL     1       2.168   3.307  19.568  0.00  0.00    +0.000 A 
ATOM     14  C   UNL     1       2.766   4.221  18.729  0.00  0.00    +0.000 A 
ATOM     15  C   UNL     1       2.176   5.429  18.109  0.00  0.00    +0.000 C 
BRANCH  13  16
ATOM     16  C   UNL     1       0.955   3.765  20.345  0.00  0.00    +0.000 C 
ATOM     17  F   UNL     1       0.600   2.910  21.343  0.00  0.00    +0.000 F 
ATOM     18  F   UNL     1       1.215   4.956  20.972  0.00  0.00    +0.000 F 
ENDBRANCH  13  16
ENDBRANCH   5   7
BRANCH   1  19
ATOM     19  C   UNL     1       0.484   9.925  21.481  0.00  0.00    +0.000 C 
ATOM     20  C   UNL     1      -0.683   9.177  22.187  0.00  0.00    +0.000 C 
ATOM     21  O   UNL     1       0.101   8.967  23.385  0.00  0.00    +0.000 OA
ATOM     22  C   UNL     1       1.287   9.458  22.732  0.00  0.00    +0.000 C 
BRANCH  19  23
ATOM     23  C   UNL     1       0.295  11.466  21.492  0.00  0.00    +0.000 C 
BRANCH  23  29
ATOM     24  C   UNL     1      -2.298  12.226  19.847  0.00  0.00    +0.000 C 
ATOM     25  N   UNL     1      -2.128  12.266  21.276  0.00  0.00    +0.000 N 
ATOM     26  C   UNL     1      -3.089  12.659  22.158  0.00  0.00    +0.000 A 
ATOM     27  N   UNL     1      -2.603  12.627  23.375  0.00  0.00    +0.000 NA
ATOM     28  N   UNL     1      -1.304  12.199  23.297  0.00  0.00    +0.000 NA
ATOM     29  C   UNL     1      -1.020  11.957  22.027  0.00  0.00    +0.000 A 
ENDBRANCH  23  29
ENDBRANCH  19  23
ENDBRANCH   1  19
TORSDOF 5
ENDMDL
MODEL 6
REMARK VINA RESULT:      -7.7      2.656      3.449
REMARK  Name = 
REMARK  6 active torsions:
REMARK  status: ('A' for Active; 'I' for Inactive)
REMARK    1  A    between atoms: C_1  and  N_2
REMARK    2  A    between atoms: C_6  and  C_7
REMARK    3  A    between atoms: C_7  and  C_8
REMARK    4  A    between atoms: C_8  and  C_9
REMARK    5  A    between atoms: C_13  and  N_14
REMARK    6  A    between atoms: C_20  and  C_21
REMARK                            x       y       z     vdW  Elec       q    Type
REMARK                         _______ _______ _______ _____ _____    ______ ____
ROOT
ATOM      1  C   UNL     1       1.102   9.169  19.725  0.00  0.00    +0.000 A 
ATOM      2  C   UNL     1       1.431  10.107  18.721  0.00  0.00    +0.000 A 
ATOM      3  C   UNL     1       2.289   9.786  17.648  0.00  0.00    +0.000 A 
ATOM      4  C   UNL     1       2.814   8.507  17.497  0.00  0.00    +0.000 A 
ATOM      5  C   UNL     1       2.467   7.520  18.403  0.00  0.00    +0.000 A 
ATOM      6  C   UNL     1       1.680   7.898  19.528  0.00  0.00    +0.000 A 
ENDROOT
BRANCH   5   7
ATOM      7  N   UNL     1       2.736   6.190  18.201  0.00  0.00    +0.000 N 
ATOM      8  C   UNL     1       3.862   5.425  17.588  0.00  0.00    +0.000 C 
ATOM      9  C   UNL     1       3.351   3.990  17.775  0.00  0.00    +0.000 A 
ATOM     10  C   UNL     1       4.009   2.770  17.797  0.00  0.00    +0.000 A 
ATOM     11  C   UNL     1       3.413   1.725  18.518  0.00  0.00    +0.000 A 
ATOM     12  C   UNL     1       2.317   1.994  19.358  0.00  0.00    +0.000 A 
ATOM     13  C   UNL     1       1.703   3.247  19.317  0.00  0.00    +0.000 A 
ATOM     14  C   UNL     1       2.056   4.086  18.284  0.00  0.00    +0.000 A 
ATOM     15  C   UNL     1       1.522   5.429  17.962  0.00  0.00    +0.000 C 
BRANCH  13  16
ATOM     16  C   UNL     1       1.074   3.876  20.540  0.00  0.00    +0.000 C 
ATOM     17  F   UNL     1       0.831   2.984  21.539  0.00  0.00    +0.000 F 
ATOM     18  F   UNL     1       1.921   4.803  21.088  0.00  0.00    +0.000 F 
ENDBRANCH  13  16
ENDBRANCH   5   7
BRANCH   1  19
ATOM     19  C   UNL     1       0.161   9.541  21.011  0.00  0.00    +0.000 C 
ATOM     20  C   UNL     1      -0.450   8.392  21.863  0.00  0.00    +0.000 C 
ATOM     21  O   UNL     1       0.193   8.867  23.070  0.00  0.00    +0.000 OA
ATOM     22  C   UNL     1       0.957   9.830  22.319  0.00  0.00    +0.000 C 
BRANCH  19  23
ATOM     23  C   UNL     1      -0.860  10.676  20.727  0.00  0.00    +0.000 C 
BRANCH  23  29
ATOM     24  C   UNL     1       0.744  13.377  20.356  0.00  0.00    +0.000 C 
ATOM     25  N   UNL     1      -0.106  13.011  21.459  0.00  0.00    +0.000 N 
ATOM     26  C   UNL     1      -0.344  13.798  22.546  0.00  0.00    +0.000 A 
ATOM     27  N   UNL     1      -1.119  13.156  23.387  0.00  0.00    +0.000 NA
ATOM     28  N   UNL     1      -1.403  11.930  22.844  0.00  0.00    +0.000 NA
ATOM     29  C   UNL     1      -0.809  11.848  21.664  0.00  0.00    +0.000 A 
ENDBRANCH  23  29
ENDBRANCH  19  23
ENDBRANCH   1  19
TORSDOF 5
ENDMDL
MODEL 7
REMARK VINA RESULT:      -7.7      2.093      2.834
REMARK  Name = 
REMARK  6 active torsions:
REMARK  status: ('A' for Active; 'I' for Inactive)
REMARK    1  A    between atoms: C_1  and  N_2
REMARK    2  A    between atoms: C_6  and  C_7
REMARK    3  A    between atoms: C_7  and  C_8
REMARK    4  A    between atoms: C_8  and  C_9
REMARK    5  A    between atoms: C_13  and  N_14
REMARK    6  A    between atoms: C_20  and  C_21
REMARK                            x       y       z     vdW  Elec       q    Type
REMARK                         _______ _______ _______ _____ _____    ______ ____
ROOT
ATOM      1  C   UNL     1       1.292   9.237  19.811  0.00  0.00    +0.000 A 
ATOM      2  C   UNL     1       1.499  10.143  18.748  0.00  0.00    +0.000 A 
ATOM      3  C   UNL     1       2.220   9.787  17.589  0.00  0.00    +0.000 A 
ATOM      4  C   UNL     1       2.719   8.500  17.413  0.00  0.00    +0.000 A 
ATOM      5  C   UNL     1       2.482   7.541  18.382  0.00  0.00    +0.000 A 
ATOM      6  C   UNL     1       1.837   7.957  19.583  0.00  0.00    +0.000 A 
ENDROOT
BRANCH   5   7
ATOM      7  N   UNL     1       2.721   6.205  18.189  0.00  0.00    +0.000 N 
ATOM      8  C   UNL     1       3.819   5.412  17.560  0.00  0.00    +0.000 C 
ATOM      9  C   UNL     1       3.283   3.989  17.772  0.00  0.00    +0.000 A 
ATOM     10  C   UNL     1       3.918   2.757  17.793  0.00  0.00    +0.000 A 
ATOM     11  C   UNL     1       3.316   1.731  18.536  0.00  0.00    +0.000 A 
ATOM     12  C   UNL     1       2.244   2.029  19.395  0.00  0.00    +0.000 A 
ATOM     13  C   UNL     1       1.654   3.294  19.355  0.00  0.00    +0.000 A 
ATOM     14  C   UNL     1       2.001   4.116  18.306  0.00  0.00    +0.000 A 
ATOM     15  C   UNL     1       1.488   5.466  17.982  0.00  0.00    +0.000 C 
BRANCH  13  16
ATOM     16  C   UNL     1       1.062   3.946  20.584  0.00  0.00    +0.000 C 
ATOM     17  F   UNL     1       0.871   3.078  21.615  0.00  0.00    +0.000 F 
ATOM     18  F   UNL     1       1.915   4.901  21.073  0.00  0.00    +0.000 F 
ENDBRANCH  13  16
ENDBRANCH   5   7
BRANCH   1  19
ATOM     19  C   UNL     1       0.514   9.651  21.190  0.00  0.00    +0.000 C 
ATOM     20  C   UNL     1      -0.719   8.820  21.646  0.00  0.00    +0.000 C 
ATOM     21  O   UNL     1      -0.100   8.486  22.911  0.00  0.00    +0.000 OA
ATOM     22  C   UNL     1       1.152   9.057  22.482  0.00  0.00    +0.000 C 
BRANCH  19  23
ATOM     23  C   UNL     1       0.288  11.179  21.341  0.00  0.00    +0.000 C 
BRANCH  23  29
ATOM     24  C   UNL     1      -2.100  12.246  23.120  0.00  0.00    +0.000 C 
ATOM     25  N   UNL     1      -2.054  12.156  21.684  0.00  0.00    +0.000 N 
ATOM     26  C   UNL     1      -3.071  12.522  20.854  0.00  0.00    +0.000 A 
ATOM     27  N   UNL     1      -2.731  12.271  19.612  0.00  0.00    +0.000 NA
ATOM     28  N   UNL     1      -1.468  11.740  19.622  0.00  0.00    +0.000 NA
ATOM     29  C   UNL     1      -1.046  11.690  20.875  0.00  0.00    +0.000 A 
ENDBRANCH  23  29
ENDBRANCH  19  23
ENDBRANCH   1  19
TORSDOF 5
ENDMDL
MODEL 8
REMARK VINA RESULT:      -7.6      0.854      1.092
REMARK  Name = 
REMARK  6 active torsions:
REMARK  status: ('A' for Active; 'I' for Inactive)
REMARK    1  A    between atoms: C_1  and  N_2
REMARK    2  A    between atoms: C_6  and  C_7
REMARK    3  A    between atoms: C_7  and  C_8
REMARK    4  A    between atoms: C_8  and  C_9
REMARK    5  A    between atoms: C_13  and  N_14
REMARK    6  A    between atoms: C_20  and  C_21
REMARK                            x       y       z     vdW  Elec       q    Type
REMARK                         _______ _______ _______ _____ _____    ______ ____
ROOT
ATOM      1  C   UNL     1       0.851   9.852  18.952  0.00  0.00    +0.000 A 
ATOM      2  C   UNL     1       1.618  10.084  17.789  0.00  0.00    +0.000 A 
ATOM      3  C   UNL     1       2.638   9.201  17.375  0.00  0.00    +0.000 A 
ATOM      4  C   UNL     1       2.903   8.024  18.068  0.00  0.00    +0.000 A 
ATOM      5  C   UNL     1       2.135   7.698  19.172  0.00  0.00    +0.000 A 
ATOM      6  C   UNL     1       1.180   8.655  19.622  0.00  0.00    +0.000 A 
ENDROOT
BRANCH   5   7
ATOM      7  N   UNL     1       2.161   6.462  19.765  0.00  0.00    +0.000 N 
ATOM      8  C   UNL     1       1.664   5.904  21.057  0.00  0.00    +0.000 C 
ATOM      9  C   UNL     1       2.119   4.444  20.917  0.00  0.00    +0.000 A 
ATOM     10  C   UNL     1       1.689   3.279  21.534  0.00  0.00    +0.000 A 
ATOM     11  C   UNL     1       1.872   2.074  20.840  0.00  0.00    +0.000 A 
ATOM     12  C   UNL     1       2.266   2.099  19.490  0.00  0.00    +0.000 A 
ATOM     13  C   UNL     1       2.666   3.303  18.907  0.00  0.00    +0.000 A 
ATOM     14  C   UNL     1       2.880   4.369  19.751  0.00  0.00    +0.000 A 
ATOM     15  C   UNL     1       3.365   5.728  19.417  0.00  0.00    +0.000 C 
BRANCH  13  16
ATOM     16  C   UNL     1       2.426   3.609  17.446  0.00  0.00    +0.000 C 
ATOM     17  F   UNL     1       1.475   4.561  17.244  0.00  0.00    +0.000 F 
ATOM     18  F   UNL     1       3.565   4.114  16.873  0.00  0.00    +0.000 F 
ENDBRANCH  13  16
ENDBRANCH   5   7
BRANCH   1  19
ATOM     19  C   UNL     1      -0.292  10.896  19.484  0.00  0.00    +0.000 C 
ATOM     20  C   UNL     1      -0.071  11.646  20.828  0.00  0.00    +0.000 C 
ATOM     21  O   UNL     1      -0.168  12.940  20.188  0.00  0.00    +0.000 OA
ATOM     22  C   UNL     1      -0.171  12.329  18.884  0.00  0.00    +0.000 C 
BRANCH  19  23
ATOM     23  C   UNL     1      -1.741  10.358  19.336  0.00  0.00    +0.000 C 
BRANCH  23  29
ATOM     24  C   UNL     1      -4.381  11.958  18.646  0.00  0.00    +0.000 C 
ATOM     25  N   UNL     1      -3.517  11.263  17.728  0.00  0.00    +0.000 N 
ATOM     26  C   UNL     1      -3.723  11.182  16.384  0.00  0.00    +0.000 A 
ATOM     27  N   UNL     1      -2.786  10.441  15.844  0.00  0.00    +0.000 NA
ATOM     28  N   UNL     1      -1.944  10.033  16.844  0.00  0.00    +0.000 NA
ATOM     29  C   UNL     1      -2.372  10.548  17.986  0.00  0.00    +0.000 A 
ENDBRANCH  23  29
ENDBRANCH  19  23
ENDBRANCH   1  19
TORSDOF 5
ENDMDL
MODEL 9
REMARK VINA RESULT:      -7.6      4.009      7.715
REMARK  Name = 
REMARK  6 active torsions:
REMARK  status: ('A' for Active; 'I' for Inactive)
REMARK    1  A    between atoms: C_1  and  N_2
REMARK    2  A    between atoms: C_6  and  C_7
REMARK    3  A    between atoms: C_7  and  C_8
REMARK    4  A    between atoms: C_8  and  C_9
REMARK    5  A    between atoms: C_13  and  N_14
REMARK    6  A    between atoms: C_20  and  C_21
REMARK                            x       y       z     vdW  Elec       q    Type
REMARK                         _______ _______ _______ _____ _____    ______ ____
ROOT
ATOM      1  C   UNL     1       4.033   6.239  18.483  0.00  0.00    +0.000 A 
ATOM      2  C   UNL     1       4.246   6.998  17.310  0.00  0.00    +0.000 A 
ATOM      3  C   UNL     1       3.424   8.091  16.966  0.00  0.00    +0.000 A 
ATOM      4  C   UNL     1       2.390   8.511  17.797  0.00  0.00    +0.000 A 
ATOM      5  C   UNL     1       2.179   7.860  19.000  0.00  0.00    +0.000 A 
ATOM      6  C   UNL     1       2.960   6.701  19.273  0.00  0.00    +0.000 A 
ENDROOT
BRANCH   5   7
ATOM      7  N   UNL     1       1.354   8.347  19.981  0.00  0.00    +0.000 N 
ATOM      8  C   UNL     1       0.880   7.843  21.304  0.00  0.00    +0.000 C 
ATOM      9  C   UNL     1      -0.015   9.013  21.737  0.00  0.00    +0.000 A 
ATOM     10  C   UNL     1      -0.470   9.416  22.983  0.00  0.00    +0.000 A 
ATOM     11  C   UNL     1      -0.783  10.773  23.150  0.00  0.00    +0.000 A 
ATOM     12  C   UNL     1      -0.425  11.699  22.154  0.00  0.00    +0.000 A 
ATOM     13  C   UNL     1       0.053  11.244  20.924  0.00  0.00    +0.000 A 
ATOM     14  C   UNL     1      -0.071   9.898  20.661  0.00  0.00    +0.000 A 
ATOM     15  C   UNL     1       0.287   9.162  19.427  0.00  0.00    +0.000 C 
BRANCH  13  16
ATOM     16  C   UNL     1       1.069  12.020  20.118  0.00  0.00    +0.000 C 
ATOM     17  F   UNL     1       0.546  12.597  19.002  0.00  0.00    +0.000 F 
ATOM     18  F   UNL     1       1.568  13.061  20.858  0.00  0.00    +0.000 F 
ENDBRANCH  13  16
ENDBRANCH   5   7
BRANCH   1  19
ATOM     19  C   UNL     1       4.935   4.929  18.867  0.00  0.00    +0.000 C 
ATOM     20  C   UNL     1       5.777   4.234  17.760  0.00  0.00    +0.000 C 
ATOM     21  O   UNL     1       7.011   4.439  18.487  0.00  0.00    +0.000 OA
ATOM     22  C   UNL     1       6.338   5.273  19.451  0.00  0.00    +0.000 C 
BRANCH  19  23
ATOM     23  C   UNL     1       4.196   3.911  19.777  0.00  0.00    +0.000 C 
BRANCH  23  29
ATOM     24  C   UNL     1       1.559   3.103  21.325  0.00  0.00    +0.000 C 
ATOM     25  N   UNL     1       1.811   2.988  19.912  0.00  0.00    +0.000 N 
ATOM     26  C   UNL     1       0.924   2.490  19.007  0.00  0.00    +0.000 A 
ATOM     27  N   UNL     1       1.476   2.478  17.818  0.00  0.00    +0.000 NA
ATOM     28  N   UNL     1       2.743   2.983  17.938  0.00  0.00    +0.000 NA
ATOM     29  C   UNL     1       2.942   3.315  19.204  0.00  0.00    +0.000 A 
ENDBRANCH  23  29
ENDBRANCH  19  23
ENDBRANCH   1  19
TORSDOF 5
ENDMDL
