MODEL 1
REMARK VINA RESULT:      -8.7      0.000      0.000
REMARK  Name = 
REMARK  5 active torsions:
REMARK  status: ('A' for Active; 'I' for Inactive)
REMARK    1  A    between atoms: C_1  and  N_2
REMARK    2  A    between atoms: C_6  and  C_7
REMARK    3  A    between atoms: C_7  and  C_8
REMARK    4  A    between atoms: C_8  and  C_9
REMARK    5  A    between atoms: C_13  and  N_14
REMARK                            x       y       z     vdW  Elec       q    Type
REMARK                         _______ _______ _______ _____ _____    ______ ____
ROOT
ATOM      1  C   UNL     1       4.448   5.272  17.281  0.00  0.00    +0.000 A 
ATOM      2  C   UNL     1       3.472   4.257  17.244  0.00  0.00    +0.000 A 
ATOM      3  C   UNL     1       2.186   4.449  17.746  0.00  0.00    +0.000 A 
ATOM      4  C   UNL     1       1.831   5.677  18.294  0.00  0.00    +0.000 A 
ATOM      5  C   UNL     1       2.739   6.736  18.300  0.00  0.00    +0.000 A 
ATOM      6  C   UNL     1       4.029   6.520  17.796  0.00  0.00    +0.000 A 
ENDROOT
BRANCH   5   7
ATOM      7  N   UNL     1       2.332   8.034  18.695  0.00  0.00    +0.000 N 
ATOM      8  C   UNL     1       2.163   9.075  17.670  0.00  0.00    +0.000 C 
ATOM      9  C   UNL     1       0.973   9.786  18.263  0.00  0.00    +0.000 C 
ATOM     10  C   UNL     1       0.652   9.351  19.491  0.00  0.00    +0.000 C 
ATOM     11  C   UNL     1       0.057  10.672  19.763  0.00  0.00    +0.000 C 
ATOM     12  N   UNL     1       0.202  10.838  18.317  0.00  0.00    +0.000 N 
ATOM     13  C   UNL     1       1.590   8.292  19.879  0.00  0.00    +0.000 C 
ATOM     14  O   UNL     1       1.678   7.719  20.955  0.00  0.00    +0.000 OA
ATOM     15  H   UNL     1       0.485  11.752  17.979  0.00  0.00    +0.000 HD
ENDBRANCH   5   7
BRANCH   1  16
ATOM     16  C   UNL     1       5.966   5.009  16.811  0.00  0.00    +0.000 C 
ATOM     17  C   UNL     1       6.927   6.231  16.761  0.00  0.00    +0.000 C 
ATOM     18  O   UNL     1       7.825   5.643  17.727  0.00  0.00    +0.000 OA
ATOM     19  C   UNL     1       6.931   4.536  17.939  0.00  0.00    +0.000 C 
BRANCH  16  20
ATOM     20  C   UNL     1       6.040   4.082  15.574  0.00  0.00    +0.000 C 
BRANCH  20  26
ATOM     21  C   UNL     1       5.768   3.332  12.530  0.00  0.00    +0.000 C 
ATOM     22  N   UNL     1       6.683   4.278  13.110  0.00  0.00    +0.000 N 
ATOM     23  C   UNL     1       7.611   4.989  12.410  0.00  0.00    +0.000 A 
ATOM     24  N   UNL     1       8.289   5.754  13.244  0.00  0.00    +0.000 NA
ATOM     25  N   UNL     1       7.810   5.520  14.511  0.00  0.00    +0.000 NA
ATOM     26  C   UNL     1       6.827   4.641  14.430  0.00  0.00    +0.000 A 
ENDBRANCH  20  26
ENDBRANCH  16  20
ENDBRANCH   1  16
TORSDOF 4
ENDMDL
MODEL 2
REMARK VINA RESULT:      -8.6      2.453      7.408
REMARK  Name = 
REMARK  5 active torsions:
REMARK  status: ('A' for Active; 'I' for Inactive)
REMARK    1  A    between atoms: C_1  and  N_2
REMARK    2  A    between atoms: C_6  and  C_7
REMARK    3  A    between atoms: C_7  and  C_8
REMARK    4  A    between atoms: C_8  and  C_9
REMARK    5  A    between atoms: C_13  and  N_14
REMARK                            x       y       z     vdW  Elec       q    Type
REMARK                         _______ _______ _______ _____ _____    ______ ____
ROOT
ATOM      1  C   UNL     1       4.330   5.774  18.175  0.00  0.00    +0.000 A 
ATOM      2  C   UNL     1       5.296   5.872  19.195  0.00  0.00    +0.000 A 
ATOM      3  C   UNL     1       6.580   5.352  19.049  0.00  0.00    +0.000 A 
ATOM      4  C   UNL     1       6.944   4.723  17.864  0.00  0.00    +0.000 A 
ATOM      5  C   UNL     1       6.047   4.653  16.797  0.00  0.00    +0.000 A 
ATOM      6  C   UNL     1       4.758   5.177  16.967  0.00  0.00    +0.000 A 
ENDROOT
BRANCH   5   7
ATOM      7  N   UNL     1       6.466   4.172  15.532  0.00  0.00    +0.000 N 
ATOM      8  C   UNL     1       5.698   3.099  14.884  0.00  0.00    +0.000 C 
ATOM      9  C   UNL     1       5.828   3.560  13.454  0.00  0.00    +0.000 C 
ATOM     10  C   UNL     1       6.674   4.590  13.302  0.00  0.00    +0.000 C 
ATOM     11  C   UNL     1       6.906   4.147  11.916  0.00  0.00    +0.000 C 
ATOM     12  N   UNL     1       5.738   3.306  12.177  0.00  0.00    +0.000 N 
ATOM     13  C   UNL     1       7.223   4.949  14.614  0.00  0.00    +0.000 C 
ATOM     14  O   UNL     1       8.092   5.770  14.870  0.00  0.00    +0.000 OA
ATOM     15  H   UNL     1       5.746   2.366  11.796  0.00  0.00    +0.000 HD
ENDBRANCH   5   7
BRANCH   1  16
ATOM     16  C   UNL     1       2.812   6.269  18.390  0.00  0.00    +0.000 C 
ATOM     17  C   UNL     1       2.486   7.046  19.697  0.00  0.00    +0.000 C 
ATOM     18  O   UNL     1       2.064   8.219  18.968  0.00  0.00    +0.000 OA
ATOM     19  C   UNL     1       2.463   7.630  17.718  0.00  0.00    +0.000 C 
BRANCH  16  20
ATOM     20  C   UNL     1       1.784   5.172  18.022  0.00  0.00    +0.000 C 
BRANCH  20  26
ATOM     21  C   UNL     1       2.895   2.232  17.867  0.00  0.00    +0.000 C 
ATOM     22  N   UNL     1       2.132   2.814  18.939  0.00  0.00    +0.000 N 
ATOM     23  C   UNL     1       1.744   2.151  20.065  0.00  0.00    +0.000 A 
ATOM     24  N   UNL     1       1.055   2.971  20.834  0.00  0.00    +0.000 NA
ATOM     25  N   UNL     1       0.971   4.182  20.186  0.00  0.00    +0.000 NA
ATOM     26  C   UNL     1       1.637   4.094  19.049  0.00  0.00    +0.000 A 
ENDBRANCH  20  26
ENDBRANCH  16  20
ENDBRANCH   1  16
TORSDOF 4
ENDMDL
MODEL 3
REMARK VINA RESULT:      -8.6      1.809      3.060
REMARK  Name = 
REMARK  5 active torsions:
REMARK  status: ('A' for Active; 'I' for Inactive)
REMARK    1  A    between atoms: C_1  and  N_2
REMARK    2  A    between atoms: C_6  and  C_7
REMARK    3  A    between atoms: C_7  and  C_8
REMARK    4  A    between atoms: C_8  and  C_9
REMARK    5  A    between atoms: C_13  and  N_14
REMARK                            x       y       z     vdW  Elec       q    Type
REMARK                         _______ _______ _______ _____ _____    ______ ____
ROOT
ATOM      1  C   UNL     1       4.313   4.793  16.958  0.00  0.00    +0.000 A 
ATOM      2  C   UNL     1       3.344   3.796  17.183  0.00  0.00    +0.000 A 
ATOM      3  C   UNL     1       2.194   4.038  17.932  0.00  0.00    +0.000 A 
ATOM      4  C   UNL     1       1.971   5.299  18.473  0.00  0.00    +0.000 A 
ATOM      5  C   UNL     1       2.867   6.340  18.229  0.00  0.00    +0.000 A 
ATOM      6  C   UNL     1       4.020   6.074  17.479  0.00  0.00    +0.000 A 
ENDROOT
BRANCH   5   7
ATOM      7  N   UNL     1       2.560   7.665  18.628  0.00  0.00    +0.000 N 
ATOM      8  C   UNL     1       2.508   8.726  17.611  0.00  0.00    +0.000 C 
ATOM      9  C   UNL     1       1.367   9.530  18.182  0.00  0.00    +0.000 C 
ATOM     10  C   UNL     1       0.978   9.112  19.395  0.00  0.00    +0.000 C 
ATOM     11  C   UNL     1       0.489  10.476  19.667  0.00  0.00    +0.000 C 
ATOM     12  N   UNL     1       0.687  10.642  18.227  0.00  0.00    +0.000 N 
ATOM     13  C   UNL     1       1.812   7.974  19.796  0.00  0.00    +0.000 C 
ATOM     14  O   UNL     1       1.822   7.386  20.867  0.00  0.00    +0.000 OA
ATOM     15  H   UNL     1       1.055  11.532  17.907  0.00  0.00    +0.000 HD
ENDBRANCH   5   7
BRANCH   1  16
ATOM     16  C   UNL     1       5.697   4.478  16.195  0.00  0.00    +0.000 C 
ATOM     17  C   UNL     1       5.714   3.284  15.198  0.00  0.00    +0.000 C 
ATOM     18  O   UNL     1       6.063   4.136  14.086  0.00  0.00    +0.000 OA
ATOM     19  C   UNL     1       5.939   5.314  14.903  0.00  0.00    +0.000 C 
BRANCH  16  20
ATOM     20  C   UNL     1       6.914   4.537  17.149  0.00  0.00    +0.000 C 
BRANCH  20  26
ATOM     21  C   UNL     1       7.963   5.643  19.901  0.00  0.00    +0.000 C 
ATOM     22  N   UNL     1       7.846   6.369  18.664  0.00  0.00    +0.000 N 
ATOM     23  C   UNL     1       8.156   7.686  18.506  0.00  0.00    +0.000 A 
ATOM     24  N   UNL     1       7.926   8.036  17.255  0.00  0.00    +0.000 NA
ATOM     25  N   UNL     1       7.434   6.935  16.594  0.00  0.00    +0.000 NA
ATOM     26  C   UNL     1       7.402   5.921  17.440  0.00  0.00    +0.000 A 
ENDBRANCH  20  26
ENDBRANCH  16  20
ENDBRANCH   1  16
TORSDOF 4
ENDMDL
MODEL 4
REMARK VINA RESULT:      -8.5      4.075      8.949
REMARK  Name = 
REMARK  5 active torsions:
REMARK  status: ('A' for Active; 'I' for Inactive)
REMARK    1  A    between atoms: C_1  and  N_2
REMARK    2  A    between atoms: C_6  and  C_7
REMARK    3  A    between atoms: C_7  and  C_8
REMARK    4  A    between atoms: C_8  and  C_9
REMARK    5  A    between atoms: C_13  and  N_14
REMARK                            x       y       z     vdW  Elec       q    Type
REMARK                         _______ _______ _______ _____ _____    ______ ____
ROOT
ATOM      1  C   UNL     1       1.479   8.607  19.907  0.00  0.00    +0.000 A 
ATOM      2  C   UNL     1       1.781   9.106  18.625  0.00  0.00    +0.000 A 
ATOM      3  C   UNL     1       2.443   8.338  17.670  0.00  0.00    +0.000 A 
ATOM      4  C   UNL     1       2.816   7.031  17.966  0.00  0.00    +0.000 A 
ATOM      5  C   UNL     1       2.487   6.466  19.198  0.00  0.00    +0.000 A 
ATOM      6  C   UNL     1       1.826   7.258  20.148  0.00  0.00    +0.000 A 
ENDROOT
BRANCH   5   7
ATOM      7  N   UNL     1       2.707   5.087  19.442  0.00  0.00    +0.000 N 
ATOM      8  C   UNL     1       1.561   4.167  19.438  0.00  0.00    +0.000 C 
ATOM      9  C   UNL     1       2.233   2.971  18.811  0.00  0.00    +0.000 C 
ATOM     10  C   UNL     1       3.558   3.121  18.668  0.00  0.00    +0.000 C 
ATOM     11  C   UNL     1       3.692   1.655  18.723  0.00  0.00    +0.000 C 
ATOM     12  N   UNL     1       2.241   1.693  18.550  0.00  0.00    +0.000 N 
ATOM     13  C   UNL     1       3.945   4.438  19.186  0.00  0.00    +0.000 C 
ATOM     14  O   UNL     1       5.070   4.898  19.314  0.00  0.00    +0.000 OA
ATOM     15  H   UNL     1       1.692   1.017  19.071  0.00  0.00    +0.000 HD
ENDBRANCH   5   7
BRANCH   1  16
ATOM     16  C   UNL     1       0.822   9.535  21.048  0.00  0.00    +0.000 C 
ATOM     17  C   UNL     1      -0.486   9.031  21.722  0.00  0.00    +0.000 C 
ATOM     18  O   UNL     1       0.125   9.001  23.030  0.00  0.00    +0.000 OA
ATOM     19  C   UNL     1       1.411   9.335  22.477  0.00  0.00    +0.000 C 
BRANCH  16  20
ATOM     20  C   UNL     1       0.803  11.029  20.644  0.00  0.00    +0.000 C 
BRANCH  20  26
ATOM     21  C   UNL     1      -1.010  12.635  22.652  0.00  0.00    +0.000 C 
ATOM     22  N   UNL     1      -1.329  12.273  21.297  0.00  0.00    +0.000 N 
ATOM     23  C   UNL     1      -2.508  12.557  20.675  0.00  0.00    +0.000 A 
ATOM     24  N   UNL     1      -2.475  12.077  19.447  0.00  0.00    +0.000 NA
ATOM     25  N   UNL     1      -1.264  11.448  19.274  0.00  0.00    +0.000 NA
ATOM     26  C   UNL     1      -0.563  11.581  20.386  0.00  0.00    +0.000 A 
ENDBRANCH  20  26
ENDBRANCH  16  20
ENDBRANCH   1  16
TORSDOF 4
ENDMDL
MODEL 5
REMARK VINA RESULT:      -8.5      3.891      5.484
REMARK  Name = 
REMARK  5 active torsions:
REMARK  status: ('A' for Active; 'I' for Inactive)
REMARK    1  A    between atoms: C_1  and  N_2
REMARK    2  A    between atoms: C_6  and  C_7
REMARK    3  A    between atoms: C_7  and  C_8
REMARK    4  A    between atoms: C_8  and  C_9
REMARK    5  A    between atoms: C_13  and  N_14
REMARK                            x       y       z     vdW  Elec       q    Type
REMARK                         _______ _______ _______ _____ _____    ______ ____
ROOT
ATOM      1  C   UNL     1       2.511   7.314  18.611  0.00  0.00    +0.000 A 
ATOM      2  C   UNL     1       2.531   8.136  17.468  0.00  0.00    +0.000 A 
ATOM      3  C   UNL     1       1.934   9.395  17.453  0.00  0.00    +0.000 A 
ATOM      4  C   UNL     1       1.304   9.879  18.595  0.00  0.00    +0.000 A 
ATOM      5  C   UNL     1       1.309   9.132  19.773  0.00  0.00    +0.000 A 
ATOM      6  C   UNL     1       1.909   7.865  19.765  0.00  0.00    +0.000 A 
ENDROOT
BRANCH   5   7
ATOM      7  N   UNL     1       0.824   9.688  20.983  0.00  0.00    +0.000 N 
ATOM      8  C   UNL     1       1.123  11.093  21.296  0.00  0.00    +0.000 C 
ATOM      9  C   UNL     1      -0.179  11.458  21.964  0.00  0.00    +0.000 C 
ATOM     10  C   UNL     1      -0.984  10.405  22.167  0.00  0.00    +0.000 C 
ATOM     11  C   UNL     1      -1.590  11.134  23.296  0.00  0.00    +0.000 C 
ATOM     12  N   UNL     1      -0.866  12.267  22.722  0.00  0.00    +0.000 N 
ATOM     13  C   UNL     1      -0.323   9.197  21.663  0.00  0.00    +0.000 C 
ATOM     14  O   UNL     1      -0.699   8.037  21.752  0.00  0.00    +0.000 OA
ATOM     15  H   UNL     1      -0.437  12.922  23.368  0.00  0.00    +0.000 HD
ENDBRANCH   5   7
BRANCH   1  16
ATOM     16  C   UNL     1       3.095   5.812  18.588  0.00  0.00    +0.000 C 
ATOM     17  C   UNL     1       4.090   5.443  17.450  0.00  0.00    +0.000 C 
ATOM     18  O   UNL     1       5.143   5.131  18.387  0.00  0.00    +0.000 OA
ATOM     19  C   UNL     1       4.341   5.580  19.494  0.00  0.00    +0.000 C 
BRANCH  16  20
ATOM     20  C   UNL     1       1.996   4.755  18.849  0.00  0.00    +0.000 C 
BRANCH  20  26
ATOM     21  C   UNL     1       3.459   1.976  19.023  0.00  0.00    +0.000 C 
ATOM     22  N   UNL     1       2.856   2.705  20.106  0.00  0.00    +0.000 N 
ATOM     23  C   UNL     1       2.805   2.275  21.398  0.00  0.00    +0.000 A 
ATOM     24  N   UNL     1       2.177   3.176  22.128  0.00  0.00    +0.000 NA
ATOM     25  N   UNL     1       1.791   4.199  21.293  0.00  0.00    +0.000 NA
ATOM     26  C   UNL     1       2.216   3.924  20.073  0.00  0.00    +0.000 A 
ENDBRANCH  20  26
ENDBRANCH  16  20
ENDBRANCH   1  16
TORSDOF 4
ENDMDL
MODEL 6
REMARK VINA RESULT:      -8.4      4.103      8.799
REMARK  Name = 
REMARK  5 active torsions:
REMARK  status: ('A' for Active; 'I' for Inactive)
REMARK    1  A    between atoms: C_1  and  N_2
REMARK    2  A    between atoms: C_6  and  C_7
REMARK    3  A    between atoms: C_7  and  C_8
REMARK    4  A    between atoms: C_8  and  C_9
REMARK    5  A    between atoms: C_13  and  N_14
REMARK                            x       y       z     vdW  Elec       q    Type
REMARK                         _______ _______ _______ _____ _____    ______ ____
ROOT
ATOM      1  C   UNL     1       1.482   8.573  19.918  0.00  0.00    +0.000 A 
ATOM      2  C   UNL     1       1.822   9.077  18.648  0.00  0.00    +0.000 A 
ATOM      3  C   UNL     1       2.507   8.309  17.708  0.00  0.00    +0.000 A 
ATOM      4  C   UNL     1       2.864   6.999  18.009  0.00  0.00    +0.000 A 
ATOM      5  C   UNL     1       2.498   6.430  19.229  0.00  0.00    +0.000 A 
ATOM      6  C   UNL     1       1.815   7.222  20.163  0.00  0.00    +0.000 A 
ENDROOT
BRANCH   5   7
ATOM      7  N   UNL     1       2.704   5.050  19.473  0.00  0.00    +0.000 N 
ATOM      8  C   UNL     1       1.545   4.145  19.496  0.00  0.00    +0.000 C 
ATOM      9  C   UNL     1       2.187   2.939  18.859  0.00  0.00    +0.000 C 
ATOM     10  C   UNL     1       3.511   3.070  18.687  0.00  0.00    +0.000 C 
ATOM     11  C   UNL     1       3.626   1.601  18.745  0.00  0.00    +0.000 C 
ATOM     12  N   UNL     1       2.172   1.659  18.603  0.00  0.00    +0.000 N 
ATOM     13  C   UNL     1       3.927   4.382  19.192  0.00  0.00    +0.000 C 
ATOM     14  O   UNL     1       5.061   4.827  19.295  0.00  0.00    +0.000 OA
ATOM     15  H   UNL     1       1.624   0.993  19.137  0.00  0.00    +0.000 HD
ENDBRANCH   5   7
BRANCH   1  16
ATOM     16  C   UNL     1       0.798   9.500  21.045  0.00  0.00    +0.000 C 
ATOM     17  C   UNL     1      -0.516   8.986  21.701  0.00  0.00    +0.000 C 
ATOM     18  O   UNL     1       0.076   8.969  23.018  0.00  0.00    +0.000 OA
ATOM     19  C   UNL     1       1.366   9.313  22.483  0.00  0.00    +0.000 C 
BRANCH  16  20
ATOM     20  C   UNL     1       0.770  10.992  20.633  0.00  0.00    +0.000 C 
BRANCH  20  26
ATOM     21  C   UNL     1      -1.316  10.970  18.278  0.00  0.00    +0.000 C 
ATOM     22  N   UNL     1      -1.476  11.581  19.570  0.00  0.00    +0.000 N 
ATOM     23  C   UNL     1      -2.575  12.283  19.966  0.00  0.00    +0.000 A 
ATOM     24  N   UNL     1      -2.392  12.713  21.199  0.00  0.00    +0.000 NA
ATOM     25  N   UNL     1      -1.143  12.305  21.605  0.00  0.00    +0.000 NA
ATOM     26  C   UNL     1      -0.595  11.605  20.628  0.00  0.00    +0.000 A 
ENDBRANCH  20  26
ENDBRANCH  16  20
ENDBRANCH   1  16
TORSDOF 4
ENDMDL
MODEL 7
REMARK VINA RESULT:      -8.4      3.593      5.142
REMARK  Name = 
REMARK  5 active torsions:
REMARK  status: ('A' for Active; 'I' for Inactive)
REMARK    1  A    between atoms: C_1  and  N_2
REMARK    2  A    between atoms: C_6  and  C_7
REMARK    3  A    between atoms: C_7  and  C_8
REMARK    4  A    between atoms: C_8  and  C_9
REMARK    5  A    between atoms: C_13  and  N_14
REMARK                            x       y       z     vdW  Elec       q    Type
REMARK                         _______ _______ _______ _____ _____    ______ ____
ROOT
ATOM      1  C   UNL     1       2.093   7.457  19.289  0.00  0.00    +0.000 A 
ATOM      2  C   UNL     1       1.807   7.239  20.651  0.00  0.00    +0.000 A 
ATOM      3  C   UNL     1       1.210   8.217  21.445  0.00  0.00    +0.000 A 
ATOM      4  C   UNL     1       0.867   9.446  20.893  0.00  0.00    +0.000 A 
ATOM      5  C   UNL     1       1.071   9.692  19.535  0.00  0.00    +0.000 A 
ATOM      6  C   UNL     1       1.679   8.698  18.755  0.00  0.00    +0.000 A 
ENDROOT
BRANCH   5   7
ATOM      7  N   UNL     1       0.569  10.870  18.931  0.00  0.00    +0.000 N 
ATOM      8  C   UNL     1      -0.864  11.180  19.047  0.00  0.00    +0.000 C 
ATOM      9  C   UNL     1      -0.762  12.680  19.170  0.00  0.00    +0.000 C 
ATOM     10  C   UNL     1       0.478  13.146  18.964  0.00  0.00    +0.000 C 
ATOM     11  C   UNL     1      -0.114  14.427  18.540  0.00  0.00    +0.000 C 
ATOM     12  N   UNL     1      -1.329  13.854  19.118  0.00  0.00    +0.000 N 
ATOM     13  C   UNL     1       1.368  12.017  18.673  0.00  0.00    +0.000 C 
ATOM     14  O   UNL     1       2.544  12.048  18.343  0.00  0.00    +0.000 OA
ATOM     15  H   UNL     1      -2.203  14.028  18.633  0.00  0.00    +0.000 HD
ENDBRANCH   5   7
BRANCH   1  16
ATOM     16  C   UNL     1       2.891   6.371  18.405  0.00  0.00    +0.000 C 
ATOM     17  C   UNL     1       4.025   6.892  17.475  0.00  0.00    +0.000 C 
ATOM     18  O   UNL     1       5.026   6.100  18.149  0.00  0.00    +0.000 OA
ATOM     19  C   UNL     1       4.073   5.669  19.137  0.00  0.00    +0.000 C 
BRANCH  16  20
ATOM     20  C   UNL     1       1.940   5.345  17.745  0.00  0.00    +0.000 C 
BRANCH  20  26
ATOM     21  C   UNL     1       0.954   3.666  20.217  0.00  0.00    +0.000 C 
ATOM     22  N   UNL     1       1.815   3.219  19.155  0.00  0.00    +0.000 N 
ATOM     23  C   UNL     1       2.368   1.977  19.076  0.00  0.00    +0.000 A 
ATOM     24  N   UNL     1       3.109   1.902  17.987  0.00  0.00    +0.000 NA
ATOM     25  N   UNL     1       3.057   3.125  17.360  0.00  0.00    +0.000 NA
ATOM     26  C   UNL     1       2.261   3.917  18.055  0.00  0.00    +0.000 A 
ENDBRANCH  20  26
ENDBRANCH  16  20
ENDBRANCH   1  16
TORSDOF 4
ENDMDL
MODEL 8
REMARK VINA RESULT:      -8.4      2.301      3.702
REMARK  Name = 
REMARK  5 active torsions:
REMARK  status: ('A' for Active; 'I' for Inactive)
REMARK    1  A    between atoms: C_1  and  N_2
REMARK    2  A    between atoms: C_6  and  C_7
REMARK    3  A    between atoms: C_7  and  C_8
REMARK    4  A    between atoms: C_8  and  C_9
REMARK    5  A    between atoms: C_13  and  N_14
REMARK                            x       y       z     vdW  Elec       q    Type
REMARK                         _______ _______ _______ _____ _____    ______ ____
ROOT
ATOM      1  C   UNL     1       2.402   7.225  19.133  0.00  0.00    +0.000 A 
ATOM      2  C   UNL     1       1.992   6.930  20.448  0.00  0.00    +0.000 A 
ATOM      3  C   UNL     1       1.240   7.826  21.206  0.00  0.00    +0.000 A 
ATOM      4  C   UNL     1       0.861   9.048  20.662  0.00  0.00    +0.000 A 
ATOM      5  C   UNL     1       1.187   9.365  19.343  0.00  0.00    +0.000 A 
ATOM      6  C   UNL     1       1.949   8.454  18.600  0.00  0.00    +0.000 A 
ENDROOT
BRANCH   5   7
ATOM      7  N   UNL     1       0.658  10.527  18.728  0.00  0.00    +0.000 N 
ATOM      8  C   UNL     1      -0.795  10.752  18.750  0.00  0.00    +0.000 C 
ATOM      9  C   UNL     1      -0.789  12.252  18.909  0.00  0.00    +0.000 C 
ATOM     10  C   UNL     1       0.433  12.793  18.799  0.00  0.00    +0.000 C 
ATOM     11  C   UNL     1      -0.203  14.048  18.360  0.00  0.00    +0.000 C 
ATOM     12  N   UNL     1      -1.418  13.393  18.841  0.00  0.00    +0.000 N 
ATOM     13  C   UNL     1       1.405  11.723  18.549  0.00  0.00    +0.000 C 
ATOM     14  O   UNL     1       2.597  11.829  18.302  0.00  0.00    +0.000 OA
ATOM     15  H   UNL     1      -2.266  13.528  18.300  0.00  0.00    +0.000 HD
ENDBRANCH   5   7
BRANCH   1  16
ATOM     16  C   UNL     1       3.372   6.241  18.304  0.00  0.00    +0.000 C 
ATOM     17  C   UNL     1       4.405   5.402  19.108  0.00  0.00    +0.000 C 
ATOM     18  O   UNL     1       3.842   4.154  18.649  0.00  0.00    +0.000 OA
ATOM     19  C   UNL     1       2.767   4.841  17.984  0.00  0.00    +0.000 C 
BRANCH  16  20
ATOM     20  C   UNL     1       3.941   6.919  17.035  0.00  0.00    +0.000 C 
BRANCH  20  26
ATOM     21  C   UNL     1       5.045   4.469  15.399  0.00  0.00    +0.000 C 
ATOM     22  N   UNL     1       5.817   5.502  16.036  0.00  0.00    +0.000 N 
ATOM     23  C   UNL     1       7.178   5.559  16.048  0.00  0.00    +0.000 A 
ATOM     24  N   UNL     1       7.560   6.625  16.724  0.00  0.00    +0.000 NA
ATOM     25  N   UNL     1       6.429   7.260  17.181  0.00  0.00    +0.000 NA
ATOM     26  C   UNL     1       5.374   6.592  16.751  0.00  0.00    +0.000 A 
ENDBRANCH  20  26
ENDBRANCH  16  20
ENDBRANCH   1  16
TORSDOF 4
ENDMDL
MODEL 9
REMARK VINA RESULT:      -8.4      3.038      4.909
REMARK  Name = 
REMARK  5 active torsions:
REMARK  status: ('A' for Active; 'I' for Inactive)
REMARK    1  A    between atoms: C_1  and  N_2
REMARK    2  A    between atoms: C_6  and  C_7
REMARK    3  A    between atoms: C_7  and  C_8
REMARK    4  A    between atoms: C_8  and  C_9
REMARK    5  A    between atoms: C_13  and  N_14
REMARK                            x       y       z     vdW  Elec       q    Type
REMARK                         _______ _______ _______ _____ _____    ______ ____
ROOT
ATOM      1  C   UNL     1       4.748   5.704  16.606  0.00  0.00    +0.000 A 
ATOM      2  C   UNL     1       4.519   7.093  16.627  0.00  0.00    +0.000 A 
ATOM      3  C   UNL     1       3.469   7.657  17.350  0.00  0.00    +0.000 A 
ATOM      4  C   UNL     1       2.619   6.843  18.090  0.00  0.00    +0.000 A 
ATOM      5  C   UNL     1       2.838   5.467  18.154  0.00  0.00    +0.000 A 
ATOM      6  C   UNL     1       3.895   4.919  17.414  0.00  0.00    +0.000 A 
ENDROOT
BRANCH   5   7
ATOM      7  N   UNL     1       2.086   4.656  19.040  0.00  0.00    +0.000 N 
ATOM      8  C   UNL     1       2.027   3.206  18.808  0.00  0.00    +0.000 C 
ATOM      9  C   UNL     1       2.030   2.747  20.245  0.00  0.00    +0.000 C 
ATOM     10  C   UNL     1       1.913   3.754  21.124  0.00  0.00    +0.000 C 
ATOM     11  C   UNL     1       1.321   2.801  22.080  0.00  0.00    +0.000 C 
ATOM     12  N   UNL     1       1.819   1.809  21.127  0.00  0.00    +0.000 N 
ATOM     13  C   UNL     1       1.813   5.018  20.387  0.00  0.00    +0.000 C 
ATOM     14  O   UNL     1       1.604   6.137  20.832  0.00  0.00    +0.000 OA
ATOM     15  H   UNL     1       1.234   1.000  20.948  0.00  0.00    +0.000 HD
ENDBRANCH   5   7
BRANCH   1  16
ATOM     16  C   UNL     1       5.886   5.044  15.675  0.00  0.00    +0.000 C 
ATOM     17  C   UNL     1       5.814   3.510  15.426  0.00  0.00    +0.000 C 
ATOM     18  O   UNL     1       5.682   3.686  13.998  0.00  0.00    +0.000 OA
ATOM     19  C   UNL     1       5.604   5.115  14.144  0.00  0.00    +0.000 C 
BRANCH  16  20
ATOM     20  C   UNL     1       7.299   5.574  16.019  0.00  0.00    +0.000 C 
BRANCH  20  26
ATOM     21  C   UNL     1       7.874   8.165  17.707  0.00  0.00    +0.000 C 
ATOM     22  N   UNL     1       7.844   6.810  18.187  0.00  0.00    +0.000 N 
ATOM     23  C   UNL     1       8.093   6.435  19.473  0.00  0.00    +0.000 A 
ATOM     24  N   UNL     1       7.991   5.124  19.569  0.00  0.00    +0.000 NA
ATOM     25  N   UNL     1       7.695   4.634  18.318  0.00  0.00    +0.000 NA
ATOM     26  C   UNL     1       7.588   5.653  17.485  0.00  0.00    +0.000 A 
ENDBRANCH  20  26
ENDBRANCH  16  20
ENDBRANCH   1  16
TORSDOF 4
ENDMDL
