MODEL 1
REMARK VINA RESULT:      -9.2      0.000      0.000
REMARK  Name = 
REMARK  6 active torsions:
REMARK  status: ('A' for Active; 'I' for Inactive)
REMARK    1  A    between atoms: C_1  and  C_2
REMARK    2  A    between atoms: C_7  and  C_8
REMARK    3  A    between atoms: C_9  and  C_10
REMARK    4  A    between atoms: N_12  and  C_13
REMARK    5  A    between atoms: C_17  and  C_18
REMARK    6  A    between atoms: N_22  and  C_23
REMARK                            x       y       z     vdW  Elec       q    Type
REMARK                         _______ _______ _______ _____ _____    ______ ____
ROOT
ATOM      1  C   UNL     1       1.851   8.403  19.333  0.00  0.00    +0.000 C 
ATOM      2  O   UNL     1       1.566   8.517  20.519  0.00  0.00    +0.000 OA
ATOM      3  N   UNL     1       1.529   9.306  18.328  0.00  0.00    +0.000 N 
ATOM      4  H   UNL     1       1.669   9.003  17.371  0.00  0.00    +0.000 HD
ENDROOT
BRANCH   1  13
ATOM      5  C   UNL     1       6.436   5.003  14.530  0.00  0.00    +0.000 C 
ATOM      6  C   UNL     1       5.512   4.948  15.709  0.00  0.00    +0.000 A 
ATOM      7  C   UNL     1       5.202   3.735  16.327  0.00  0.00    +0.000 A 
ATOM      8  C   UNL     1       4.337   3.706  17.424  0.00  0.00    +0.000 A 
ATOM      9  C   UNL     1       3.758   4.862  17.928  0.00  0.00    +0.000 A 
ATOM     10  N   UNL     1       2.918   4.783  18.972  0.00  0.00    +0.000 NA
ATOM     11  C   UNL     1       2.324   5.917  19.442  0.00  0.00    +0.000 A 
ATOM     12  C   UNL     1       1.402   5.697  20.609  0.00  0.00    +0.000 C 
ATOM     13  C   UNL     1       2.552   7.171  18.867  0.00  0.00    +0.000 A 
ATOM     14  C   UNL     1       3.468   7.248  17.811  0.00  0.00    +0.000 A 
ATOM     15  C   UNL     1       4.072   6.088  17.318  0.00  0.00    +0.000 A 
ATOM     16  C   UNL     1       4.956   6.125  16.221  0.00  0.00    +0.000 A 
ENDBRANCH   1  13
BRANCH   3  17
ATOM     17  C   UNL     1       0.818  10.518  18.479  0.00  0.00    +0.000 A 
ATOM     18  C   UNL     1       1.388  11.697  18.952  0.00  0.00    +0.000 A 
ATOM     19  C   UNL     1       0.606  12.841  19.126  0.00  0.00    +0.000 A 
ATOM     20  C   UNL     1      -0.763  12.810  18.851  0.00  0.00    +0.000 A 
ATOM     21  C   UNL     1      -1.366  11.632  18.399  0.00  0.00    +0.000 A 
ATOM     22  C   UNL     1      -0.548  10.511  18.162  0.00  0.00    +0.000 A 
BRANCH  21  23
ATOM     23  C   UNL     1      -2.805  11.508  18.160  0.00  0.00    +0.000 A 
ATOM     24  N   UNL     1      -3.741  11.746  19.069  0.00  0.00    +0.000 NA
ATOM     25  N   UNL     1      -4.952  11.583  18.453  0.00  0.00    +0.000 NA
ATOM     26  N   UNL     1      -4.796  11.262  17.179  0.00  0.00    +0.000 NA
ATOM     27  N   UNL     1      -3.466  11.231  16.975  0.00  0.00    +0.000 N 
BRANCH  27  28
ATOM     28  C   UNL     1      -2.897  10.990  15.665  0.00  0.00    +0.000 C 
ATOM     29  C   UNL     1      -3.677  10.287  14.560  0.00  0.00    +0.000 C 
ATOM     30  C   UNL     1      -2.550   9.574  15.222  0.00  0.00    +0.000 C 
ENDBRANCH  27  28
ENDBRANCH  21  23
ENDBRANCH   3  17
TORSDOF 4
ENDMDL
MODEL 2
REMARK VINA RESULT:      -9.2      3.402      5.519
REMARK  Name = 
REMARK  6 active torsions:
REMARK  status: ('A' for Active; 'I' for Inactive)
REMARK    1  A    between atoms: C_1  and  C_2
REMARK    2  A    between atoms: C_7  and  C_8
REMARK    3  A    between atoms: C_9  and  C_10
REMARK    4  A    between atoms: N_12  and  C_13
REMARK    5  A    between atoms: C_17  and  C_18
REMARK    6  A    between atoms: N_22  and  C_23
REMARK                            x       y       z     vdW  Elec       q    Type
REMARK                         _______ _______ _______ _____ _____    ______ ____
ROOT
ATOM      1  C   UNL     1       4.839   5.363  17.895  0.00  0.00    +0.000 C 
ATOM      2  O   UNL     1       5.180   4.659  18.837  0.00  0.00    +0.000 OA
ATOM      3  N   UNL     1       3.786   6.269  17.894  0.00  0.00    +0.000 N 
ATOM      4  H   UNL     1       3.505   6.652  16.999  0.00  0.00    +0.000 HD
ENDROOT
BRANCH   1  13
ATOM      5  C   UNL     1       5.381   2.261  11.132  0.00  0.00    +0.000 C 
ATOM      6  C   UNL     1       5.921   3.171  12.194  0.00  0.00    +0.000 A 
ATOM      7  C   UNL     1       7.145   3.822  12.032  0.00  0.00    +0.000 A 
ATOM      8  C   UNL     1       7.630   4.666  13.036  0.00  0.00    +0.000 A 
ATOM      9  C   UNL     1       6.929   4.878  14.213  0.00  0.00    +0.000 A 
ATOM     10  N   UNL     1       7.442   5.682  15.157  0.00  0.00    +0.000 NA
ATOM     11  C   UNL     1       6.766   5.860  16.328  0.00  0.00    +0.000 A 
ATOM     12  C   UNL     1       7.448   6.777  17.305  0.00  0.00    +0.000 C 
ATOM     13  C   UNL     1       5.548   5.225  16.589  0.00  0.00    +0.000 A 
ATOM     14  C   UNL     1       4.997   4.429  15.578  0.00  0.00    +0.000 A 
ATOM     15  C   UNL     1       5.691   4.233  14.380  0.00  0.00    +0.000 A 
ATOM     16  C   UNL     1       5.189   3.394  13.365  0.00  0.00    +0.000 A 
ENDBRANCH   1  13
BRANCH   3  17
ATOM     17  C   UNL     1       2.915   6.550  18.971  0.00  0.00    +0.000 A 
ATOM     18  C   UNL     1       2.507   5.601  19.905  0.00  0.00    +0.000 A 
ATOM     19  C   UNL     1       1.599   5.944  20.910  0.00  0.00    +0.000 A 
ATOM     20  C   UNL     1       1.072   7.235  20.976  0.00  0.00    +0.000 A 
ATOM     21  C   UNL     1       1.446   8.200  20.036  0.00  0.00    +0.000 A 
ATOM     22  C   UNL     1       2.415   7.856  19.074  0.00  0.00    +0.000 A 
BRANCH  21  23
ATOM     23  C   UNL     1       0.879   9.550  20.003  0.00  0.00    +0.000 A 
ATOM     24  N   UNL     1       1.074  10.422  19.023  0.00  0.00    +0.000 NA
ATOM     25  N   UNL     1       0.337  11.537  19.324  0.00  0.00    +0.000 NA
ATOM     26  N   UNL     1      -0.322  11.376  20.459  0.00  0.00    +0.000 NA
ATOM     27  N   UNL     1      -0.012  10.137  20.885  0.00  0.00    +0.000 N 
BRANCH  27  28
ATOM     28  C   UNL     1      -0.611   9.562  22.072  0.00  0.00    +0.000 C 
ATOM     29  C   UNL     1      -1.112  10.424  23.225  0.00  0.00    +0.000 C 
ATOM     30  C   UNL     1       0.121   9.609  23.408  0.00  0.00    +0.000 C 
ENDBRANCH  27  28
ENDBRANCH  21  23
ENDBRANCH   3  17
TORSDOF 4
ENDMDL
MODEL 3
REMARK VINA RESULT:      -9.1      2.388      4.369
REMARK  Name = 
REMARK  6 active torsions:
REMARK  status: ('A' for Active; 'I' for Inactive)
REMARK    1  A    between atoms: C_1  and  C_2
REMARK    2  A    between atoms: C_7  and  C_8
REMARK    3  A    between atoms: C_9  and  C_10
REMARK    4  A    between atoms: N_12  and  C_13
REMARK    5  A    between atoms: C_17  and  C_18
REMARK    6  A    between atoms: N_22  and  C_23
REMARK                            x       y       z     vdW  Elec       q    Type
REMARK                         _______ _______ _______ _____ _____    ______ ____
ROOT
ATOM      1  C   UNL     1       4.650   6.079  18.146  0.00  0.00    +0.000 C 
ATOM      2  O   UNL     1       4.977   5.526  19.188  0.00  0.00    +0.000 OA
ATOM      3  N   UNL     1       3.564   6.931  17.983  0.00  0.00    +0.000 N 
ATOM      4  H   UNL     1       3.307   7.175  17.034  0.00  0.00    +0.000 HD
ENDROOT
BRANCH   1  13
ATOM      5  C   UNL     1       5.225   2.603  11.570  0.00  0.00    +0.000 C 
ATOM      6  C   UNL     1       5.805   3.494  12.628  0.00  0.00    +0.000 A 
ATOM      7  C   UNL     1       7.107   3.986  12.521  0.00  0.00    +0.000 A 
ATOM      8  C   UNL     1       7.629   4.815  13.519  0.00  0.00    +0.000 A 
ATOM      9  C   UNL     1       6.887   5.167  14.637  0.00  0.00    +0.000 A 
ATOM     10  N   UNL     1       7.436   5.950  15.579  0.00  0.00    +0.000 NA
ATOM     11  C   UNL     1       6.716   6.265  16.693  0.00  0.00    +0.000 A 
ATOM     12  C   UNL     1       7.443   7.142  17.674  0.00  0.00    +0.000 C 
ATOM     13  C   UNL     1       5.416   5.793  16.898  0.00  0.00    +0.000 A 
ATOM     14  C   UNL     1       4.835   5.019  15.886  0.00  0.00    +0.000 A 
ATOM     15  C   UNL     1       5.573   4.683  14.746  0.00  0.00    +0.000 A 
ATOM     16  C   UNL     1       5.035   3.861  13.736  0.00  0.00    +0.000 A 
ENDBRANCH   1  13
BRANCH   3  17
ATOM     17  C   UNL     1       2.641   7.320  18.979  0.00  0.00    +0.000 A 
ATOM     18  C   UNL     1       2.184   6.473  19.985  0.00  0.00    +0.000 A 
ATOM     19  C   UNL     1       1.227   6.916  20.901  0.00  0.00    +0.000 A 
ATOM     20  C   UNL     1       0.700   8.205  20.806  0.00  0.00    +0.000 A 
ATOM     21  C   UNL     1       1.123   9.067  19.790  0.00  0.00    +0.000 A 
ATOM     22  C   UNL     1       2.139   8.628  18.920  0.00  0.00    +0.000 A 
BRANCH  21  23
ATOM     23  C   UNL     1       0.562  10.404  19.587  0.00  0.00    +0.000 A 
ATOM     24  N   UNL     1       0.985  11.498  20.206  0.00  0.00    +0.000 NA
ATOM     25  N   UNL     1       0.260  12.548  19.709  0.00  0.00    +0.000 NA
ATOM     26  N   UNL     1      -0.596  12.138  18.788  0.00  0.00    +0.000 NA
ATOM     27  N   UNL     1      -0.408  10.810  18.685  0.00  0.00    +0.000 N 
BRANCH  27  28
ATOM     28  C   UNL     1      -1.117  10.009  17.708  0.00  0.00    +0.000 C 
ATOM     29  C   UNL     1      -2.142  10.612  16.757  0.00  0.00    +0.000 C 
ATOM     30  C   UNL     1      -2.608   9.737  17.868  0.00  0.00    +0.000 C 
ENDBRANCH  27  28
ENDBRANCH  21  23
ENDBRANCH   3  17
TORSDOF 4
ENDMDL
MODEL 4
REMARK VINA RESULT:      -9.1      3.105      9.497
REMARK  Name = 
REMARK  6 active torsions:
REMARK  status: ('A' for Active; 'I' for Inactive)
REMARK    1  A    between atoms: C_1  and  C_2
REMARK    2  A    between atoms: C_7  and  C_8
REMARK    3  A    between atoms: C_9  and  C_10
REMARK    4  A    between atoms: N_12  and  C_13
REMARK    5  A    between atoms: C_17  and  C_18
REMARK    6  A    between atoms: N_22  and  C_23
REMARK                            x       y       z     vdW  Elec       q    Type
REMARK                         _______ _______ _______ _____ _____    ______ ____
ROOT
ATOM      1  C   UNL     1       1.592   7.502  19.957  0.00  0.00    +0.000 C 
ATOM      2  O   UNL     1       1.754   6.841  20.975  0.00  0.00    +0.000 OA
ATOM      3  N   UNL     1       1.897   7.094  18.664  0.00  0.00    +0.000 N 
ATOM      4  H   UNL     1       1.879   7.802  17.939  0.00  0.00    +0.000 HD
ENDROOT
BRANCH   1  13
ATOM      5  C   UNL     1      -2.383  12.660  23.597  0.00  0.00    +0.000 C 
ATOM      6  C   UNL     1      -1.542  12.251  22.424  0.00  0.00    +0.000 A 
ATOM      7  C   UNL     1      -1.308  13.129  21.364  0.00  0.00    +0.000 A 
ATOM      8  C   UNL     1      -0.522  12.728  20.280  0.00  0.00    +0.000 A 
ATOM      9  C   UNL     1       0.039  11.461  20.215  0.00  0.00    +0.000 A 
ATOM     10  N   UNL     1       0.771  11.113  19.145  0.00  0.00    +0.000 NA
ATOM     11  C   UNL     1       1.291   9.855  19.068  0.00  0.00    +0.000 A 
ATOM     12  C   UNL     1       2.085   9.587  17.820  0.00  0.00    +0.000 C 
ATOM     13  C   UNL     1       1.083   8.900  20.069  0.00  0.00    +0.000 A 
ATOM     14  C   UNL     1       0.360   9.290  21.203  0.00  0.00    +0.000 A 
ATOM     15  C   UNL     1      -0.185  10.575  21.282  0.00  0.00    +0.000 A 
ATOM     16  C   UNL     1      -0.963  10.979  22.386  0.00  0.00    +0.000 A 
ENDBRANCH   1  13
BRANCH   3  17
ATOM     17  C   UNL     1       2.446   5.850  18.280  0.00  0.00    +0.000 A 
ATOM     18  C   UNL     1       1.691   4.695  18.091  0.00  0.00    +0.000 A 
ATOM     19  C   UNL     1       2.314   3.489  17.764  0.00  0.00    +0.000 A 
ATOM     20  C   UNL     1       3.704   3.420  17.647  0.00  0.00    +0.000 A 
ATOM     21  C   UNL     1       4.488   4.559  17.857  0.00  0.00    +0.000 A 
ATOM     22  C   UNL     1       3.837   5.780  18.114  0.00  0.00    +0.000 A 
BRANCH  21  23
ATOM     23  C   UNL     1       5.951   4.543  17.820  0.00  0.00    +0.000 A 
ATOM     24  N   UNL     1       6.730   4.657  18.887  0.00  0.00    +0.000 NA
ATOM     25  N   UNL     1       8.024   4.536  18.456  0.00  0.00    +0.000 NA
ATOM     26  N   UNL     1       8.071   4.335  17.150  0.00  0.00    +0.000 NA
ATOM     27  N   UNL     1       6.789   4.317  16.741  0.00  0.00    +0.000 N 
BRANCH  27  28
ATOM     28  C   UNL     1       6.427   4.039  15.366  0.00  0.00    +0.000 C 
ATOM     29  C   UNL     1       7.037   4.803  14.197  0.00  0.00    +0.000 C 
ATOM     30  C   UNL     1       5.614   5.047  14.562  0.00  0.00    +0.000 C 
ENDBRANCH  27  28
ENDBRANCH  21  23
ENDBRANCH   3  17
TORSDOF 4
ENDMDL
MODEL 5
REMARK VINA RESULT:      -9.0      3.236      9.537
REMARK  Name = 
REMARK  6 active torsions:
REMARK  status: ('A' for Active; 'I' for Inactive)
REMARK    1  A    between atoms: C_1  and  C_2
REMARK    2  A    between atoms: C_7  and  C_8
REMARK    3  A    between atoms: C_9  and  C_10
REMARK    4  A    between atoms: N_12  and  C_13
REMARK    5  A    between atoms: C_17  and  C_18
REMARK    6  A    between atoms: N_22  and  C_23
REMARK                            x       y       z     vdW  Elec       q    Type
REMARK                         _______ _______ _______ _____ _____    ______ ____
ROOT
ATOM      1  C   UNL     1       1.646   8.555  19.088  0.00  0.00    +0.000 C 
ATOM      2  O   UNL     1       1.697   8.363  17.880  0.00  0.00    +0.000 OA
ATOM      3  N   UNL     1       2.015   7.647  20.073  0.00  0.00    +0.000 N 
ATOM      4  H   UNL     1       1.756   7.868  21.027  0.00  0.00    +0.000 HD
ENDROOT
BRANCH   1  13
ATOM      5  C   UNL     1      -2.956  12.225  23.672  0.00  0.00    +0.000 C 
ATOM      6  C   UNL     1      -1.946  12.228  22.562  0.00  0.00    +0.000 A 
ATOM      7  C   UNL     1      -1.592  13.412  21.913  0.00  0.00    +0.000 A 
ATOM      8  C   UNL     1      -0.651  13.392  20.880  0.00  0.00    +0.000 A 
ATOM      9  C   UNL     1      -0.048  12.214  20.465  0.00  0.00    +0.000 A 
ATOM     10  N   UNL     1       0.838  12.240  19.456  0.00  0.00    +0.000 NA
ATOM     11  C   UNL     1       1.402  11.075  19.027  0.00  0.00    +0.000 A 
ATOM     12  C   UNL     1       2.371  11.237  17.889  0.00  0.00    +0.000 C 
ATOM     13  C   UNL     1       1.084   9.839  19.599  0.00  0.00    +0.000 A 
ATOM     14  C   UNL     1       0.198   9.830  20.683  0.00  0.00    +0.000 A 
ATOM     15  C   UNL     1      -0.392  11.020  21.120  0.00  0.00    +0.000 A 
ATOM     16  C   UNL     1      -1.329  11.035  22.172  0.00  0.00    +0.000 A 
ENDBRANCH   1  13
BRANCH   3  17
ATOM     17  C   UNL     1       2.517   6.342  19.870  0.00  0.00    +0.000 A 
ATOM     18  C   UNL     1       1.794   5.183  20.144  0.00  0.00    +0.000 A 
ATOM     19  C   UNL     1       2.380   3.927  19.969  0.00  0.00    +0.000 A 
ATOM     20  C   UNL     1       3.705   3.818  19.541  0.00  0.00    +0.000 A 
ATOM     21  C   UNL     1       4.461   4.966  19.284  0.00  0.00    +0.000 A 
ATOM     22  C   UNL     1       3.831   6.220  19.397  0.00  0.00    +0.000 A 
BRANCH  21  23
ATOM     23  C   UNL     1       5.874   4.927  18.903  0.00  0.00    +0.000 A 
ATOM     24  N   UNL     1       6.883   5.141  19.736  0.00  0.00    +0.000 NA
ATOM     25  N   UNL     1       8.039   4.958  19.024  0.00  0.00    +0.000 NA
ATOM     26  N   UNL     1       7.776   4.622  17.773  0.00  0.00    +0.000 NA
ATOM     27  N   UNL     1       6.433   4.578  17.685  0.00  0.00    +0.000 N 
BRANCH  27  28
ATOM     28  C   UNL     1       5.758   4.163  16.472  0.00  0.00    +0.000 C 
ATOM     29  C   UNL     1       6.453   4.167  15.116  0.00  0.00    +0.000 C 
ATOM     30  C   UNL     1       5.402   5.183  15.398  0.00  0.00    +0.000 C 
ENDBRANCH  27  28
ENDBRANCH  21  23
ENDBRANCH   3  17
TORSDOF 4
ENDMDL
MODEL 6
REMARK VINA RESULT:      -9.0      2.488      9.075
REMARK  Name = 
REMARK  6 active torsions:
REMARK  status: ('A' for Active; 'I' for Inactive)
REMARK    1  A    between atoms: C_1  and  C_2
REMARK    2  A    between atoms: C_7  and  C_8
REMARK    3  A    between atoms: C_9  and  C_10
REMARK    4  A    between atoms: N_12  and  C_13
REMARK    5  A    between atoms: C_17  and  C_18
REMARK    6  A    between atoms: N_22  and  C_23
REMARK                            x       y       z     vdW  Elec       q    Type
REMARK                         _______ _______ _______ _____ _____    ______ ____
ROOT
ATOM      1  C   UNL     1       1.814   9.101  18.234  0.00  0.00    +0.000 C 
ATOM      2  O   UNL     1       1.948   8.619  17.117  0.00  0.00    +0.000 OA
ATOM      3  N   UNL     1       2.011   8.436  19.438  0.00  0.00    +0.000 N 
ATOM      4  H   UNL     1       1.694   8.900  20.281  0.00  0.00    +0.000 HD
ENDROOT
BRANCH   1  13
ATOM      5  C   UNL     1       3.249  16.417  18.510  0.00  0.00    +0.000 C 
ATOM      6  C   UNL     1       2.278  15.276  18.587  0.00  0.00    +0.000 A 
ATOM      7  C   UNL     1       0.933  15.492  18.891  0.00  0.00    +0.000 A 
ATOM      8  C   UNL     1       0.046  14.415  18.959  0.00  0.00    +0.000 A 
ATOM      9  C   UNL     1       0.463  13.111  18.738  0.00  0.00    +0.000 A 
ATOM     10  N   UNL     1      -0.421  12.105  18.832  0.00  0.00    +0.000 NA
ATOM     11  C   UNL     1       0.001  10.821  18.648  0.00  0.00    +0.000 A 
ATOM     12  C   UNL     1      -1.081   9.787  18.786  0.00  0.00    +0.000 C 
ATOM     13  C   UNL     1       1.335  10.508  18.368  0.00  0.00    +0.000 A 
ATOM     14  C   UNL     1       2.237  11.568  18.223  0.00  0.00    +0.000 A 
ATOM     15  C   UNL     1       1.814  12.886  18.421  0.00  0.00    +0.000 A 
ATOM     16  C   UNL     1       2.710  13.970  18.335  0.00  0.00    +0.000 A 
ENDBRANCH   1  13
BRANCH   3  17
ATOM     17  C   UNL     1       2.402   7.088  19.602  0.00  0.00    +0.000 A 
ATOM     18  C   UNL     1       1.608   6.119  20.209  0.00  0.00    +0.000 A 
ATOM     19  C   UNL     1       2.089   4.819  20.383  0.00  0.00    +0.000 A 
ATOM     20  C   UNL     1       3.380   4.481  19.972  0.00  0.00    +0.000 A 
ATOM     21  C   UNL     1       4.207   5.441  19.382  0.00  0.00    +0.000 A 
ATOM     22  C   UNL     1       3.680   6.726  19.150  0.00  0.00    +0.000 A 
BRANCH  21  23
ATOM     23  C   UNL     1       5.593   5.175  18.992  0.00  0.00    +0.000 A 
ATOM     24  N   UNL     1       6.639   5.315  19.796  0.00  0.00    +0.000 NA
ATOM     25  N   UNL     1       7.743   4.916  19.092  0.00  0.00    +0.000 NA
ATOM     26  N   UNL     1       7.411   4.518  17.875  0.00  0.00    +0.000 NA
ATOM     27  N   UNL     1       6.074   4.655  17.802  0.00  0.00    +0.000 N 
BRANCH  27  28
ATOM     28  C   UNL     1       5.324   4.240  16.635  0.00  0.00    +0.000 C 
ATOM     29  C   UNL     1       6.007   3.853  15.329  0.00  0.00    +0.000 C 
ATOM     30  C   UNL     1       5.254   5.135  15.403  0.00  0.00    +0.000 C 
ENDBRANCH  27  28
ENDBRANCH  21  23
ENDBRANCH   3  17
TORSDOF 4
ENDMDL
MODEL 7
REMARK VINA RESULT:      -9.0      3.150      5.650
REMARK  Name = 
REMARK  6 active torsions:
REMARK  status: ('A' for Active; 'I' for Inactive)
REMARK    1  A    between atoms: C_1  and  C_2
REMARK    2  A    between atoms: C_7  and  C_8
REMARK    3  A    between atoms: C_9  and  C_10
REMARK    4  A    between atoms: N_12  and  C_13
REMARK    5  A    between atoms: C_17  and  C_18
REMARK    6  A    between atoms: N_22  and  C_23
REMARK                            x       y       z     vdW  Elec       q    Type
REMARK                         _______ _______ _______ _____ _____    ______ ____
ROOT
ATOM      1  C   UNL     1       4.983   4.917  17.957  0.00  0.00    +0.000 C 
ATOM      2  O   UNL     1       5.473   4.287  18.885  0.00  0.00    +0.000 OA
ATOM      3  N   UNL     1       3.761   5.578  17.977  0.00  0.00    +0.000 N 
ATOM      4  H   UNL     1       3.398   5.906  17.090  0.00  0.00    +0.000 HD
ENDROOT
BRANCH   1  13
ATOM      5  C   UNL     1       5.818   2.405  10.982  0.00  0.00    +0.000 C 
ATOM      6  C   UNL     1       6.262   3.287  12.111  0.00  0.00    +0.000 A 
ATOM      7  C   UNL     1       7.407   4.078  12.001  0.00  0.00    +0.000 A 
ATOM      8  C   UNL     1       7.803   4.892  13.065  0.00  0.00    +0.000 A 
ATOM      9  C   UNL     1       7.090   4.938  14.254  0.00  0.00    +0.000 A 
ATOM     10  N   UNL     1       7.519   5.721  15.257  0.00  0.00    +0.000 NA
ATOM     11  C   UNL     1       6.835   5.737  16.436  0.00  0.00    +0.000 A 
ATOM     12  C   UNL     1       7.419   6.647  17.480  0.00  0.00    +0.000 C 
ATOM     13  C   UNL     1       5.694   4.955  16.646  0.00  0.00    +0.000 A 
ATOM     14  C   UNL     1       5.227   4.182  15.577  0.00  0.00    +0.000 A 
ATOM     15  C   UNL     1       5.931   4.152  14.369  0.00  0.00    +0.000 A 
ATOM     16  C   UNL     1       5.517   3.342  13.294  0.00  0.00    +0.000 A 
ENDBRANCH   1  13
BRANCH   3  17
ATOM     17  C   UNL     1       2.858   5.649  19.062  0.00  0.00    +0.000 A 
ATOM     18  C   UNL     1       2.192   4.545  19.589  0.00  0.00    +0.000 A 
ATOM     19  C   UNL     1       1.272   4.705  20.628  0.00  0.00    +0.000 A 
ATOM     20  C   UNL     1       0.992   5.976  21.135  0.00  0.00    +0.000 A 
ATOM     21  C   UNL     1       1.628   7.103  20.607  0.00  0.00    +0.000 A 
ATOM     22  C   UNL     1       2.604   6.914  19.610  0.00  0.00    +0.000 A 
BRANCH  21  23
ATOM     23  C   UNL     1       1.330   8.469  21.041  0.00  0.00    +0.000 A 
ATOM     24  N   UNL     1       1.372   8.883  22.300  0.00  0.00    +0.000 NA
ATOM     25  N   UNL     1       1.093  10.224  22.293  0.00  0.00    +0.000 NA
ATOM     26  N   UNL     1       0.893  10.659  21.060  0.00  0.00    +0.000 NA
ATOM     27  N   UNL     1       1.056   9.584  20.266  0.00  0.00    +0.000 N 
BRANCH  27  28
ATOM     28  C   UNL     1       0.993   9.681  18.823  0.00  0.00    +0.000 C 
ATOM     29  C   UNL     1       0.514  10.943  18.116  0.00  0.00    +0.000 C 
ATOM     30  C   UNL     1      -0.353   9.732  18.110  0.00  0.00    +0.000 C 
ENDBRANCH  27  28
ENDBRANCH  21  23
ENDBRANCH   3  17
TORSDOF 4
ENDMDL
MODEL 8
REMARK VINA RESULT:      -8.9      3.176      9.229
REMARK  Name = 
REMARK  6 active torsions:
REMARK  status: ('A' for Active; 'I' for Inactive)
REMARK    1  A    between atoms: C_1  and  C_2
REMARK    2  A    between atoms: C_7  and  C_8
REMARK    3  A    between atoms: C_9  and  C_10
REMARK    4  A    between atoms: N_12  and  C_13
REMARK    5  A    between atoms: C_17  and  C_18
REMARK    6  A    between atoms: N_22  and  C_23
REMARK                            x       y       z     vdW  Elec       q    Type
REMARK                         _______ _______ _______ _____ _____    ______ ____
ROOT
ATOM      1  C   UNL     1       1.621   8.521  19.001  0.00  0.00    +0.000 C 
ATOM      2  O   UNL     1       1.575   8.282  17.801  0.00  0.00    +0.000 OA
ATOM      3  N   UNL     1       2.078   7.656  19.987  0.00  0.00    +0.000 N 
ATOM      4  H   UNL     1       1.894   7.914  20.950  0.00  0.00    +0.000 HD
ENDROOT
BRANCH   1  13
ATOM      5  C   UNL     1       1.381  15.970  18.664  0.00  0.00    +0.000 C 
ATOM      6  C   UNL     1       0.966  14.681  19.309  0.00  0.00    +0.000 A 
ATOM      7  C   UNL     1       0.168  14.672  20.454  0.00  0.00    +0.000 A 
ATOM      8  C   UNL     1      -0.206  13.460  21.040  0.00  0.00    +0.000 A 
ATOM      9  C   UNL     1       0.201  12.241  20.518  0.00  0.00    +0.000 A 
ATOM     10  N   UNL     1      -0.167  11.102  21.126  0.00  0.00    +0.000 NA
ATOM     11  C   UNL     1       0.264   9.907  20.630  0.00  0.00    +0.000 A 
ATOM     12  C   UNL     1      -0.211   8.707  21.402  0.00  0.00    +0.000 C 
ATOM     13  C   UNL     1       1.090   9.822  19.505  0.00  0.00    +0.000 A 
ATOM     14  C   UNL     1       1.427  11.013  18.851  0.00  0.00    +0.000 A 
ATOM     15  C   UNL     1       0.997  12.242  19.361  0.00  0.00    +0.000 A 
ATOM     16  C   UNL     1       1.364  13.460  18.756  0.00  0.00    +0.000 A 
ENDBRANCH   1  13
BRANCH   3  17
ATOM     17  C   UNL     1       2.574   6.347  19.796  0.00  0.00    +0.000 A 
ATOM     18  C   UNL     1       1.841   5.194  20.065  0.00  0.00    +0.000 A 
ATOM     19  C   UNL     1       2.422   3.934  19.902  0.00  0.00    +0.000 A 
ATOM     20  C   UNL     1       3.751   3.815  19.491  0.00  0.00    +0.000 A 
ATOM     21  C   UNL     1       4.517   4.957  19.238  0.00  0.00    +0.000 A 
ATOM     22  C   UNL     1       3.893   6.216  19.339  0.00  0.00    +0.000 A 
BRANCH  21  23
ATOM     23  C   UNL     1       5.934   4.908  18.874  0.00  0.00    +0.000 A 
ATOM     24  N   UNL     1       6.934   5.139  19.713  0.00  0.00    +0.000 NA
ATOM     25  N   UNL     1       8.097   4.940  19.019  0.00  0.00    +0.000 NA
ATOM     26  N   UNL     1       7.848   4.577  17.772  0.00  0.00    +0.000 NA
ATOM     27  N   UNL     1       6.506   4.533  17.670  0.00  0.00    +0.000 N 
BRANCH  27  28
ATOM     28  C   UNL     1       5.844   4.093  16.459  0.00  0.00    +0.000 C 
ATOM     29  C   UNL     1       6.475   4.265  15.083  0.00  0.00    +0.000 C 
ATOM     30  C   UNL     1       5.307   5.110  15.459  0.00  0.00    +0.000 C 
ENDBRANCH  27  28
ENDBRANCH  21  23
ENDBRANCH   3  17
TORSDOF 4
ENDMDL
MODEL 9
REMARK VINA RESULT:      -8.9      2.515      4.629
REMARK  Name = 
REMARK  6 active torsions:
REMARK  status: ('A' for Active; 'I' for Inactive)
REMARK    1  A    between atoms: C_1  and  C_2
REMARK    2  A    between atoms: C_7  and  C_8
REMARK    3  A    between atoms: C_9  and  C_10
REMARK    4  A    between atoms: N_12  and  C_13
REMARK    5  A    between atoms: C_17  and  C_18
REMARK    6  A    between atoms: N_22  and  C_23
REMARK                            x       y       z     vdW  Elec       q    Type
REMARK                         _______ _______ _______ _____ _____    ______ ____
ROOT
ATOM      1  C   UNL     1       4.514   6.174  17.962  0.00  0.00    +0.000 C 
ATOM      2  O   UNL     1       4.665   5.529  18.992  0.00  0.00    +0.000 OA
ATOM      3  N   UNL     1       3.590   7.193  17.768  0.00  0.00    +0.000 N 
ATOM      4  H   UNL     1       3.452   7.519  16.818  0.00  0.00    +0.000 HD
ENDROOT
BRANCH   1  13
ATOM      5  C   UNL     1       5.250   2.557  11.479  0.00  0.00    +0.000 C 
ATOM      6  C   UNL     1       5.819   3.437  12.552  0.00  0.00    +0.000 A 
ATOM      7  C   UNL     1       7.148   3.862  12.506  0.00  0.00    +0.000 A 
ATOM      8  C   UNL     1       7.659   4.681  13.516  0.00  0.00    +0.000 A 
ATOM      9  C   UNL     1       6.880   5.090  14.588  0.00  0.00    +0.000 A 
ATOM     10  N   UNL     1       7.418   5.862  15.546  0.00  0.00    +0.000 NA
ATOM     11  C   UNL     1       6.658   6.232  16.616  0.00  0.00    +0.000 A 
ATOM     12  C   UNL     1       7.377   7.089  17.620  0.00  0.00    +0.000 C 
ATOM     13  C   UNL     1       5.327   5.829  16.760  0.00  0.00    +0.000 A 
ATOM     14  C   UNL     1       4.761   5.066  15.731  0.00  0.00    +0.000 A 
ATOM     15  C   UNL     1       5.538   4.674  14.637  0.00  0.00    +0.000 A 
ATOM     16  C   UNL     1       5.013   3.861  13.613  0.00  0.00    +0.000 A 
ENDBRANCH   1  13
BRANCH   3  17
ATOM     17  C   UNL     1       2.658   7.678  18.714  0.00  0.00    +0.000 A 
ATOM     18  C   UNL     1       2.394   7.055  19.931  0.00  0.00    +0.000 A 
ATOM     19  C   UNL     1       1.418   7.565  20.789  0.00  0.00    +0.000 A 
ATOM     20  C   UNL     1       0.676   8.692  20.426  0.00  0.00    +0.000 A 
ATOM     21  C   UNL     1       0.903   9.321  19.199  0.00  0.00    +0.000 A 
ATOM     22  C   UNL     1       1.940   8.835  18.380  0.00  0.00    +0.000 A 
BRANCH  21  23
ATOM     23  C   UNL     1       0.116  10.461  18.725  0.00  0.00    +0.000 A 
ATOM     24  N   UNL     1      -1.125  10.378  18.265  0.00  0.00    +0.000 NA
ATOM     25  N   UNL     1      -1.535  11.653  17.980  0.00  0.00    +0.000 NA
ATOM     26  N   UNL     1      -0.587  12.530  18.264  0.00  0.00    +0.000 NA
ATOM     27  N   UNL     1       0.441  11.807  18.746  0.00  0.00    +0.000 N 
BRANCH  27  28
ATOM     28  C   UNL     1       1.649  12.432  19.246  0.00  0.00    +0.000 C 
ATOM     29  C   UNL     1       1.915  13.924  19.085  0.00  0.00    +0.000 C 
ATOM     30  C   UNL     1       2.706  12.953  18.279  0.00  0.00    +0.000 C 
ENDBRANCH  27  28
ENDBRANCH  21  23
ENDBRANCH   3  17
TORSDOF 4
ENDMDL
