MODEL 1
REMARK VINA RESULT:      -9.0      0.000      0.000
REMARK  Name = 
REMARK  5 active torsions:
REMARK  status: ('A' for Active; 'I' for Inactive)
REMARK    1  A    between atoms: C_1  and  C_2
REMARK    2  A    between atoms: C_13  and  C_14
REMARK    3  A    between atoms: C_14  and  C_15
REMARK    4  A    between atoms: N_17  and  C_18
REMARK    5  A    between atoms: C_23  and  C_24
REMARK                            x       y       z     vdW  Elec       q    Type
REMARK                         _______ _______ _______ _____ _____    ______ ____
ROOT
ATOM      1  C   UNL     1       2.326   8.318  18.368  0.00  0.00    +0.000 C 
ATOM      2  O   UNL     1       2.236   8.771  17.231  0.00  0.00    +0.000 OA
ATOM      3  N   UNL     1       1.620   8.799  19.465  0.00  0.00    +0.000 N 
ATOM      4  H   UNL     1       2.044   8.661  20.382  0.00  0.00    +0.000 HD
ENDROOT
BRANCH   3   5
ATOM      5  C   UNL     1       0.563   9.725  19.365  0.00  0.00    +0.000 A 
ATOM      6  C   UNL     1       0.338  10.679  20.363  0.00  0.00    +0.000 A 
ATOM      7  C   UNL     1      -0.747  11.547  20.288  0.00  0.00    +0.000 A 
ATOM      8  C   UNL     1      -1.610  11.470  19.204  0.00  0.00    +0.000 A 
ATOM      9  F   UNL     1      -2.665  12.300  19.190  0.00  0.00    +0.000 F 
ATOM     10  C   UNL     1      -1.386  10.557  18.172  0.00  0.00    +0.000 A 
ATOM     11  C   UNL     1      -0.274   9.695  18.244  0.00  0.00    +0.000 A 
BRANCH  10  12
ATOM     12  C   UNL     1      -2.306  10.440  17.010  0.00  0.00    +0.000 C 
ATOM     13  N   UNL     1      -2.317  11.455  16.096  0.00  0.00    +0.000 N 
ATOM     14  O   UNL     1      -3.042   9.470  16.877  0.00  0.00    +0.000 OA
ATOM     15  H   UNL     1      -1.739  12.282  16.180  0.00  0.00    +0.000 HD
ATOM     16  H   UNL     1      -2.961  11.395  15.317  0.00  0.00    +0.000 HD
ENDBRANCH  10  12
ENDBRANCH   3   5
BRANCH   1  17
ATOM     17  C   UNL     1       3.277   7.194  18.718  0.00  0.00    +0.000 C 
BRANCH  17  30
ATOM     18  C   UNL     1       5.955   5.487  15.525  0.00  0.00    +0.000 C 
ATOM     19  C   UNL     1       5.091   6.066  16.623  0.00  0.00    +0.000 C 
ATOM     20  O   UNL     1       5.399   7.179  17.052  0.00  0.00    +0.000 OA
ATOM     21  N   UNL     1       4.020   5.289  17.097  0.00  0.00    +0.000 N 
ATOM     22  C   UNL     1       3.758   4.022  16.573  0.00  0.00    +0.000 C 
ATOM     23  C   UNL     1       2.887   3.160  17.107  0.00  0.00    +0.000 C 
ATOM     24  C   UNL     1       2.230   3.460  18.374  0.00  0.00    +0.000 A 
ATOM     25  C   UNL     1       1.535   2.444  19.050  0.00  0.00    +0.000 A 
ATOM     26  C   UNL     1       0.932   2.705  20.277  0.00  0.00    +0.000 A 
ATOM     27  C   UNL     1       1.050   3.968  20.841  0.00  0.00    +0.000 A 
ATOM     28  C   UNL     1       1.755   4.977  20.173  0.00  0.00    +0.000 A 
ATOM     29  C   UNL     1       2.333   4.756  18.910  0.00  0.00    +0.000 A 
ATOM     30  C   UNL     1       2.937   5.859  18.010  0.00  0.00    +0.000 C 
ENDBRANCH  17  30
ENDBRANCH   1  17
TORSDOF 4
ENDMDL
MODEL 2
REMARK VINA RESULT:      -8.7      1.005      1.005
REMARK  Name = 
REMARK  5 active torsions:
REMARK  status: ('A' for Active; 'I' for Inactive)
REMARK    1  A    between atoms: C_1  and  C_2
REMARK    2  A    between atoms: C_13  and  C_14
REMARK    3  A    between atoms: C_14  and  C_15
REMARK    4  A    between atoms: N_17  and  C_18
REMARK    5  A    between atoms: C_23  and  C_24
REMARK                            x       y       z     vdW  Elec       q    Type
REMARK                         _______ _______ _______ _____ _____    ______ ____
ROOT
ATOM      1  C   UNL     1       2.123   7.858  19.502  0.00  0.00    +0.000 C 
ATOM      2  O   UNL     1       1.479   7.787  20.544  0.00  0.00    +0.000 OA
ATOM      3  N   UNL     1       1.834   8.726  18.455  0.00  0.00    +0.000 N 
ATOM      4  H   UNL     1       2.133   8.441  17.524  0.00  0.00    +0.000 HD
ENDROOT
BRANCH   3   5
ATOM      5  C   UNL     1       0.896   9.773  18.550  0.00  0.00    +0.000 A 
ATOM      6  C   UNL     1       1.099  10.851  19.418  0.00  0.00    +0.000 A 
ATOM      7  C   UNL     1       0.137  11.848  19.554  0.00  0.00    +0.000 A 
ATOM      8  C   UNL     1      -1.033  11.774  18.812  0.00  0.00    +0.000 A 
ATOM      9  F   UNL     1      -1.950  12.736  19.000  0.00  0.00    +0.000 F 
ATOM     10  C   UNL     1      -1.243  10.733  17.906  0.00  0.00    +0.000 A 
ATOM     11  C   UNL     1      -0.257   9.738  17.758  0.00  0.00    +0.000 A 
BRANCH  10  12
ATOM     12  C   UNL     1      -2.496  10.620  17.112  0.00  0.00    +0.000 C 
ATOM     13  N   UNL     1      -2.600  11.358  15.969  0.00  0.00    +0.000 N 
ATOM     14  O   UNL     1      -3.415   9.896  17.476  0.00  0.00    +0.000 OA
ATOM     15  H   UNL     1      -1.872  11.984  15.645  0.00  0.00    +0.000 HD
ATOM     16  H   UNL     1      -3.460  11.308  15.438  0.00  0.00    +0.000 HD
ENDBRANCH  10  12
ENDBRANCH   3   5
BRANCH   1  17
ATOM     17  C   UNL     1       3.298   6.949  19.214  0.00  0.00    +0.000 C 
BRANCH  17  30
ATOM     18  C   UNL     1       5.393   5.541  15.485  0.00  0.00    +0.000 C 
ATOM     19  C   UNL     1       4.729   6.021  16.757  0.00  0.00    +0.000 C 
ATOM     20  O   UNL     1       5.058   7.131  17.177  0.00  0.00    +0.000 OA
ATOM     21  N   UNL     1       3.810   5.162  17.384  0.00  0.00    +0.000 N 
ATOM     22  C   UNL     1       3.516   3.905  16.852  0.00  0.00    +0.000 C 
ATOM     23  C   UNL     1       2.808   2.970  17.496  0.00  0.00    +0.000 C 
ATOM     24  C   UNL     1       2.393   3.177  18.878  0.00  0.00    +0.000 A 
ATOM     25  C   UNL     1       1.894   2.094  19.619  0.00  0.00    +0.000 A 
ATOM     26  C   UNL     1       1.526   2.266  20.951  0.00  0.00    +0.000 A 
ATOM     27  C   UNL     1       1.687   3.509  21.548  0.00  0.00    +0.000 A 
ATOM     28  C   UNL     1       2.198   4.586  20.812  0.00  0.00    +0.000 A 
ATOM     29  C   UNL     1       2.532   4.453  19.453  0.00  0.00    +0.000 A 
ATOM     30  C   UNL     1       2.896   5.628  18.514  0.00  0.00    +0.000 C 
ENDBRANCH  17  30
ENDBRANCH   1  17
TORSDOF 4
ENDMDL
MODEL 3
REMARK VINA RESULT:      -8.7      3.210      8.120
REMARK  Name = 
REMARK  5 active torsions:
REMARK  status: ('A' for Active; 'I' for Inactive)
REMARK    1  A    between atoms: C_1  and  C_2
REMARK    2  A    between atoms: C_13  and  C_14
REMARK    3  A    between atoms: C_14  and  C_15
REMARK    4  A    between atoms: N_17  and  C_18
REMARK    5  A    between atoms: C_23  and  C_24
REMARK                            x       y       z     vdW  Elec       q    Type
REMARK                         _______ _______ _______ _____ _____    ______ ____
ROOT
ATOM      1  C   UNL     1       1.777   8.710  18.492  0.00  0.00    +0.000 C 
ATOM      2  O   UNL     1       1.607   8.568  19.699  0.00  0.00    +0.000 OA
ATOM      3  N   UNL     1       2.524   7.850  17.695  0.00  0.00    +0.000 N 
ATOM      4  H   UNL     1       2.940   8.246  16.853  0.00  0.00    +0.000 HD
ENDROOT
BRANCH   3   5
ATOM      5  C   UNL     1       3.000   6.599  18.136  0.00  0.00    +0.000 A 
ATOM      6  C   UNL     1       2.120   5.567  18.474  0.00  0.00    +0.000 A 
ATOM      7  C   UNL     1       2.596   4.356  18.970  0.00  0.00    +0.000 A 
ATOM      8  C   UNL     1       3.963   4.172  19.122  0.00  0.00    +0.000 A 
ATOM      9  F   UNL     1       4.378   3.004  19.638  0.00  0.00    +0.000 F 
ATOM     10  C   UNL     1       4.868   5.168  18.751  0.00  0.00    +0.000 A 
ATOM     11  C   UNL     1       4.380   6.383  18.231  0.00  0.00    +0.000 A 
BRANCH  10  12
ATOM     12  C   UNL     1       6.336   5.003  18.921  0.00  0.00    +0.000 C 
ATOM     13  N   UNL     1       7.022   4.333  17.950  0.00  0.00    +0.000 N 
ATOM     14  O   UNL     1       6.914   5.443  19.907  0.00  0.00    +0.000 OA
ATOM     15  H   UNL     1       6.578   3.937  17.130  0.00  0.00    +0.000 HD
ATOM     16  H   UNL     1       8.017   4.193  18.072  0.00  0.00    +0.000 HD
ENDBRANCH  10  12
ENDBRANCH   3   5
BRANCH   1  17
ATOM     17  C   UNL     1       1.223   9.896  17.732  0.00  0.00    +0.000 C 
BRANCH  17  30
ATOM     18  C   UNL     1       2.529  13.963  19.154  0.00  0.00    +0.000 C 
ATOM     19  C   UNL     1       2.105  12.608  18.636  0.00  0.00    +0.000 C 
ATOM     20  O   UNL     1       2.956  11.938  18.050  0.00  0.00    +0.000 OA
ATOM     21  N   UNL     1       0.768  12.218  18.830  0.00  0.00    +0.000 N 
ATOM     22  C   UNL     1      -0.141  13.053  19.482  0.00  0.00    +0.000 C 
ATOM     23  C   UNL     1      -1.459  12.830  19.526  0.00  0.00    +0.000 C 
ATOM     24  C   UNL     1      -2.050  11.731  18.772  0.00  0.00    +0.000 A 
ATOM     25  C   UNL     1      -3.443  11.673  18.611  0.00  0.00    +0.000 A 
ATOM     26  C   UNL     1      -4.021  10.650  17.864  0.00  0.00    +0.000 A 
ATOM     27  C   UNL     1      -3.206   9.707  17.253  0.00  0.00    +0.000 A 
ATOM     28  C   UNL     1      -1.814   9.773  17.403  0.00  0.00    +0.000 A 
ATOM     29  C   UNL     1      -1.207  10.767  18.191  0.00  0.00    +0.000 A 
ATOM     30  C   UNL     1       0.289  10.790  18.585  0.00  0.00    +0.000 C 
ENDBRANCH  17  30
ENDBRANCH   1  17
TORSDOF 4
ENDMDL
MODEL 4
REMARK VINA RESULT:      -8.5      3.340      7.768
REMARK  Name = 
REMARK  5 active torsions:
REMARK  status: ('A' for Active; 'I' for Inactive)
REMARK    1  A    between atoms: C_1  and  C_2
REMARK    2  A    between atoms: C_13  and  C_14
REMARK    3  A    between atoms: C_14  and  C_15
REMARK    4  A    between atoms: N_17  and  C_18
REMARK    5  A    between atoms: C_23  and  C_24
REMARK                            x       y       z     vdW  Elec       q    Type
REMARK                         _______ _______ _______ _____ _____    ______ ____
ROOT
ATOM      1  C   UNL     1       1.765   8.770  18.540  0.00  0.00    +0.000 C 
ATOM      2  O   UNL     1       1.570   8.623  19.742  0.00  0.00    +0.000 OA
ATOM      3  N   UNL     1       2.475   7.878  17.743  0.00  0.00    +0.000 N 
ATOM      4  H   UNL     1       2.925   8.260  16.912  0.00  0.00    +0.000 HD
ENDROOT
BRANCH   3   5
ATOM      5  C   UNL     1       2.875   6.598  18.175  0.00  0.00    +0.000 A 
ATOM      6  C   UNL     1       4.228   6.263  18.291  0.00  0.00    +0.000 A 
ATOM      7  C   UNL     1       4.616   4.976  18.655  0.00  0.00    +0.000 A 
ATOM      8  C   UNL     1       3.645   4.018  18.914  0.00  0.00    +0.000 A 
ATOM      9  F   UNL     1       4.062   2.781  19.225  0.00  0.00    +0.000 F 
ATOM     10  C   UNL     1       2.288   4.336  18.848  0.00  0.00    +0.000 A 
ATOM     11  C   UNL     1       1.902   5.646  18.499  0.00  0.00    +0.000 A 
BRANCH  10  12
ATOM     12  C   UNL     1       1.228   3.324  19.101  0.00  0.00    +0.000 C 
ATOM     13  N   UNL     1       0.628   3.317  20.327  0.00  0.00    +0.000 N 
ATOM     14  O   UNL     1       0.908   2.511  18.243  0.00  0.00    +0.000 OA
ATOM     15  H   UNL     1       0.878   3.959  21.070  0.00  0.00    +0.000 HD
ATOM     16  H   UNL     1      -0.074   2.613  20.517  0.00  0.00    +0.000 HD
ENDBRANCH  10  12
ENDBRANCH   3   5
BRANCH   1  17
ATOM     17  C   UNL     1       1.289   9.993  17.786  0.00  0.00    +0.000 C 
BRANCH  17  30
ATOM     18  C   UNL     1       2.478  14.128  19.114  0.00  0.00    +0.000 C 
ATOM     19  C   UNL     1       2.092  12.749  18.627  0.00  0.00    +0.000 C 
ATOM     20  O   UNL     1       2.966  12.087  18.065  0.00  0.00    +0.000 OA
ATOM     21  N   UNL     1       0.765  12.329  18.821  0.00  0.00    +0.000 N 
ATOM     22  C   UNL     1      -0.171  13.156  19.445  0.00  0.00    +0.000 C 
ATOM     23  C   UNL     1      -1.483  12.900  19.484  0.00  0.00    +0.000 C 
ATOM     24  C   UNL     1      -2.039  11.768  18.754  0.00  0.00    +0.000 A 
ATOM     25  C   UNL     1      -3.429  11.669  18.584  0.00  0.00    +0.000 A 
ATOM     26  C   UNL     1      -3.973  10.612  17.859  0.00  0.00    +0.000 A 
ATOM     27  C   UNL     1      -3.129   9.675  17.279  0.00  0.00    +0.000 A 
ATOM     28  C   UNL     1      -1.741   9.782  17.437  0.00  0.00    +0.000 A 
ATOM     29  C   UNL     1      -1.166  10.811  18.204  0.00  0.00    +0.000 A 
ATOM     30  C   UNL     1       0.325  10.883  18.609  0.00  0.00    +0.000 C 
ENDBRANCH  17  30
ENDBRANCH   1  17
TORSDOF 4
ENDMDL
MODEL 5
REMARK VINA RESULT:      -8.4      1.835      2.499
REMARK  Name = 
REMARK  5 active torsions:
REMARK  status: ('A' for Active; 'I' for Inactive)
REMARK    1  A    between atoms: C_1  and  C_2
REMARK    2  A    between atoms: C_13  and  C_14
REMARK    3  A    between atoms: C_14  and  C_15
REMARK    4  A    between atoms: N_17  and  C_18
REMARK    5  A    between atoms: C_23  and  C_24
REMARK                            x       y       z     vdW  Elec       q    Type
REMARK                         _______ _______ _______ _____ _____    ______ ____
ROOT
ATOM      1  C   UNL     1       2.667   7.939  18.348  0.00  0.00    +0.000 C 
ATOM      2  O   UNL     1       2.442   8.488  17.274  0.00  0.00    +0.000 OA
ATOM      3  N   UNL     1       2.088   8.310  19.557  0.00  0.00    +0.000 N 
ATOM      4  H   UNL     1       2.616   8.099  20.404  0.00  0.00    +0.000 HD
ENDROOT
BRANCH   3   5
ATOM      5  C   UNL     1       1.019   9.221  19.661  0.00  0.00    +0.000 A 
ATOM      6  C   UNL     1       0.379   9.720  18.521  0.00  0.00    +0.000 A 
ATOM      7  C   UNL     1      -0.633  10.669  18.630  0.00  0.00    +0.000 A 
ATOM      8  C   UNL     1      -1.017  11.118  19.886  0.00  0.00    +0.000 A 
ATOM      9  F   UNL     1      -1.970  12.061  19.944  0.00  0.00    +0.000 F 
ATOM     10  C   UNL     1      -0.426  10.606  21.042  0.00  0.00    +0.000 A 
ATOM     11  C   UNL     1       0.584   9.631  20.926  0.00  0.00    +0.000 A 
BRANCH  10  12
ATOM     12  C   UNL     1      -0.805  11.084  22.398  0.00  0.00    +0.000 C 
ATOM     13  N   UNL     1      -1.033  10.150  23.367  0.00  0.00    +0.000 N 
ATOM     14  O   UNL     1      -0.921  12.279  22.641  0.00  0.00    +0.000 OA
ATOM     15  H   UNL     1      -0.967   9.153  23.201  0.00  0.00    +0.000 HD
ATOM     16  H   UNL     1      -1.318  10.466  24.285  0.00  0.00    +0.000 HD
ENDBRANCH  10  12
ENDBRANCH   3   5
BRANCH   1  17
ATOM     17  C   UNL     1       3.662   6.807  18.486  0.00  0.00    +0.000 C 
BRANCH  17  30
ATOM     18  C   UNL     1       5.586   4.591  15.071  0.00  0.00    +0.000 C 
ATOM     19  C   UNL     1       4.980   5.341  16.236  0.00  0.00    +0.000 C 
ATOM     20  O   UNL     1       5.432   6.460  16.480  0.00  0.00    +0.000 OA
ATOM     21  N   UNL     1       3.968   4.703  16.974  0.00  0.00    +0.000 N 
ATOM     22  C   UNL     1       3.533   3.418  16.645  0.00  0.00    +0.000 C 
ATOM     23  C   UNL     1       2.722   2.685  17.416  0.00  0.00    +0.000 C 
ATOM     24  C   UNL     1       2.332   3.156  18.739  0.00  0.00    +0.000 A 
ATOM     25  C   UNL     1       1.711   2.270  19.633  0.00  0.00    +0.000 A 
ATOM     26  C   UNL     1       1.364   2.695  20.913  0.00  0.00    +0.000 A 
ATOM     27  C   UNL     1       1.665   3.992  21.308  0.00  0.00    +0.000 A 
ATOM     28  C   UNL     1       2.297   4.871  20.419  0.00  0.00    +0.000 A 
ATOM     29  C   UNL     1       2.615   4.484  19.105  0.00  0.00    +0.000 A 
ATOM     30  C   UNL     1       3.112   5.444  17.997  0.00  0.00    +0.000 C 
ENDBRANCH  17  30
ENDBRANCH   1  17
TORSDOF 4
ENDMDL
MODEL 6
REMARK VINA RESULT:      -8.2      3.254      8.244
REMARK  Name = 
REMARK  5 active torsions:
REMARK  status: ('A' for Active; 'I' for Inactive)
REMARK    1  A    between atoms: C_1  and  C_2
REMARK    2  A    between atoms: C_13  and  C_14
REMARK    3  A    between atoms: C_14  and  C_15
REMARK    4  A    between atoms: N_17  and  C_18
REMARK    5  A    between atoms: C_23  and  C_24
REMARK                            x       y       z     vdW  Elec       q    Type
REMARK                         _______ _______ _______ _____ _____    ______ ____
ROOT
ATOM      1  C   UNL     1       1.303   9.030  19.979  0.00  0.00    +0.000 C 
ATOM      2  O   UNL     1       0.976   8.784  21.137  0.00  0.00    +0.000 OA
ATOM      3  N   UNL     1       2.055   8.181  19.176  0.00  0.00    +0.000 N 
ATOM      4  H   UNL     1       2.605   8.614  18.435  0.00  0.00    +0.000 HD
ENDROOT
BRANCH   3   5
ATOM      5  C   UNL     1       2.354   6.847  19.520  0.00  0.00    +0.000 A 
ATOM      6  C   UNL     1       1.571   6.143  20.441  0.00  0.00    +0.000 A 
ATOM      7  C   UNL     1       1.911   4.849  20.824  0.00  0.00    +0.000 A 
ATOM      8  C   UNL     1       3.036   4.249  20.278  0.00  0.00    +0.000 A 
ATOM      9  F   UNL     1       3.349   3.014  20.703  0.00  0.00    +0.000 F 
ATOM     10  C   UNL     1       3.812   4.911  19.325  0.00  0.00    +0.000 A 
ATOM     11  C   UNL     1       3.451   6.213  18.926  0.00  0.00    +0.000 A 
BRANCH  10  12
ATOM     12  C   UNL     1       5.033   4.297  18.738  0.00  0.00    +0.000 C 
ATOM     13  N   UNL     1       4.917   3.661  17.536  0.00  0.00    +0.000 N 
ATOM     14  O   UNL     1       6.111   4.349  19.318  0.00  0.00    +0.000 OA
ATOM     15  H   UNL     1       4.041   3.579  17.035  0.00  0.00    +0.000 HD
ATOM     16  H   UNL     1       5.738   3.218  17.144  0.00  0.00    +0.000 HD
ENDBRANCH  10  12
ENDBRANCH   3   5
BRANCH   1  17
ATOM     17  C   UNL     1       0.960  10.340  19.304  0.00  0.00    +0.000 C 
BRANCH  17  30
ATOM     18  C   UNL     1       0.318  13.945  21.924  0.00  0.00    +0.000 C 
ATOM     19  C   UNL     1       0.563  12.758  21.021  0.00  0.00    +0.000 C 
ATOM     20  O   UNL     1       1.728  12.377  20.897  0.00  0.00    +0.000 OA
ATOM     21  N   UNL     1      -0.543  12.190  20.365  0.00  0.00    +0.000 N 
ATOM     22  C   UNL     1      -1.829  12.703  20.541  0.00  0.00    +0.000 C 
ATOM     23  C   UNL     1      -2.884  12.339  19.804  0.00  0.00    +0.000 C 
ATOM     24  C   UNL     1      -2.718  11.446  18.663  0.00  0.00    +0.000 A 
ATOM     25  C   UNL     1      -3.771  11.290  17.749  0.00  0.00    +0.000 A 
ATOM     26  C   UNL     1      -3.617  10.468  16.635  0.00  0.00    +0.000 A 
ATOM     27  C   UNL     1      -2.402   9.830  16.421  0.00  0.00    +0.000 A 
ATOM     28  C   UNL     1      -1.347   9.997  17.327  0.00  0.00    +0.000 A 
ATOM     29  C   UNL     1      -1.491  10.782  18.485  0.00  0.00    +0.000 A 
ATOM     30  C   UNL     1      -0.464  10.849  19.640  0.00  0.00    +0.000 C 
ENDBRANCH  17  30
ENDBRANCH   1  17
TORSDOF 4
ENDMDL
MODEL 7
REMARK VINA RESULT:      -8.2      2.693      4.380
REMARK  Name = 
REMARK  5 active torsions:
REMARK  status: ('A' for Active; 'I' for Inactive)
REMARK    1  A    between atoms: C_1  and  C_2
REMARK    2  A    between atoms: C_13  and  C_14
REMARK    3  A    between atoms: C_14  and  C_15
REMARK    4  A    between atoms: N_17  and  C_18
REMARK    5  A    between atoms: C_23  and  C_24
REMARK                            x       y       z     vdW  Elec       q    Type
REMARK                         _______ _______ _______ _____ _____    ______ ____
ROOT
ATOM      1  C   UNL     1       2.047   7.811  18.410  0.00  0.00    +0.000 C 
ATOM      2  O   UNL     1       2.074   7.823  19.637  0.00  0.00    +0.000 OA
ATOM      3  N   UNL     1       1.497   8.817  17.625  0.00  0.00    +0.000 N 
ATOM      4  H   UNL     1       1.156   8.548  16.703  0.00  0.00    +0.000 HD
ENDROOT
BRANCH   3   5
ATOM      5  C   UNL     1       1.092  10.068  18.134  0.00  0.00    +0.000 A 
ATOM      6  C   UNL     1      -0.240  10.310  18.484  0.00  0.00    +0.000 A 
ATOM      7  C   UNL     1      -0.644  11.567  18.924  0.00  0.00    +0.000 A 
ATOM      8  C   UNL     1       0.290  12.589  19.023  0.00  0.00    +0.000 A 
ATOM      9  F   UNL     1      -0.149  13.795  19.415  0.00  0.00    +0.000 F 
ATOM     10  C   UNL     1       1.634  12.364  18.722  0.00  0.00    +0.000 A 
ATOM     11  C   UNL     1       2.040  11.084  18.297  0.00  0.00    +0.000 A 
BRANCH  10  12
ATOM     12  C   UNL     1       2.651  13.446  18.802  0.00  0.00    +0.000 C 
ATOM     13  N   UNL     1       3.108  13.984  17.633  0.00  0.00    +0.000 N 
ATOM     14  O   UNL     1       3.078  13.838  19.881  0.00  0.00    +0.000 OA
ATOM     15  H   UNL     1       2.796  13.674  16.721  0.00  0.00    +0.000 HD
ATOM     16  H   UNL     1       3.821  14.701  17.679  0.00  0.00    +0.000 HD
ENDBRANCH  10  12
ENDBRANCH   3   5
BRANCH   1  17
ATOM     17  C   UNL     1       2.576   6.646  17.602  0.00  0.00    +0.000 C 
BRANCH  17  30
ATOM     18  C   UNL     1       1.743   2.285  18.351  0.00  0.00    +0.000 C 
ATOM     19  C   UNL     1       2.012   3.744  18.056  0.00  0.00    +0.000 C 
ATOM     20  O   UNL     1       1.112   4.382  17.511  0.00  0.00    +0.000 OA
ATOM     21  N   UNL     1       3.274   4.261  18.397  0.00  0.00    +0.000 N 
ATOM     22  C   UNL     1       4.250   3.457  18.988  0.00  0.00    +0.000 C 
ATOM     23  C   UNL     1       5.523   3.831  19.155  0.00  0.00    +0.000 C 
ATOM     24  C   UNL     1       6.003   5.093  18.603  0.00  0.00    +0.000 A 
ATOM     25  C   UNL     1       7.383   5.344  18.551  0.00  0.00    +0.000 A 
ATOM     26  C   UNL     1       7.860   6.528  17.995  0.00  0.00    +0.000 A 
ATOM     27  C   UNL     1       6.960   7.444  17.466  0.00  0.00    +0.000 A 
ATOM     28  C   UNL     1       5.584   7.187  17.506  0.00  0.00    +0.000 A 
ATOM     29  C   UNL     1       5.072   6.021  18.105  0.00  0.00    +0.000 A 
ATOM     30  C   UNL     1       3.574   5.758  18.386  0.00  0.00    +0.000 C 
ENDBRANCH  17  30
ENDBRANCH   1  17
TORSDOF 4
ENDMDL
MODEL 8
REMARK VINA RESULT:      -8.1      2.371      3.933
REMARK  Name = 
REMARK  5 active torsions:
REMARK  status: ('A' for Active; 'I' for Inactive)
REMARK    1  A    between atoms: C_1  and  C_2
REMARK    2  A    between atoms: C_13  and  C_14
REMARK    3  A    between atoms: C_14  and  C_15
REMARK    4  A    between atoms: N_17  and  C_18
REMARK    5  A    between atoms: C_23  and  C_24
REMARK                            x       y       z     vdW  Elec       q    Type
REMARK                         _______ _______ _______ _____ _____    ______ ____
ROOT
ATOM      1  C   UNL     1       2.058   7.783  18.433  0.00  0.00    +0.000 C 
ATOM      2  O   UNL     1       2.127   7.858  19.657  0.00  0.00    +0.000 OA
ATOM      3  N   UNL     1       1.558   8.785  17.610  0.00  0.00    +0.000 N 
ATOM      4  H   UNL     1       1.167   8.494  16.715  0.00  0.00    +0.000 HD
ENDROOT
BRANCH   3   5
ATOM      5  C   UNL     1       1.265  10.088  18.060  0.00  0.00    +0.000 A 
ATOM      6  C   UNL     1       2.250  11.081  18.096  0.00  0.00    +0.000 A 
ATOM      7  C   UNL     1       1.969  12.346  18.603  0.00  0.00    +0.000 A 
ATOM      8  C   UNL     1       0.693  12.627  19.070  0.00  0.00    +0.000 A 
ATOM      9  F   UNL     1       0.475  13.847  19.585  0.00  0.00    +0.000 F 
ATOM     10  C   UNL     1      -0.321  11.670  19.007  0.00  0.00    +0.000 A 
ATOM     11  C   UNL     1      -0.035  10.397  18.474  0.00  0.00    +0.000 A 
BRANCH  10  12
ATOM     12  C   UNL     1      -1.691  11.938  19.518  0.00  0.00    +0.000 C 
ATOM     13  N   UNL     1      -2.675  12.200  18.609  0.00  0.00    +0.000 N 
ATOM     14  O   UNL     1      -1.933  11.936  20.719  0.00  0.00    +0.000 OA
ATOM     15  H   UNL     1      -2.512  12.231  17.610  0.00  0.00    +0.000 HD
ATOM     16  H   UNL     1      -3.604  12.411  18.951  0.00  0.00    +0.000 HD
ENDBRANCH  10  12
ENDBRANCH   3   5
BRANCH   1  17
ATOM     17  C   UNL     1       2.471   6.540  17.676  0.00  0.00    +0.000 C 
BRANCH  17  30
ATOM     18  C   UNL     1       1.679   2.183  18.493  0.00  0.00    +0.000 C 
ATOM     19  C   UNL     1       1.933   3.640  18.176  0.00  0.00    +0.000 C 
ATOM     20  O   UNL     1       1.015   4.269  17.648  0.00  0.00    +0.000 OA
ATOM     21  N   UNL     1       3.201   4.167  18.477  0.00  0.00    +0.000 N 
ATOM     22  C   UNL     1       4.196   3.374  19.052  0.00  0.00    +0.000 C 
ATOM     23  C   UNL     1       5.471   3.755  19.181  0.00  0.00    +0.000 C 
ATOM     24  C   UNL     1       5.930   5.013  18.604  0.00  0.00    +0.000 A 
ATOM     25  C   UNL     1       7.307   5.270  18.512  0.00  0.00    +0.000 A 
ATOM     26  C   UNL     1       7.763   6.451  17.932  0.00  0.00    +0.000 A 
ATOM     27  C   UNL     1       6.846   7.357  17.416  0.00  0.00    +0.000 A 
ATOM     28  C   UNL     1       5.472   7.093  17.496  0.00  0.00    +0.000 A 
ATOM     29  C   UNL     1       4.982   5.932  18.120  0.00  0.00    +0.000 A 
ATOM     30  C   UNL     1       3.493   5.665  18.442  0.00  0.00    +0.000 C 
ENDBRANCH  17  30
ENDBRANCH   1  17
TORSDOF 4
ENDMDL
MODEL 9
REMARK VINA RESULT:      -8.1      1.908      2.392
REMARK  Name = 
REMARK  5 active torsions:
REMARK  status: ('A' for Active; 'I' for Inactive)
REMARK    1  A    between atoms: C_1  and  C_2
REMARK    2  A    between atoms: C_13  and  C_14
REMARK    3  A    between atoms: C_14  and  C_15
REMARK    4  A    between atoms: N_17  and  C_18
REMARK    5  A    between atoms: C_23  and  C_24
REMARK                            x       y       z     vdW  Elec       q    Type
REMARK                         _______ _______ _______ _____ _____    ______ ____
ROOT
ATOM      1  C   UNL     1       2.200   7.867  19.302  0.00  0.00    +0.000 C 
ATOM      2  O   UNL     1       1.580   7.819  20.360  0.00  0.00    +0.000 OA
ATOM      3  N   UNL     1       1.890   8.715  18.245  0.00  0.00    +0.000 N 
ATOM      4  H   UNL     1       2.167   8.409  17.313  0.00  0.00    +0.000 HD
ENDROOT
BRANCH   3   5
ATOM      5  C   UNL     1       0.957   9.767  18.340  0.00  0.00    +0.000 A 
ATOM      6  C   UNL     1      -0.371   9.597  17.935  0.00  0.00    +0.000 A 
ATOM      7  C   UNL     1      -1.269  10.660  17.970  0.00  0.00    +0.000 A 
ATOM      8  C   UNL     1      -0.841  11.900  18.422  0.00  0.00    +0.000 A 
ATOM      9  F   UNL     1      -1.729  12.907  18.405  0.00  0.00    +0.000 F 
ATOM     10  C   UNL     1       0.466  12.088  18.873  0.00  0.00    +0.000 A 
ATOM     11  C   UNL     1       1.365  11.003  18.854  0.00  0.00    +0.000 A 
BRANCH  10  12
ATOM     12  C   UNL     1       0.955  13.411  19.344  0.00  0.00    +0.000 C 
ATOM     13  N   UNL     1       0.913  13.671  20.683  0.00  0.00    +0.000 N 
ATOM     14  O   UNL     1       1.373  14.251  18.556  0.00  0.00    +0.000 OA
ATOM     15  H   UNL     1       0.557  13.012  21.365  0.00  0.00    +0.000 HD
ATOM     16  H   UNL     1       1.218  14.580  21.008  0.00  0.00    +0.000 HD
ENDBRANCH  10  12
ENDBRANCH   3   5
BRANCH   1  17
ATOM     17  C   UNL     1       3.366   6.948  19.007  0.00  0.00    +0.000 C 
BRANCH  17  30
ATOM     18  C   UNL     1       5.453   5.343  15.354  0.00  0.00    +0.000 C 
ATOM     19  C   UNL     1       4.792   5.889  16.600  0.00  0.00    +0.000 C 
ATOM     20  O   UNL     1       5.139   7.010  16.975  0.00  0.00    +0.000 OA
ATOM     21  N   UNL     1       3.852   5.076  17.257  0.00  0.00    +0.000 N 
ATOM     22  C   UNL     1       3.537   3.803  16.777  0.00  0.00    +0.000 C 
ATOM     23  C   UNL     1       2.808   2.911  17.456  0.00  0.00    +0.000 C 
ATOM     24  C   UNL     1       2.390   3.183  18.826  0.00  0.00    +0.000 A 
ATOM     25  C   UNL     1       1.865   2.143  19.609  0.00  0.00    +0.000 A 
ATOM     26  C   UNL     1       1.494   2.379  20.930  0.00  0.00    +0.000 A 
ATOM     27  C   UNL     1       1.676   3.643  21.475  0.00  0.00    +0.000 A 
ATOM     28  C   UNL     1       2.212   4.677  20.697  0.00  0.00    +0.000 A 
ATOM     29  C   UNL     1       2.551   4.480  19.346  0.00  0.00    +0.000 A 
ATOM     30  C   UNL     1       2.942   5.607  18.360  0.00  0.00    +0.000 C 
ENDBRANCH  17  30
ENDBRANCH   1  17
TORSDOF 4
ENDMDL
