MODEL 1
REMARK VINA RESULT:      -9.3      0.000      0.000
REMARK  Name = 
REMARK  3 active torsions:
REMARK  status: ('A' for Active; 'I' for Inactive)
REMARK    1  A    between atoms: C_1  and  C_2
REMARK    2  A    between atoms: C_7  and  C_9
REMARK    3  A    between atoms: C_12  and  N_13
REMARK                            x       y       z     vdW  Elec       q    Type
REMARK                         _______ _______ _______ _____ _____    ______ ____
ROOT
ATOM      1  C   UNL     1       2.484   7.589  18.071  0.00  0.00    +0.000 A 
ATOM      2  C   UNL     1       3.800   7.552  17.596  0.00  0.00    +0.000 A 
ATOM      3  C   UNL     1       4.382   6.325  17.269  0.00  0.00    +0.000 A 
ATOM      4  C   UNL     1       3.660   5.134  17.432  0.00  0.00    +0.000 A 
ATOM      5  C   UNL     1       2.284   5.202  17.703  0.00  0.00    +0.000 A 
ATOM      6  C   UNL     1       1.712   6.421  18.056  0.00  0.00    +0.000 A 
ENDROOT
BRANCH   1  13
ATOM      7  C   UNL     1      -1.626  12.140  23.113  0.00  0.00    +0.000 C 
ATOM      8  C   UNL     1      -0.780  11.168  22.357  0.00  0.00    +0.000 A 
ATOM      9  C   UNL     1      -0.387   9.944  22.896  0.00  0.00    +0.000 A 
ATOM     10  C   UNL     1       0.396   9.075  22.137  0.00  0.00    +0.000 A 
ATOM     11  C   UNL     1       0.765   9.451  20.852  0.00  0.00    +0.000 A 
ATOM     12  N   UNL     1       1.509   8.537  20.092  0.00  0.00    +0.000 N 
ATOM     13  C   UNL     1       1.921   8.765  18.797  0.00  0.00    +0.000 C 
ATOM     14  O   UNL     1       1.847   9.817  18.172  0.00  0.00    +0.000 OA
ATOM     15  N   UNL     1       0.398  10.630  20.323  0.00  0.00    +0.000 NA
ATOM     16  C   UNL     1      -0.353  11.461  21.072  0.00  0.00    +0.000 A 
ATOM     17  H   UNL     1       1.736   7.660  20.533  0.00  0.00    +0.000 HD
ENDBRANCH   1  13
BRANCH   4  18
ATOM     18  N   UNL     1       4.399   3.913  17.698  0.00  0.00    +0.000 N 
ATOM     19  C   UNL     1       3.849   2.754  17.191  0.00  0.00    +0.000 A 
ATOM     20  N   UNL     1       3.081   1.949  17.857  0.00  0.00    +0.000 NA
ATOM     21  C   UNL     1       2.765   2.366  19.166  0.00  0.00    +0.000 A 
ATOM     22  C   UNL     1       1.540   2.029  19.733  0.00  0.00    +0.000 A 
ATOM     23  C   UNL     1       1.171   2.559  20.974  0.00  0.00    +0.000 A 
ATOM     24  C   UNL     1       2.049   3.388  21.680  0.00  0.00    +0.000 A 
ATOM     25  C   UNL     1       3.284   3.727  21.127  0.00  0.00    +0.000 A 
ATOM     26  C   UNL     1       3.607   3.236  19.864  0.00  0.00    +0.000 A 
ATOM     27  C   UNL     1       4.709   3.823  19.061  0.00  0.00    +0.000 A 
ATOM     28  O   UNL     1       5.736   4.241  19.588  0.00  0.00    +0.000 OA
ENDBRANCH   4  18
TORSDOF 2
ENDMDL
MODEL 2
REMARK VINA RESULT:      -9.0      1.449      1.822
REMARK  Name = 
REMARK  3 active torsions:
REMARK  status: ('A' for Active; 'I' for Inactive)
REMARK    1  A    between atoms: C_1  and  C_2
REMARK    2  A    between atoms: C_7  and  C_9
REMARK    3  A    between atoms: C_12  and  N_13
REMARK                            x       y       z     vdW  Elec       q    Type
REMARK                         _______ _______ _______ _____ _____    ______ ____
ROOT
ATOM      1  C   UNL     1       2.390   8.072  18.647  0.00  0.00    +0.000 A 
ATOM      2  C   UNL     1       2.406   7.094  19.648  0.00  0.00    +0.000 A 
ATOM      3  C   UNL     1       3.196   5.953  19.485  0.00  0.00    +0.000 A 
ATOM      4  C   UNL     1       3.955   5.778  18.319  0.00  0.00    +0.000 A 
ATOM      5  C   UNL     1       4.095   6.855  17.428  0.00  0.00    +0.000 A 
ATOM      6  C   UNL     1       3.287   7.979  17.576  0.00  0.00    +0.000 A 
ENDROOT
BRANCH   1  13
ATOM      7  C   UNL     1      -3.556  13.034  20.393  0.00  0.00    +0.000 C 
ATOM      8  C   UNL     1      -2.326  12.198  20.249  0.00  0.00    +0.000 A 
ATOM      9  C   UNL     1      -1.430  12.003  21.299  0.00  0.00    +0.000 A 
ATOM     10  C   UNL     1      -0.304  11.204  21.105  0.00  0.00    +0.000 A 
ATOM     11  C   UNL     1      -0.104  10.615  19.863  0.00  0.00    +0.000 A 
ATOM     12  N   UNL     1       1.010   9.774  19.711  0.00  0.00    +0.000 N 
ATOM     13  C   UNL     1       1.317   9.104  18.546  0.00  0.00    +0.000 C 
ATOM     14  O   UNL     1       0.786   9.245  17.451  0.00  0.00    +0.000 OA
ATOM     15  N   UNL     1      -0.956  10.799  18.842  0.00  0.00    +0.000 NA
ATOM     16  C   UNL     1      -2.036  11.579  19.044  0.00  0.00    +0.000 A 
ATOM     17  H   UNL     1       1.601   9.655  20.517  0.00  0.00    +0.000 HD
ENDBRANCH   1  13
BRANCH   4  18
ATOM     18  N   UNL     1       4.239   4.424  17.880  0.00  0.00    +0.000 N 
ATOM     19  C   UNL     1       3.389   3.910  16.922  0.00  0.00    +0.000 A 
ATOM     20  N   UNL     1       2.353   3.173  17.175  0.00  0.00    +0.000 NA
ATOM     21  C   UNL     1       2.084   2.964  18.543  0.00  0.00    +0.000 A 
ATOM     22  C   UNL     1       0.774   2.799  18.982  0.00  0.00    +0.000 A 
ATOM     23  C   UNL     1       0.497   2.732  20.352  0.00  0.00    +0.000 A 
ATOM     24  C   UNL     1       1.535   2.775  21.288  0.00  0.00    +0.000 A 
ATOM     25  C   UNL     1       2.853   2.932  20.861  0.00  0.00    +0.000 A 
ATOM     26  C   UNL     1       3.102   3.057  19.496  0.00  0.00    +0.000 A 
ATOM     27  C   UNL     1       4.394   3.580  18.986  0.00  0.00    +0.000 A 
ATOM     28  O   UNL     1       5.456   3.332  19.552  0.00  0.00    +0.000 OA
ENDBRANCH   4  18
TORSDOF 2
ENDMDL
MODEL 3
REMARK VINA RESULT:      -8.8      1.357      1.906
REMARK  Name = 
REMARK  3 active torsions:
REMARK  status: ('A' for Active; 'I' for Inactive)
REMARK    1  A    between atoms: C_1  and  C_2
REMARK    2  A    between atoms: C_7  and  C_9
REMARK    3  A    between atoms: C_12  and  N_13
REMARK                            x       y       z     vdW  Elec       q    Type
REMARK                         _______ _______ _______ _____ _____    ______ ____
ROOT
ATOM      1  C   UNL     1       1.870   8.532  19.311  0.00  0.00    +0.000 A 
ATOM      2  C   UNL     1       1.925   7.390  20.118  0.00  0.00    +0.000 A 
ATOM      3  C   UNL     1       2.507   6.222  19.622  0.00  0.00    +0.000 A 
ATOM      4  C   UNL     1       3.017   6.185  18.316  0.00  0.00    +0.000 A 
ATOM      5  C   UNL     1       3.147   7.386  17.600  0.00  0.00    +0.000 A 
ATOM      6  C   UNL     1       2.542   8.543  18.083  0.00  0.00    +0.000 A 
ENDROOT
BRANCH   1  13
ATOM      7  C   UNL     1      -3.606  13.230  22.624  0.00  0.00    +0.000 C 
ATOM      8  C   UNL     1      -2.478  12.340  22.216  0.00  0.00    +0.000 A 
ATOM      9  C   UNL     1      -1.749  11.589  23.137  0.00  0.00    +0.000 A 
ATOM     10  C   UNL     1      -0.712  10.770  22.692  0.00  0.00    +0.000 A 
ATOM     11  C   UNL     1      -0.432  10.718  21.334  0.00  0.00    +0.000 A 
ATOM     12  N   UNL     1       0.583   9.847  20.909  0.00  0.00    +0.000 N 
ATOM     13  C   UNL     1       0.950   9.674  19.591  0.00  0.00    +0.000 C 
ATOM     14  O   UNL     1       0.579  10.335  18.628  0.00  0.00    +0.000 OA
ATOM     15  N   UNL     1      -1.123  11.440  20.436  0.00  0.00    +0.000 NA
ATOM     16  C   UNL     1      -2.117  12.232  20.883  0.00  0.00    +0.000 A 
ATOM     17  H   UNL     1       1.050   9.313  21.623  0.00  0.00    +0.000 HD
ENDBRANCH   1  13
BRANCH   4  18
ATOM     18  N   UNL     1       3.029   4.913  17.618  0.00  0.00    +0.000 N 
ATOM     19  C   UNL     1       1.798   4.434  17.218  0.00  0.00    +0.000 A 
ATOM     20  N   UNL     1       1.081   3.591  17.893  0.00  0.00    +0.000 NA
ATOM     21  C   UNL     1       1.610   3.218  19.144  0.00  0.00    +0.000 A 
ATOM     22  C   UNL     1       0.759   2.900  20.199  0.00  0.00    +0.000 A 
ATOM     23  C   UNL     1       1.280   2.667  21.476  0.00  0.00    +0.000 A 
ATOM     24  C   UNL     1       2.662   2.698  21.694  0.00  0.00    +0.000 A 
ATOM     25  C   UNL     1       3.527   3.007  20.644  0.00  0.00    +0.000 A 
ATOM     26  C   UNL     1       2.983   3.294  19.393  0.00  0.00    +0.000 A 
ATOM     27  C   UNL     1       3.776   3.973  18.338  0.00  0.00    +0.000 A 
ATOM     28  O   UNL     1       4.977   3.755  18.198  0.00  0.00    +0.000 OA
ENDBRANCH   4  18
TORSDOF 2
ENDMDL
MODEL 4
REMARK VINA RESULT:      -8.7      1.967      3.724
REMARK  Name = 
REMARK  3 active torsions:
REMARK  status: ('A' for Active; 'I' for Inactive)
REMARK    1  A    between atoms: C_1  and  C_2
REMARK    2  A    between atoms: C_7  and  C_9
REMARK    3  A    between atoms: C_12  and  N_13
REMARK                            x       y       z     vdW  Elec       q    Type
REMARK                         _______ _______ _______ _____ _____    ______ ____
ROOT
ATOM      1  C   UNL     1       2.298   7.781  18.355  0.00  0.00    +0.000 A 
ATOM      2  C   UNL     1       3.572   7.894  17.786  0.00  0.00    +0.000 A 
ATOM      3  C   UNL     1       4.331   6.744  17.559  0.00  0.00    +0.000 A 
ATOM      4  C   UNL     1       3.830   5.484  17.917  0.00  0.00    +0.000 A 
ATOM      5  C   UNL     1       2.480   5.366  18.286  0.00  0.00    +0.000 A 
ATOM      6  C   UNL     1       1.734   6.514  18.539  0.00  0.00    +0.000 A 
ENDROOT
BRANCH   1  13
ATOM      7  C   UNL     1      -2.233  12.225  23.124  0.00  0.00    +0.000 C 
ATOM      8  C   UNL     1      -1.280  11.311  22.426  0.00  0.00    +0.000 A 
ATOM      9  C   UNL     1      -0.668  10.238  23.072  0.00  0.00    +0.000 A 
ATOM     10  C   UNL     1       0.206   9.415  22.363  0.00  0.00    +0.000 A 
ATOM     11  C   UNL     1       0.444   9.683  21.021  0.00  0.00    +0.000 A 
ATOM     12  N   UNL     1       1.287   8.808  20.320  0.00  0.00    +0.000 N 
ATOM     13  C   UNL     1       1.590   8.936  18.981  0.00  0.00    +0.000 C 
ATOM     14  O   UNL     1       1.315   9.879  18.248  0.00  0.00    +0.000 OA
ATOM     15  N   UNL     1      -0.136  10.716  20.388  0.00  0.00    +0.000 NA
ATOM     16  C   UNL     1      -0.973  11.506  21.089  0.00  0.00    +0.000 A 
ATOM     17  H   UNL     1       1.674   8.038  20.840  0.00  0.00    +0.000 HD
ENDBRANCH   1  13
BRANCH   4  18
ATOM     18  N   UNL     1       4.777   4.440  18.265  0.00  0.00    +0.000 N 
ATOM     19  C   UNL     1       6.049   4.865  18.588  0.00  0.00    +0.000 A 
ATOM     20  N   UNL     1       7.041   4.920  17.755  0.00  0.00    +0.000 NA
ATOM     21  C   UNL     1       6.731   4.571  16.426  0.00  0.00    +0.000 A 
ATOM     22  C   UNL     1       7.412   5.165  15.368  0.00  0.00    +0.000 A 
ATOM     23  C   UNL     1       7.009   4.924  14.049  0.00  0.00    +0.000 A 
ATOM     24  C   UNL     1       5.954   4.045  13.781  0.00  0.00    +0.000 A 
ATOM     25  C   UNL     1       5.268   3.437  14.832  0.00  0.00    +0.000 A 
ATOM     26  C   UNL     1       5.648   3.736  16.139  0.00  0.00    +0.000 A 
ATOM     27  C   UNL     1       4.765   3.433  17.293  0.00  0.00    +0.000 A 
ATOM     28  O   UNL     1       4.060   2.427  17.315  0.00  0.00    +0.000 OA
ENDBRANCH   4  18
TORSDOF 2
ENDMDL
MODEL 5
REMARK VINA RESULT:      -8.7      7.613     11.150
REMARK  Name = 
REMARK  3 active torsions:
REMARK  status: ('A' for Active; 'I' for Inactive)
REMARK    1  A    between atoms: C_1  and  C_2
REMARK    2  A    between atoms: C_7  and  C_9
REMARK    3  A    between atoms: C_12  and  N_13
REMARK                            x       y       z     vdW  Elec       q    Type
REMARK                         _______ _______ _______ _____ _____    ______ ____
ROOT
ATOM      1  C   UNL     1       9.528  10.516  19.003  0.00  0.00    +0.000 A 
ATOM      2  C   UNL     1      10.481  11.237  18.275  0.00  0.00    +0.000 A 
ATOM      3  C   UNL     1      11.101  12.345  18.857  0.00  0.00    +0.000 A 
ATOM      4  C   UNL     1      10.758  12.746  20.157  0.00  0.00    +0.000 A 
ATOM      5  C   UNL     1       9.965  11.896  20.946  0.00  0.00    +0.000 A 
ATOM      6  C   UNL     1       9.326  10.809  20.357  0.00  0.00    +0.000 A 
ENDROOT
BRANCH   1  13
ATOM      7  C   UNL     1       5.964   3.990  16.222  0.00  0.00    +0.000 C 
ATOM      8  C   UNL     1       6.649   5.099  16.950  0.00  0.00    +0.000 A 
ATOM      9  C   UNL     1       7.384   4.886  18.115  0.00  0.00    +0.000 A 
ATOM     10  C   UNL     1       8.009   5.963  18.743  0.00  0.00    +0.000 A 
ATOM     11  C   UNL     1       7.885   7.229  18.188  0.00  0.00    +0.000 A 
ATOM     12  N   UNL     1       8.566   8.285  18.813  0.00  0.00    +0.000 N 
ATOM     13  C   UNL     1       8.554   9.587  18.358  0.00  0.00    +0.000 C 
ATOM     14  O   UNL     1       7.855  10.051  17.465  0.00  0.00    +0.000 OA
ATOM     15  N   UNL     1       7.175   7.450  17.069  0.00  0.00    +0.000 NA
ATOM     16  C   UNL     1       6.573   6.400  16.477  0.00  0.00    +0.000 A 
ATOM     17  H   UNL     1       9.101   8.057  19.634  0.00  0.00    +0.000 HD
ENDBRANCH   1  13
BRANCH   4  18
ATOM     18  N   UNL     1      10.894  14.149  20.502  0.00  0.00    +0.000 N 
ATOM     19  C   UNL     1      10.221  14.558  21.635  0.00  0.00    +0.000 A 
ATOM     20  N   UNL     1       9.040  15.094  21.638  0.00  0.00    +0.000 NA
ATOM     21  C   UNL     1       8.419  15.185  20.376  0.00  0.00    +0.000 A 
ATOM     22  C   UNL     1       7.034  15.102  20.270  0.00  0.00    +0.000 A 
ATOM     23  C   UNL     1       6.428  15.051  19.009  0.00  0.00    +0.000 A 
ATOM     24  C   UNL     1       7.202  15.137  17.848  0.00  0.00    +0.000 A 
ATOM     25  C   UNL     1       8.591  15.229  17.940  0.00  0.00    +0.000 A 
ATOM     26  C   UNL     1       9.178  15.219  19.204  0.00  0.00    +0.000 A 
ATOM     27  C   UNL     1      10.626  14.950  19.385  0.00  0.00    +0.000 A 
ATOM     28  O   UNL     1      11.460  15.346  18.575  0.00  0.00    +0.000 OA
ENDBRANCH   4  18
TORSDOF 2
ENDMDL
MODEL 6
REMARK VINA RESULT:      -8.4      1.935      3.558
REMARK  Name = 
REMARK  3 active torsions:
REMARK  status: ('A' for Active; 'I' for Inactive)
REMARK    1  A    between atoms: C_1  and  C_2
REMARK    2  A    between atoms: C_7  and  C_9
REMARK    3  A    between atoms: C_12  and  N_13
REMARK                            x       y       z     vdW  Elec       q    Type
REMARK                         _______ _______ _______ _____ _____    ______ ____
ROOT
ATOM      1  C   UNL     1       1.987   7.855  19.194  0.00  0.00    +0.000 A 
ATOM      2  C   UNL     1       2.940   7.794  18.171  0.00  0.00    +0.000 A 
ATOM      3  C   UNL     1       3.782   6.684  18.078  0.00  0.00    +0.000 A 
ATOM      4  C   UNL     1       3.687   5.643  19.014  0.00  0.00    +0.000 A 
ATOM      5  C   UNL     1       2.596   5.618  19.897  0.00  0.00    +0.000 A 
ATOM      6  C   UNL     1       1.775   6.737  20.008  0.00  0.00    +0.000 A 
ENDROOT
BRANCH   1  13
ATOM      7  C   UNL     1      -2.672  13.161  22.822  0.00  0.00    +0.000 C 
ATOM      8  C   UNL     1      -1.735  12.095  22.358  0.00  0.00    +0.000 A 
ATOM      9  C   UNL     1      -1.347  11.034  23.175  0.00  0.00    +0.000 A 
ATOM     10  C   UNL     1      -0.476  10.065  22.680  0.00  0.00    +0.000 A 
ATOM     11  C   UNL     1      -0.016  10.178  21.375  0.00  0.00    +0.000 A 
ATOM     12  N   UNL     1       0.819   9.161  20.887  0.00  0.00    +0.000 N 
ATOM     13  C   UNL     1       1.328   9.129  19.605  0.00  0.00    +0.000 C 
ATOM     14  O   UNL     1       1.269  10.019  18.765  0.00  0.00    +0.000 OA
ATOM     15  N   UNL     1      -0.377  11.197  20.578  0.00  0.00    +0.000 NA
ATOM     16  C   UNL     1      -1.215  12.129  21.074  0.00  0.00    +0.000 A 
ATOM     17  H   UNL     1       1.037   8.410  21.521  0.00  0.00    +0.000 HD
ENDBRANCH   1  13
BRANCH   4  18
ATOM     18  N   UNL     1       4.879   4.865  19.300  0.00  0.00    +0.000 N 
ATOM     19  C   UNL     1       6.062   5.573  19.354  0.00  0.00    +0.000 A 
ATOM     20  N   UNL     1       6.886   5.708  18.363  0.00  0.00    +0.000 NA
ATOM     21  C   UNL     1       6.467   5.125  17.150  0.00  0.00    +0.000 A 
ATOM     22  C   UNL     1       6.842   5.690  15.935  0.00  0.00    +0.000 A 
ATOM     23  C   UNL     1       6.312   5.195  14.738  0.00  0.00    +0.000 A 
ATOM     24  C   UNL     1       5.446   4.097  14.746  0.00  0.00    +0.000 A 
ATOM     25  C   UNL     1       5.069   3.516  15.957  0.00  0.00    +0.000 A 
ATOM     26  C   UNL     1       5.561   4.061  17.141  0.00  0.00    +0.000 A 
ATOM     27  C   UNL     1       4.943   3.751  18.455  0.00  0.00    +0.000 A 
ATOM     28  O   UNL     1       4.484   2.639  18.702  0.00  0.00    +0.000 OA
ENDBRANCH   4  18
TORSDOF 2
ENDMDL
MODEL 7
REMARK VINA RESULT:      -8.4      3.080      4.538
REMARK  Name = 
REMARK  3 active torsions:
REMARK  status: ('A' for Active; 'I' for Inactive)
REMARK    1  A    between atoms: C_1  and  C_2
REMARK    2  A    between atoms: C_7  and  C_9
REMARK    3  A    between atoms: C_12  and  N_13
REMARK                            x       y       z     vdW  Elec       q    Type
REMARK                         _______ _______ _______ _____ _____    ______ ____
ROOT
ATOM      1  C   UNL     1       1.386   9.064  19.052  0.00  0.00    +0.000 A 
ATOM      2  C   UNL     1       1.764   7.945  19.803  0.00  0.00    +0.000 A 
ATOM      3  C   UNL     1       2.706   7.053  19.287  0.00  0.00    +0.000 A 
ATOM      4  C   UNL     1       3.259   7.265  18.015  0.00  0.00    +0.000 A 
ATOM      5  C   UNL     1       3.033   8.492  17.370  0.00  0.00    +0.000 A 
ATOM      6  C   UNL     1       2.073   9.367  17.871  0.00  0.00    +0.000 A 
ENDROOT
BRANCH   1  13
ATOM      7  C   UNL     1      -5.610  12.730  18.251  0.00  0.00    +0.000 C 
ATOM      8  C   UNL     1      -4.402  11.853  18.306  0.00  0.00    +0.000 A 
ATOM      9  C   UNL     1      -4.267  10.719  17.507  0.00  0.00    +0.000 A 
ATOM     10  C   UNL     1      -3.110   9.945  17.599  0.00  0.00    +0.000 A 
ATOM     11  C   UNL     1      -2.113  10.328  18.486  0.00  0.00    +0.000 A 
ATOM     12  N   UNL     1      -0.939   9.561  18.520  0.00  0.00    +0.000 N 
ATOM     13  C   UNL     1       0.141   9.839  19.330  0.00  0.00    +0.000 C 
ATOM     14  O   UNL     1       0.196  10.670  20.229  0.00  0.00    +0.000 OA
ATOM     15  N   UNL     1      -2.233  11.416  19.264  0.00  0.00    +0.000 NA
ATOM     16  C   UNL     1      -3.359  12.149  19.169  0.00  0.00    +0.000 A 
ATOM     17  H   UNL     1      -0.896   8.771  17.897  0.00  0.00    +0.000 HD
ENDBRANCH   1  13
BRANCH   4  18
ATOM     18  N   UNL     1       3.702   6.110  17.257  0.00  0.00    +0.000 N 
ATOM     19  C   UNL     1       3.769   4.921  17.954  0.00  0.00    +0.000 A 
ATOM     20  N   UNL     1       4.841   4.454  18.512  0.00  0.00    +0.000 NA
ATOM     21  C   UNL     1       5.975   5.286  18.426  0.00  0.00    +0.000 A 
ATOM     22  C   UNL     1       6.927   5.280  19.442  0.00  0.00    +0.000 A 
ATOM     23  C   UNL     1       7.977   6.205  19.425  0.00  0.00    +0.000 A 
ATOM     24  C   UNL     1       8.111   7.106  18.363  0.00  0.00    +0.000 A 
ATOM     25  C   UNL     1       7.169   7.116  17.335  0.00  0.00    +0.000 A 
ATOM     26  C   UNL     1       6.098   6.227  17.401  0.00  0.00    +0.000 A 
ATOM     27  C   UNL     1       4.884   6.410  16.567  0.00  0.00    +0.000 A 
ATOM     28  O   UNL     1       4.951   6.850  15.423  0.00  0.00    +0.000 OA
ENDBRANCH   4  18
TORSDOF 2
ENDMDL
MODEL 8
REMARK VINA RESULT:      -8.4      2.117      3.708
REMARK  Name = 
REMARK  3 active torsions:
REMARK  status: ('A' for Active; 'I' for Inactive)
REMARK    1  A    between atoms: C_1  and  C_2
REMARK    2  A    between atoms: C_7  and  C_9
REMARK    3  A    between atoms: C_12  and  N_13
REMARK                            x       y       z     vdW  Elec       q    Type
REMARK                         _______ _______ _______ _____ _____    ______ ____
ROOT
ATOM      1  C   UNL     1       1.654   8.466  19.197  0.00  0.00    +0.000 A 
ATOM      2  C   UNL     1       1.808   7.727  20.376  0.00  0.00    +0.000 A 
ATOM      3  C   UNL     1       2.480   6.503  20.340  0.00  0.00    +0.000 A 
ATOM      4  C   UNL     1       2.981   6.006  19.128  0.00  0.00    +0.000 A 
ATOM      5  C   UNL     1       3.007   6.848  18.004  0.00  0.00    +0.000 A 
ATOM      6  C   UNL     1       2.313   8.055  18.033  0.00  0.00    +0.000 A 
ENDROOT
BRANCH   1  13
ATOM      7  C   UNL     1      -4.178  13.646  20.671  0.00  0.00    +0.000 C 
ATOM      8  C   UNL     1      -2.983  12.754  20.593  0.00  0.00    +0.000 A 
ATOM      9  C   UNL     1      -2.197  12.460  21.706  0.00  0.00    +0.000 A 
ATOM     10  C   UNL     1      -1.098  11.612  21.570  0.00  0.00    +0.000 A 
ATOM     11  C   UNL     1      -0.814  11.075  20.321  0.00  0.00    +0.000 A 
ATOM     12  N   UNL     1       0.266  10.185  20.224  0.00  0.00    +0.000 N 
ATOM     13  C   UNL     1       0.646   9.558  19.057  0.00  0.00    +0.000 C 
ATOM     14  O   UNL     1       0.225   9.780  17.928  0.00  0.00    +0.000 OA
ATOM     15  N   UNL     1      -1.560  11.354  19.240  0.00  0.00    +0.000 NA
ATOM     16  C   UNL     1      -2.614  12.180  19.387  0.00  0.00    +0.000 A 
ATOM     17  H   UNL     1       0.775   9.995  21.072  0.00  0.00    +0.000 HD
ENDBRANCH   1  13
BRANCH   4  18
ATOM     18  N   UNL     1       3.091   4.568  18.967  0.00  0.00    +0.000 N 
ATOM     19  C   UNL     1       4.064   3.950  19.726  0.00  0.00    +0.000 A 
ATOM     20  N   UNL     1       5.261   3.676  19.310  0.00  0.00    +0.000 NA
ATOM     21  C   UNL     1       5.559   4.118  18.005  0.00  0.00    +0.000 A 
ATOM     22  C   UNL     1       6.857   4.492  17.672  0.00  0.00    +0.000 A 
ATOM     23  C   UNL     1       7.124   5.063  16.422  0.00  0.00    +0.000 A 
ATOM     24  C   UNL     1       6.103   5.212  15.479  0.00  0.00    +0.000 A 
ATOM     25  C   UNL     1       4.799   4.833  15.796  0.00  0.00    +0.000 A 
ATOM     26  C   UNL     1       4.543   4.322  17.068  0.00  0.00    +0.000 A 
ATOM     27  C   UNL     1       3.163   4.238  17.608  0.00  0.00    +0.000 A 
ATOM     28  O   UNL     1       2.205   3.975  16.885  0.00  0.00    +0.000 OA
ENDBRANCH   4  18
TORSDOF 2
ENDMDL
MODEL 9
REMARK VINA RESULT:      -8.3      1.807      3.405
REMARK  Name = 
REMARK  3 active torsions:
REMARK  status: ('A' for Active; 'I' for Inactive)
REMARK    1  A    between atoms: C_1  and  C_2
REMARK    2  A    between atoms: C_7  and  C_9
REMARK    3  A    between atoms: C_12  and  N_13
REMARK                            x       y       z     vdW  Elec       q    Type
REMARK                         _______ _______ _______ _____ _____    ______ ____
ROOT
ATOM      1  C   UNL     1       2.227   7.417  18.404  0.00  0.00    +0.000 A 
ATOM      2  C   UNL     1       3.244   7.412  17.443  0.00  0.00    +0.000 A 
ATOM      3  C   UNL     1       3.830   6.202  17.065  0.00  0.00    +0.000 A 
ATOM      4  C   UNL     1       3.416   5.000  17.658  0.00  0.00    +0.000 A 
ATOM      5  C   UNL     1       2.261   4.995  18.456  0.00  0.00    +0.000 A 
ATOM      6  C   UNL     1       1.695   6.203  18.854  0.00  0.00    +0.000 A 
ENDROOT
BRANCH   1  13
ATOM      7  C   UNL     1      -1.481  12.473  23.275  0.00  0.00    +0.000 C 
ATOM      8  C   UNL     1      -0.756  11.386  22.551  0.00  0.00    +0.000 A 
ATOM      9  C   UNL     1      -0.668  10.087  23.049  0.00  0.00    +0.000 A 
ATOM     10  C   UNL     1       0.016   9.114  22.321  0.00  0.00    +0.000 A 
ATOM     11  C   UNL     1       0.592   9.464  21.107  0.00  0.00    +0.000 A 
ATOM     12  N   UNL     1       1.229   8.453  20.371  0.00  0.00    +0.000 N 
ATOM     13  C   UNL     1       1.821   8.650  19.141  0.00  0.00    +0.000 C 
ATOM     14  O   UNL     1       2.019   9.721  18.580  0.00  0.00    +0.000 OA
ATOM     15  N   UNL     1       0.519  10.713  20.617  0.00  0.00    +0.000 NA
ATOM     16  C   UNL     1      -0.140  11.643  21.336  0.00  0.00    +0.000 A 
ATOM     17  H   UNL     1       1.233   7.532  20.777  0.00  0.00    +0.000 HD
ENDBRANCH   1  13
BRANCH   4  18
ATOM     18  N   UNL     1       4.375   3.914  17.752  0.00  0.00    +0.000 N 
ATOM     19  C   UNL     1       4.817   3.610  19.023  0.00  0.00    +0.000 A 
ATOM     20  N   UNL     1       5.906   4.071  19.555  0.00  0.00    +0.000 NA
ATOM     21  C   UNL     1       6.618   4.993  18.761  0.00  0.00    +0.000 A 
ATOM     22  C   UNL     1       7.355   6.010  19.360  0.00  0.00    +0.000 A 
ATOM     23  C   UNL     1       7.945   7.006  18.573  0.00  0.00    +0.000 A 
ATOM     24  C   UNL     1       7.846   6.959  17.179  0.00  0.00    +0.000 A 
ATOM     25  C   UNL     1       7.118   5.940  16.566  0.00  0.00    +0.000 A 
ATOM     26  C   UNL     1       6.488   4.992  17.370  0.00  0.00    +0.000 A 
ATOM     27  C   UNL     1       5.419   4.110  16.840  0.00  0.00    +0.000 A 
ATOM     28  O   UNL     1       5.452   3.681  15.689  0.00  0.00    +0.000 OA
ENDBRANCH   4  18
TORSDOF 2
ENDMDL
