MODEL 1
REMARK VINA RESULT:      -9.1      0.000      0.000
REMARK  Name = 
REMARK  3 active torsions:
REMARK  status: ('A' for Active; 'I' for Inactive)
REMARK    1  A    between atoms: C_2  and  C_3
REMARK    2  A    between atoms: C_7  and  N_8
REMARK    3  A    between atoms: C_12  and  C_13
REMARK                            x       y       z     vdW  Elec       q    Type
REMARK                         _______ _______ _______ _____ _____    ______ ____
ROOT
ATOM      1  C   UNL     1       1.535   8.864  19.534  0.00  0.00    +0.000 A 
ATOM      2  C   UNL     1       2.045   9.140  18.261  0.00  0.00    +0.000 A 
ATOM      3  C   UNL     1       2.682   8.145  17.519  0.00  0.00    +0.000 A 
ATOM      4  C   UNL     1       2.898   6.890  18.083  0.00  0.00    +0.000 A 
ATOM      5  C   UNL     1       2.457   6.619  19.388  0.00  0.00    +0.000 A 
ATOM      6  C   UNL     1       1.782   7.609  20.112  0.00  0.00    +0.000 A 
ENDROOT
BRANCH   1   8
ATOM      7  O   UNL     1       0.889   9.786  21.569  0.00  0.00    +0.000 OA
ATOM      8  C   UNL     1       0.798   9.877  20.344  0.00  0.00    +0.000 C 
ATOM      9  N   UNL     1       0.032  10.872  19.736  0.00  0.00    +0.000 N 
ATOM     10  C   UNL     1      -0.501  11.956  20.572  0.00  0.00    +0.000 C 
ATOM     11  C   UNL     1      -2.016  12.064  20.420  0.00  0.00    +0.000 C 
ATOM     12  O   UNL     1      -2.356  12.190  19.033  0.00  0.00    +0.000 OA
ATOM     13  C   UNL     1      -1.851  11.117  18.189  0.00  0.00    +0.000 C 
ATOM     14  C   UNL     1      -2.646   9.777  18.236  0.00  0.00    +0.000 C 
ATOM     15  C   UNL     1      -3.455  10.282  17.027  0.00  0.00    +0.000 C 
ATOM     16  C   UNL     1      -2.281  11.216  16.696  0.00  0.00    +0.000 C 
ATOM     17  C   UNL     1      -0.329  10.971  18.316  0.00  0.00    +0.000 C 
ENDBRANCH   1   8
BRANCH   5  18
ATOM     18  N   UNL     1       2.747   5.343  19.952  0.00  0.00    +0.000 N 
ATOM     19  N   UNL     1       1.968   4.902  20.981  0.00  0.00    +0.000 NA
ATOM     20  C   UNL     1       2.253   3.609  21.087  0.00  0.00    +0.000 A 
ATOM     21  C   UNL     1       3.332   3.238  20.268  0.00  0.00    +0.000 A 
ATOM     22  C   UNL     1       3.713   4.390  19.599  0.00  0.00    +0.000 A 
BRANCH  22  23
ATOM     23  C   UNL     1       4.889   4.594  18.733  0.00  0.00    +0.000 A 
ATOM     24  C   UNL     1       6.019   5.259  19.227  0.00  0.00    +0.000 A 
ATOM     25  C   UNL     1       7.162   5.416  18.437  0.00  0.00    +0.000 A 
ATOM     26  C   UNL     1       7.197   4.897  17.146  0.00  0.00    +0.000 A 
ATOM     27  C   UNL     1       6.070   4.272  16.623  0.00  0.00    +0.000 A 
ATOM     28  C   UNL     1       4.913   4.160  17.397  0.00  0.00    +0.000 A 
ENDBRANCH  22  23
ENDBRANCH   5  18
TORSDOF 3
ENDMDL
MODEL 2
REMARK VINA RESULT:      -9.0      2.258      8.375
REMARK  Name = 
REMARK  3 active torsions:
REMARK  status: ('A' for Active; 'I' for Inactive)
REMARK    1  A    between atoms: C_2  and  C_3
REMARK    2  A    between atoms: C_7  and  N_8
REMARK    3  A    between atoms: C_12  and  C_13
REMARK                            x       y       z     vdW  Elec       q    Type
REMARK                         _______ _______ _______ _____ _____    ______ ____
ROOT
ATOM      1  C   UNL     1       1.827   8.218  19.455  0.00  0.00    +0.000 A 
ATOM      2  C   UNL     1       1.508   7.828  20.761  0.00  0.00    +0.000 A 
ATOM      3  C   UNL     1       0.788   8.678  21.601  0.00  0.00    +0.000 A 
ATOM      4  C   UNL     1       0.465   9.963  21.175  0.00  0.00    +0.000 A 
ATOM      5  C   UNL     1       0.843  10.397  19.894  0.00  0.00    +0.000 A 
ATOM      6  C   UNL     1       1.529   9.524  19.041  0.00  0.00    +0.000 A 
ENDROOT
BRANCH   1   8
ATOM      7  O   UNL     1       2.575   7.676  17.321  0.00  0.00    +0.000 OA
ATOM      8  C   UNL     1       2.546   7.324  18.501  0.00  0.00    +0.000 C 
ATOM      9  N   UNL     1       3.146   6.140  18.930  0.00  0.00    +0.000 N 
ATOM     10  C   UNL     1       4.007   5.410  17.990  0.00  0.00    +0.000 C 
ATOM     11  C   UNL     1       3.537   3.966  17.832  0.00  0.00    +0.000 C 
ATOM     12  O   UNL     1       3.438   3.345  19.120  0.00  0.00    +0.000 OA
ATOM     13  C   UNL     1       2.576   4.044  20.062  0.00  0.00    +0.000 C 
ATOM     14  C   UNL     1       1.043   3.834  19.871  0.00  0.00    +0.000 C 
ATOM     15  C   UNL     1       1.133   2.680  20.886  0.00  0.00    +0.000 C 
ATOM     16  C   UNL     1       2.412   3.330  21.436  0.00  0.00    +0.000 C 
ATOM     17  C   UNL     1       3.012   5.503  20.247  0.00  0.00    +0.000 C 
ENDBRANCH   1   8
BRANCH   5  18
ATOM     18  N   UNL     1       0.545  11.738  19.514  0.00  0.00    +0.000 N 
ATOM     19  N   UNL     1       1.410  12.721  19.893  0.00  0.00    +0.000 NA
ATOM     20  C   UNL     1       1.063  13.774  19.160  0.00  0.00    +0.000 A 
ATOM     21  C   UNL     1      -0.125  13.549  18.446  0.00  0.00    +0.000 A 
ATOM     22  C   UNL     1      -0.512  12.255  18.751  0.00  0.00    +0.000 A 
BRANCH  22  23
ATOM     23  C   UNL     1      -1.767  11.569  18.391  0.00  0.00    +0.000 A 
ATOM     24  C   UNL     1      -2.991  12.041  18.880  0.00  0.00    +0.000 A 
ATOM     25  C   UNL     1      -4.195  11.435  18.507  0.00  0.00    +0.000 A 
ATOM     26  C   UNL     1      -4.193  10.356  17.627  0.00  0.00    +0.000 A 
ATOM     27  C   UNL     1      -2.984   9.846  17.164  0.00  0.00    +0.000 A 
ATOM     28  C   UNL     1      -1.781  10.424  17.577  0.00  0.00    +0.000 A 
ENDBRANCH  22  23
ENDBRANCH   5  18
TORSDOF 3
ENDMDL
MODEL 3
REMARK VINA RESULT:      -8.9      2.394      4.394
REMARK  Name = 
REMARK  3 active torsions:
REMARK  status: ('A' for Active; 'I' for Inactive)
REMARK    1  A    between atoms: C_2  and  C_3
REMARK    2  A    between atoms: C_7  and  N_8
REMARK    3  A    between atoms: C_12  and  C_13
REMARK                            x       y       z     vdW  Elec       q    Type
REMARK                         _______ _______ _______ _____ _____    ______ ____
ROOT
ATOM      1  C   UNL     1       0.252   9.816  20.006  0.00  0.00    +0.000 A 
ATOM      2  C   UNL     1       0.118   9.329  21.311  0.00  0.00    +0.000 A 
ATOM      3  C   UNL     1       0.893   8.255  21.752  0.00  0.00    +0.000 A 
ATOM      4  C   UNL     1       1.740   7.600  20.863  0.00  0.00    +0.000 A 
ATOM      5  C   UNL     1       1.831   8.030  19.529  0.00  0.00    +0.000 A 
ATOM      6  C   UNL     1       1.081   9.133  19.104  0.00  0.00    +0.000 A 
ENDROOT
BRANCH   1   8
ATOM      7  O   UNL     1      -1.531  10.763  18.850  0.00  0.00    +0.000 OA
ATOM      8  C   UNL     1      -0.513  10.995  19.504  0.00  0.00    +0.000 C 
ATOM      9  N   UNL     1      -0.083  12.298  19.757  0.00  0.00    +0.000 N 
ATOM     10  C   UNL     1      -0.979  13.410  19.414  0.00  0.00    +0.000 C 
ATOM     11  C   UNL     1      -0.282  14.404  18.488  0.00  0.00    +0.000 C 
ATOM     12  O   UNL     1       0.957  14.825  19.073  0.00  0.00    +0.000 OA
ATOM     13  C   UNL     1       1.867  13.737  19.405  0.00  0.00    +0.000 C 
ATOM     14  C   UNL     1       2.666  13.127  18.214  0.00  0.00    +0.000 C 
ATOM     15  C   UNL     1       3.801  14.113  18.545  0.00  0.00    +0.000 C 
ATOM     16  C   UNL     1       3.241  14.199  19.973  0.00  0.00    +0.000 C 
ATOM     17  C   UNL     1       1.203  12.712  20.333  0.00  0.00    +0.000 C 
ENDBRANCH   1   8
BRANCH   5  18
ATOM     18  N   UNL     1       2.664   7.299  18.634  0.00  0.00    +0.000 N 
ATOM     19  N   UNL     1       3.271   7.978  17.619  0.00  0.00    +0.000 NA
ATOM     20  C   UNL     1       4.195   7.142  17.161  0.00  0.00    +0.000 A 
ATOM     21  C   UNL     1       4.083   5.866  17.737  0.00  0.00    +0.000 A 
ATOM     22  C   UNL     1       3.025   5.944  18.628  0.00  0.00    +0.000 A 
BRANCH  22  23
ATOM     23  C   UNL     1       2.386   4.850  19.383  0.00  0.00    +0.000 A 
ATOM     24  C   UNL     1       2.734   4.623  20.721  0.00  0.00    +0.000 A 
ATOM     25  C   UNL     1       2.101   3.624  21.468  0.00  0.00    +0.000 A 
ATOM     26  C   UNL     1       1.100   2.847  20.891  0.00  0.00    +0.000 A 
ATOM     27  C   UNL     1       0.772   3.029  19.551  0.00  0.00    +0.000 A 
ATOM     28  C   UNL     1       1.440   3.995  18.795  0.00  0.00    +0.000 A 
ENDBRANCH  22  23
ENDBRANCH   5  18
TORSDOF 3
ENDMDL
MODEL 4
REMARK VINA RESULT:      -8.9      2.809      7.963
REMARK  Name = 
REMARK  3 active torsions:
REMARK  status: ('A' for Active; 'I' for Inactive)
REMARK    1  A    between atoms: C_2  and  C_3
REMARK    2  A    between atoms: C_7  and  N_8
REMARK    3  A    between atoms: C_12  and  C_13
REMARK                            x       y       z     vdW  Elec       q    Type
REMARK                         _______ _______ _______ _____ _____    ______ ____
ROOT
ATOM      1  C   UNL     1       2.204   7.888  19.072  0.00  0.00    +0.000 A 
ATOM      2  C   UNL     1       2.017   7.650  20.438  0.00  0.00    +0.000 A 
ATOM      3  C   UNL     1       1.041   8.345  21.154  0.00  0.00    +0.000 A 
ATOM      4  C   UNL     1       0.308   9.350  20.530  0.00  0.00    +0.000 A 
ATOM      5  C   UNL     1       0.534   9.653  19.178  0.00  0.00    +0.000 A 
ATOM      6  C   UNL     1       1.486   8.925  18.455  0.00  0.00    +0.000 A 
ENDROOT
BRANCH   1   8
ATOM      7  O   UNL     1       3.662   7.713  17.269  0.00  0.00    +0.000 OA
ATOM      8  C   UNL     1       3.195   7.134  18.251  0.00  0.00    +0.000 C 
ATOM      9  N   UNL     1       3.563   5.829  18.579  0.00  0.00    +0.000 N 
ATOM     10  C   UNL     1       4.686   5.215  17.858  0.00  0.00    +0.000 C 
ATOM     11  C   UNL     1       4.266   3.894  17.220  0.00  0.00    +0.000 C 
ATOM     12  O   UNL     1       3.686   3.039  18.214  0.00  0.00    +0.000 OA
ATOM     13  C   UNL     1       2.560   3.622  18.929  0.00  0.00    +0.000 C 
ATOM     14  C   UNL     1       1.197   3.625  18.173  0.00  0.00    +0.000 C 
ATOM     15  C   UNL     1       0.878   2.285  18.862  0.00  0.00    +0.000 C 
ATOM     16  C   UNL     1       1.886   2.667  19.957  0.00  0.00    +0.000 C 
ATOM     17  C   UNL     1       2.940   4.957  19.583  0.00  0.00    +0.000 C 
ENDBRANCH   1   8
BRANCH   5  18
ATOM     18  N   UNL     1      -0.194  10.727  18.590  0.00  0.00    +0.000 N 
ATOM     19  N   UNL     1      -1.316  10.428  17.875  0.00  0.00    +0.000 NA
ATOM     20  C   UNL     1      -1.938  11.592  17.723  0.00  0.00    +0.000 A 
ATOM     21  C   UNL     1      -1.153  12.669  18.168  0.00  0.00    +0.000 A 
ATOM     22  C   UNL     1       0.020  12.111  18.646  0.00  0.00    +0.000 A 
BRANCH  22  23
ATOM     23  C   UNL     1       1.246  12.804  19.087  0.00  0.00    +0.000 A 
ATOM     24  C   UNL     1       2.183  13.245  18.144  0.00  0.00    +0.000 A 
ATOM     25  C   UNL     1       3.324  13.948  18.540  0.00  0.00    +0.000 A 
ATOM     26  C   UNL     1       3.538  14.234  19.886  0.00  0.00    +0.000 A 
ATOM     27  C   UNL     1       2.641  13.768  20.841  0.00  0.00    +0.000 A 
ATOM     28  C   UNL     1       1.527  13.023  20.446  0.00  0.00    +0.000 A 
ENDBRANCH  22  23
ENDBRANCH   5  18
TORSDOF 3
ENDMDL
MODEL 5
REMARK VINA RESULT:      -8.9      2.034      3.655
REMARK  Name = 
REMARK  3 active torsions:
REMARK  status: ('A' for Active; 'I' for Inactive)
REMARK    1  A    between atoms: C_2  and  C_3
REMARK    2  A    between atoms: C_7  and  N_8
REMARK    3  A    between atoms: C_12  and  C_13
REMARK                            x       y       z     vdW  Elec       q    Type
REMARK                         _______ _______ _______ _____ _____    ______ ____
ROOT
ATOM      1  C   UNL     1       1.402   8.400  19.840  0.00  0.00    +0.000 A 
ATOM      2  C   UNL     1       1.267   9.304  18.780  0.00  0.00    +0.000 A 
ATOM      3  C   UNL     1       1.961   9.107  17.585  0.00  0.00    +0.000 A 
ATOM      4  C   UNL     1       2.868   8.057  17.475  0.00  0.00    +0.000 A 
ATOM      5  C   UNL     1       3.070   7.184  18.557  0.00  0.00    +0.000 A 
ATOM      6  C   UNL     1       2.341   7.363  19.738  0.00  0.00    +0.000 A 
ENDROOT
BRANCH   1   8
ATOM      7  O   UNL     1       0.107   7.518  21.559  0.00  0.00    +0.000 OA
ATOM      8  C   UNL     1       0.640   8.536  21.116  0.00  0.00    +0.000 C 
ATOM      9  N   UNL     1       0.531   9.766  21.766  0.00  0.00    +0.000 N 
ATOM     10  C   UNL     1      -0.055   9.796  23.113  0.00  0.00    +0.000 C 
ATOM     11  C   UNL     1      -1.232  10.767  23.172  0.00  0.00    +0.000 C 
ATOM     12  O   UNL     1      -0.822  12.055  22.695  0.00  0.00    +0.000 OA
ATOM     13  C   UNL     1      -0.254  12.049  21.354  0.00  0.00    +0.000 C 
ATOM     14  C   UNL     1      -1.276  11.966  20.179  0.00  0.00    +0.000 C 
ATOM     15  C   UNL     1      -1.254  13.505  20.129  0.00  0.00    +0.000 C 
ATOM     16  C   UNL     1       0.123  13.457  20.809  0.00  0.00    +0.000 C 
ATOM     17  C   UNL     1       0.931  11.081  21.250  0.00  0.00    +0.000 C 
ENDBRANCH   1   8
BRANCH   5  18
ATOM     18  N   UNL     1       4.049   6.157  18.427  0.00  0.00    +0.000 N 
ATOM     19  N   UNL     1       5.242   6.474  17.847  0.00  0.00    +0.000 NA
ATOM     20  C   UNL     1       6.039   5.451  18.138  0.00  0.00    +0.000 A 
ATOM     21  C   UNL     1       5.339   4.393  18.739  0.00  0.00    +0.000 A 
ATOM     22  C   UNL     1       4.025   4.818  18.842  0.00  0.00    +0.000 A 
BRANCH  22  23
ATOM     23  C   UNL     1       2.844   4.038  19.259  0.00  0.00    +0.000 A 
ATOM     24  C   UNL     1       2.552   3.878  20.620  0.00  0.00    +0.000 A 
ATOM     25  C   UNL     1       1.409   3.186  21.033  0.00  0.00    +0.000 A 
ATOM     26  C   UNL     1       0.533   2.657  20.089  0.00  0.00    +0.000 A 
ATOM     27  C   UNL     1       0.828   2.768  18.735  0.00  0.00    +0.000 A 
ATOM     28  C   UNL     1       1.996   3.418  18.327  0.00  0.00    +0.000 A 
ENDBRANCH  22  23
ENDBRANCH   5  18
TORSDOF 3
ENDMDL
MODEL 6
REMARK VINA RESULT:      -8.9      2.281      8.379
REMARK  Name = 
REMARK  3 active torsions:
REMARK  status: ('A' for Active; 'I' for Inactive)
REMARK    1  A    between atoms: C_2  and  C_3
REMARK    2  A    between atoms: C_7  and  N_8
REMARK    3  A    between atoms: C_12  and  C_13
REMARK                            x       y       z     vdW  Elec       q    Type
REMARK                         _______ _______ _______ _____ _____    ______ ____
ROOT
ATOM      1  C   UNL     1       2.006   8.248  19.096  0.00  0.00    +0.000 A 
ATOM      2  C   UNL     1       1.638   7.738  20.346  0.00  0.00    +0.000 A 
ATOM      3  C   UNL     1       0.839   8.486  21.211  0.00  0.00    +0.000 A 
ATOM      4  C   UNL     1       0.481   9.788  20.874  0.00  0.00    +0.000 A 
ATOM      5  C   UNL     1       0.904  10.342  19.655  0.00  0.00    +0.000 A 
ATOM      6  C   UNL     1       1.671   9.573  18.773  0.00  0.00    +0.000 A 
ENDROOT
BRANCH   1   8
ATOM      7  O   UNL     1       2.906   7.931  16.975  0.00  0.00    +0.000 OA
ATOM      8  C   UNL     1       2.812   7.468  18.112  0.00  0.00    +0.000 C 
ATOM      9  N   UNL     1       3.419   6.263  18.468  0.00  0.00    +0.000 N 
ATOM     10  C   UNL     1       4.360   5.647  17.524  0.00  0.00    +0.000 C 
ATOM     11  C   UNL     1       3.947   4.213  17.201  0.00  0.00    +0.000 C 
ATOM     12  O   UNL     1       3.784   3.471  18.416  0.00  0.00    +0.000 OA
ATOM     13  C   UNL     1       2.841   4.056  19.359  0.00  0.00    +0.000 C 
ATOM     14  C   UNL     1       1.331   3.828  19.047  0.00  0.00    +0.000 C 
ATOM     15  C   UNL     1       1.391   2.585  19.953  0.00  0.00    +0.000 C 
ATOM     16  C   UNL     1       2.611   3.211  20.646  0.00  0.00    +0.000 C 
ATOM     17  C   UNL     1       3.219   5.501  19.708  0.00  0.00    +0.000 C 
ENDBRANCH   1   8
BRANCH   5  18
ATOM     18  N   UNL     1       0.566  11.697  19.371  0.00  0.00    +0.000 N 
ATOM     19  N   UNL     1       1.416  12.675  19.796  0.00  0.00    +0.000 NA
ATOM     20  C   UNL     1       1.029  13.764  19.141  0.00  0.00    +0.000 A 
ATOM     21  C   UNL     1      -0.169  13.557  18.437  0.00  0.00    +0.000 A 
ATOM     22  C   UNL     1      -0.517  12.236  18.663  0.00  0.00    +0.000 A 
BRANCH  22  23
ATOM     23  C   UNL     1      -1.763  11.544  18.283  0.00  0.00    +0.000 A 
ATOM     24  C   UNL     1      -1.716  10.417  17.452  0.00  0.00    +0.000 A 
ATOM     25  C   UNL     1      -2.881   9.718  17.123  0.00  0.00    +0.000 A 
ATOM     26  C   UNL     1      -4.111  10.127  17.633  0.00  0.00    +0.000 A 
ATOM     27  C   UNL     1      -4.183  11.268  18.425  0.00  0.00    +0.000 A 
ATOM     28  C   UNL     1      -3.023  11.993  18.711  0.00  0.00    +0.000 A 
ENDBRANCH  22  23
ENDBRANCH   5  18
TORSDOF 3
ENDMDL
MODEL 7
REMARK VINA RESULT:      -8.9      0.733      1.189
REMARK  Name = 
REMARK  3 active torsions:
REMARK  status: ('A' for Active; 'I' for Inactive)
REMARK    1  A    between atoms: C_2  and  C_3
REMARK    2  A    between atoms: C_7  and  N_8
REMARK    3  A    between atoms: C_12  and  C_13
REMARK                            x       y       z     vdW  Elec       q    Type
REMARK                         _______ _______ _______ _____ _____    ______ ____
ROOT
ATOM      1  C   UNL     1       1.559   8.460  19.992  0.00  0.00    +0.000 A 
ATOM      2  C   UNL     1       1.908   8.856  18.696  0.00  0.00    +0.000 A 
ATOM      3  C   UNL     1       2.480   7.947  17.804  0.00  0.00    +0.000 A 
ATOM      4  C   UNL     1       2.794   6.660  18.232  0.00  0.00    +0.000 A 
ATOM      5  C   UNL     1       2.517   6.269  19.552  0.00  0.00    +0.000 A 
ATOM      6  C   UNL     1       1.906   7.173  20.430  0.00  0.00    +0.000 A 
ENDROOT
BRANCH   1   8
ATOM      7  O   UNL     1       0.815   8.992  22.130  0.00  0.00    +0.000 OA
ATOM      8  C   UNL     1       0.896   9.378  20.963  0.00  0.00    +0.000 C 
ATOM      9  N   UNL     1       0.382  10.611  20.559  0.00  0.00    +0.000 N 
ATOM     10  C   UNL     1      -0.074  11.552  21.591  0.00  0.00    +0.000 C 
ATOM     11  C   UNL     1      -1.520  11.971  21.343  0.00  0.00    +0.000 C 
ATOM     12  O   UNL     1      -1.656  12.474  20.008  0.00  0.00    +0.000 OA
ATOM     13  C   UNL     1      -1.226  11.550  18.969  0.00  0.00    +0.000 C 
ATOM     14  C   UNL     1      -2.224  10.406  18.613  0.00  0.00    +0.000 C 
ATOM     15  C   UNL     1      -2.782  11.317  17.504  0.00  0.00    +0.000 C 
ATOM     16  C   UNL     1      -1.442  12.068  17.517  0.00  0.00    +0.000 C 
ATOM     17  C   UNL     1       0.225  11.099  19.183  0.00  0.00    +0.000 C 
ENDBRANCH   1   8
BRANCH   5  18
ATOM     18  N   UNL     1       2.905   4.963  19.970  0.00  0.00    +0.000 N 
ATOM     19  N   UNL     1       2.186   4.365  20.962  0.00  0.00    +0.000 NA
ATOM     20  C   UNL     1       2.557   3.090  20.923  0.00  0.00    +0.000 A 
ATOM     21  C   UNL     1       3.636   2.882  20.047  0.00  0.00    +0.000 A 
ATOM     22  C   UNL     1       3.921   4.121  19.498  0.00  0.00    +0.000 A 
BRANCH  22  23
ATOM     23  C   UNL     1       5.057   4.495  18.634  0.00  0.00    +0.000 A 
ATOM     24  C   UNL     1       5.087   4.085  17.295  0.00  0.00    +0.000 A 
ATOM     25  C   UNL     1       6.130   4.473  16.448  0.00  0.00    +0.000 A 
ATOM     26  C   UNL     1       7.151   5.291  16.925  0.00  0.00    +0.000 A 
ATOM     27  C   UNL     1       7.161   5.673  18.262  0.00  0.00    +0.000 A 
ATOM     28  C   UNL     1       6.143   5.243  19.117  0.00  0.00    +0.000 A 
ENDBRANCH  22  23
ENDBRANCH   5  18
TORSDOF 3
ENDMDL
MODEL 8
REMARK VINA RESULT:      -8.7      2.435      4.380
REMARK  Name = 
REMARK  3 active torsions:
REMARK  status: ('A' for Active; 'I' for Inactive)
REMARK    1  A    between atoms: C_2  and  C_3
REMARK    2  A    between atoms: C_7  and  N_8
REMARK    3  A    between atoms: C_12  and  C_13
REMARK                            x       y       z     vdW  Elec       q    Type
REMARK                         _______ _______ _______ _____ _____    ______ ____
ROOT
ATOM      1  C   UNL     1       0.517   9.536  19.516  0.00  0.00    +0.000 A 
ATOM      2  C   UNL     1       0.379   9.057  20.824  0.00  0.00    +0.000 A 
ATOM      3  C   UNL     1       1.182   8.014  21.288  0.00  0.00    +0.000 A 
ATOM      4  C   UNL     1       2.063   7.378  20.418  0.00  0.00    +0.000 A 
ATOM      5  C   UNL     1       2.160   7.798  19.082  0.00  0.00    +0.000 A 
ATOM      6  C   UNL     1       1.382   8.872  18.633  0.00  0.00    +0.000 A 
ENDROOT
BRANCH   1   8
ATOM      7  O   UNL     1      -1.162  10.423  18.174  0.00  0.00    +0.000 OA
ATOM      8  C   UNL     1      -0.278  10.684  18.991  0.00  0.00    +0.000 C 
ATOM      9  N   UNL     1      -0.018  11.993  19.401  0.00  0.00    +0.000 N 
ATOM     10  C   UNL     1      -0.959  13.050  19.008  0.00  0.00    +0.000 C 
ATOM     11  C   UNL     1      -0.235  14.176  18.275  0.00  0.00    +0.000 C 
ATOM     12  O   UNL     1       0.858  14.648  19.072  0.00  0.00    +0.000 OA
ATOM     13  C   UNL     1       1.812  13.619  19.458  0.00  0.00    +0.000 C 
ATOM     14  C   UNL     1       2.832  13.184  18.362  0.00  0.00    +0.000 C 
ATOM     15  C   UNL     1       3.804  14.231  18.934  0.00  0.00    +0.000 C 
ATOM     16  C   UNL     1       3.037  14.145  20.262  0.00  0.00    +0.000 C 
ATOM     17  C   UNL     1       1.123  12.463  20.196  0.00  0.00    +0.000 C 
ENDBRANCH   1   8
BRANCH   5  18
ATOM     18  N   UNL     1       3.031   7.086  18.207  0.00  0.00    +0.000 N 
ATOM     19  N   UNL     1       3.735   7.796  17.280  0.00  0.00    +0.000 NA
ATOM     20  C   UNL     1       4.660   6.951  16.840  0.00  0.00    +0.000 A 
ATOM     21  C   UNL     1       4.459   5.649  17.329  0.00  0.00    +0.000 A 
ATOM     22  C   UNL     1       3.342   5.720  18.145  0.00  0.00    +0.000 A 
BRANCH  22  23
ATOM     23  C   UNL     1       2.609   4.612  18.786  0.00  0.00    +0.000 A 
ATOM     24  C   UNL     1       1.516   4.023  18.137  0.00  0.00    +0.000 A 
ATOM     25  C   UNL     1       0.842   2.938  18.706  0.00  0.00    +0.000 A 
ATOM     26  C   UNL     1       1.262   2.415  19.926  0.00  0.00    +0.000 A 
ATOM     27  C   UNL     1       2.318   3.013  20.606  0.00  0.00    +0.000 A 
ATOM     28  C   UNL     1       2.958   4.127  20.058  0.00  0.00    +0.000 A 
ENDBRANCH  22  23
ENDBRANCH   5  18
TORSDOF 3
ENDMDL
MODEL 9
REMARK VINA RESULT:      -8.7      1.497      2.097
REMARK  Name = 
REMARK  3 active torsions:
REMARK  status: ('A' for Active; 'I' for Inactive)
REMARK    1  A    between atoms: C_2  and  C_3
REMARK    2  A    between atoms: C_7  and  N_8
REMARK    3  A    between atoms: C_12  and  C_13
REMARK                            x       y       z     vdW  Elec       q    Type
REMARK                         _______ _______ _______ _____ _____    ______ ____
ROOT
ATOM      1  C   UNL     1       1.229   8.205  20.164  0.00  0.00    +0.000 A 
ATOM      2  C   UNL     1       1.680   8.828  18.995  0.00  0.00    +0.000 A 
ATOM      3  C   UNL     1       2.486   8.140  18.088  0.00  0.00    +0.000 A 
ATOM      4  C   UNL     1       2.927   6.855  18.389  0.00  0.00    +0.000 A 
ATOM      5  C   UNL     1       2.545   6.242  19.593  0.00  0.00    +0.000 A 
ATOM      6  C   UNL     1       1.702   6.922  20.480  0.00  0.00    +0.000 A 
ENDROOT
BRANCH   1   8
ATOM      7  O   UNL     1      -0.465   8.160  21.757  0.00  0.00    +0.000 OA
ATOM      8  C   UNL     1       0.321   8.879  21.137  0.00  0.00    +0.000 C 
ATOM      9  N   UNL     1       0.357  10.261  21.324  0.00  0.00    +0.000 N 
ATOM     10  C   UNL     1      -0.413  10.838  22.434  0.00  0.00    +0.000 C 
ATOM     11  C   UNL     1      -1.369  11.916  21.929  0.00  0.00    +0.000 C 
ATOM     12  O   UNL     1      -0.644  12.889  21.166  0.00  0.00    +0.000 OA
ATOM     13  C   UNL     1       0.113  12.339  20.050  0.00  0.00    +0.000 C 
ATOM     14  C   UNL     1      -0.710  11.988  18.773  0.00  0.00    +0.000 C 
ATOM     15  C   UNL     1      -0.376  13.394  18.243  0.00  0.00    +0.000 C 
ATOM     16  C   UNL     1       0.841  13.404  19.180  0.00  0.00    +0.000 C 
ATOM     17  C   UNL     1       1.085  11.247  20.515  0.00  0.00    +0.000 C 
ENDBRANCH   1   8
BRANCH   5  18
ATOM     18  N   UNL     1       3.063   4.949  19.892  0.00  0.00    +0.000 N 
ATOM     19  N   UNL     1       2.427   4.205  20.842  0.00  0.00    +0.000 NA
ATOM     20  C   UNL     1       2.914   2.978  20.689  0.00  0.00    +0.000 A 
ATOM     21  C   UNL     1       3.985   2.946  19.781  0.00  0.00    +0.000 A 
ATOM     22  C   UNL     1       4.140   4.248  19.333  0.00  0.00    +0.000 A 
BRANCH  22  23
ATOM     23  C   UNL     1       5.215   4.798  18.486  0.00  0.00    +0.000 A 
ATOM     24  C   UNL     1       5.223   4.544  17.108  0.00  0.00    +0.000 A 
ATOM     25  C   UNL     1       6.204   5.100  16.281  0.00  0.00    +0.000 A 
ATOM     26  C   UNL     1       7.184   5.930  16.818  0.00  0.00    +0.000 A 
ATOM     27  C   UNL     1       7.218   6.158  18.190  0.00  0.00    +0.000 A 
ATOM     28  C   UNL     1       6.265   5.562  19.019  0.00  0.00    +0.000 A 
ENDBRANCH  22  23
ENDBRANCH   5  18
TORSDOF 3
ENDMDL
