MODEL 1
REMARK VINA RESULT:      -8.5      0.000      0.000
REMARK  Name = 
REMARK  3 active torsions:
REMARK  status: ('A' for Active; 'I' for Inactive)
REMARK    1  A    between atoms: C_8  and  C_9
REMARK    2  A    between atoms: C_9  and  N_10
REMARK    3  A    between atoms: C_13  and  C_14
REMARK                            x       y       z     vdW  Elec       q    Type
REMARK                         _______ _______ _______ _____ _____    ______ ____
ROOT
ATOM      1  N   UNL     1       1.813   7.306  19.247  0.00  0.00    +0.000 NA
ATOM      2  C   UNL     1       2.237   6.781  17.948  0.00  0.00    +0.000 C 
ATOM      3  C   UNL     1       2.141   5.254  17.852  0.00  0.00    +0.000 C 
ATOM      4  C   UNL     1       2.899   4.549  18.978  0.00  0.00    +0.000 C 
ATOM      5  C   UNL     1       2.380   5.104  20.315  0.00  0.00    +0.000 C 
ATOM      6  C   UNL     1       2.434   6.636  20.395  0.00  0.00    +0.000 C 
ENDROOT
BRANCH   4   7
ATOM      7  C   UNL     1       4.396   4.690  18.855  0.00  0.00    +0.000 A 
ATOM      8  N   UNL     1       5.215   5.025  19.834  0.00  0.00    +0.000 NA
ATOM      9  N   UNL     1       6.498   5.050  19.363  0.00  0.00    +0.000 NA
ATOM     10  C   UNL     1       6.458   4.727  18.093  0.00  0.00    +0.000 A 
ATOM     11  N   UNL     1       5.157   4.484  17.729  0.00  0.00    +0.000 N 
ATOM     12  C   UNL     1       4.752   4.155  16.380  0.00  0.00    +0.000 C 
ATOM     13  C   UNL     1       5.934   3.758  15.481  0.00  0.00    +0.000 C 
ATOM     14  C   UNL     1       7.142   4.672  15.707  0.00  0.00    +0.000 C 
ATOM     15  C   UNL     1       7.603   4.593  17.161  0.00  0.00    +0.000 C 
ENDBRANCH   4   7
BRANCH   1  16
ATOM     16  C   UNL     1       1.922   8.780  19.325  0.00  0.00    +0.000 C 
BRANCH  16  24
ATOM     17  O   UNL     1      -3.659  11.124  15.386  0.00  0.00    +0.000 OA
ATOM     18  C   UNL     1      -3.092  11.055  16.475  0.00  0.00    +0.000 C 
ATOM     19  C   UNL     1      -3.689  11.610  17.767  0.00  0.00    +0.000 C 
ATOM     20  O   UNL     1      -2.826  11.922  18.853  0.00  0.00    +0.000 OA
ATOM     21  C   UNL     1      -1.713  11.126  18.924  0.00  0.00    +0.000 A 
ATOM     22  C   UNL     1      -1.003  11.142  20.121  0.00  0.00    +0.000 A 
ATOM     23  C   UNL     1       0.170  10.379  20.252  0.00  0.00    +0.000 A 
ATOM     24  C   UNL     1       0.648   9.599  19.190  0.00  0.00    +0.000 A 
ATOM     25  C   UNL     1      -0.068   9.616  17.979  0.00  0.00    +0.000 A 
ATOM     26  C   UNL     1      -1.238  10.370  17.852  0.00  0.00    +0.000 A 
ATOM     27  N   UNL     1      -1.905  10.396  16.626  0.00  0.00    +0.000 N 
ATOM     28  H   UNL     1      -1.525   9.930  15.814  0.00  0.00    +0.000 HD
ENDBRANCH  16  24
ENDBRANCH   1  16
TORSDOF 3
ENDMDL
MODEL 2
REMARK VINA RESULT:      -8.2      2.234      2.704
REMARK  Name = 
REMARK  3 active torsions:
REMARK  status: ('A' for Active; 'I' for Inactive)
REMARK    1  A    between atoms: C_8  and  C_9
REMARK    2  A    between atoms: C_9  and  N_10
REMARK    3  A    between atoms: C_13  and  C_14
REMARK                            x       y       z     vdW  Elec       q    Type
REMARK                         _______ _______ _______ _____ _____    ______ ____
ROOT
ATOM      1  N   UNL     1       1.846   6.905  19.307  0.00  0.00    +0.000 NA
ATOM      2  C   UNL     1       2.232   6.379  17.997  0.00  0.00    +0.000 C 
ATOM      3  C   UNL     1       2.202   4.848  17.927  0.00  0.00    +0.000 C 
ATOM      4  C   UNL     1       3.044   4.196  19.025  0.00  0.00    +0.000 C 
ATOM      5  C   UNL     1       2.564   4.749  20.378  0.00  0.00    +0.000 C 
ATOM      6  C   UNL     1       2.551   6.283  20.433  0.00  0.00    +0.000 C 
ENDROOT
BRANCH   4   7
ATOM      7  C   UNL     1       4.525   4.403  18.828  0.00  0.00    +0.000 A 
ATOM      8  N   UNL     1       5.391   4.687  19.784  0.00  0.00    +0.000 NA
ATOM      9  N   UNL     1       6.641   4.798  19.243  0.00  0.00    +0.000 NA
ATOM     10  C   UNL     1       6.535   4.580  17.955  0.00  0.00    +0.000 A 
ATOM     11  N   UNL     1       5.223   4.318  17.647  0.00  0.00    +0.000 N 
ATOM     12  C   UNL     1       4.748   4.085  16.301  0.00  0.00    +0.000 C 
ATOM     13  C   UNL     1       5.886   3.808  15.306  0.00  0.00    +0.000 C 
ATOM     14  C   UNL     1       7.075   4.745  15.538  0.00  0.00    +0.000 C 
ATOM     15  C   UNL     1       7.625   4.565  16.951  0.00  0.00    +0.000 C 
ENDBRANCH   4   7
BRANCH   1  16
ATOM     16  C   UNL     1       1.891   8.384  19.359  0.00  0.00    +0.000 C 
BRANCH  16  24
ATOM     17  O   UNL     1      -2.860  13.449  21.345  0.00  0.00    +0.000 OA
ATOM     18  C   UNL     1      -2.170  12.475  21.643  0.00  0.00    +0.000 C 
ATOM     19  C   UNL     1      -2.212  11.807  23.016  0.00  0.00    +0.000 C 
ATOM     20  O   UNL     1      -1.102  11.029  23.444  0.00  0.00    +0.000 OA
ATOM     21  C   UNL     1      -0.433  10.407  22.423  0.00  0.00    +0.000 A 
ATOM     22  C   UNL     1       0.440   9.381  22.775  0.00  0.00    +0.000 A 
ATOM     23  C   UNL     1       1.188   8.724  21.783  0.00  0.00    +0.000 A 
ATOM     24  C   UNL     1       1.076   9.087  20.434  0.00  0.00    +0.000 A 
ATOM     25  C   UNL     1       0.208  10.142  20.100  0.00  0.00    +0.000 A 
ATOM     26  C   UNL     1      -0.539  10.791  21.086  0.00  0.00    +0.000 A 
ATOM     27  N   UNL     1      -1.363  11.860  20.728  0.00  0.00    +0.000 N 
ATOM     28  H   UNL     1      -1.381  12.212  19.781  0.00  0.00    +0.000 HD
ENDBRANCH  16  24
ENDBRANCH   1  16
TORSDOF 3
ENDMDL
MODEL 3
REMARK VINA RESULT:      -8.1      2.189      3.009
REMARK  Name = 
REMARK  3 active torsions:
REMARK  status: ('A' for Active; 'I' for Inactive)
REMARK    1  A    between atoms: C_8  and  C_9
REMARK    2  A    between atoms: C_9  and  N_10
REMARK    3  A    between atoms: C_13  and  C_14
REMARK                            x       y       z     vdW  Elec       q    Type
REMARK                         _______ _______ _______ _____ _____    ______ ____
ROOT
ATOM      1  N   UNL     1       1.650   6.947  20.147  0.00  0.00    +0.000 NA
ATOM      2  C   UNL     1       2.227   7.231  18.832  0.00  0.00    +0.000 C 
ATOM      3  C   UNL     1       2.078   6.071  17.842  0.00  0.00    +0.000 C 
ATOM      4  C   UNL     1       2.640   4.758  18.392  0.00  0.00    +0.000 C 
ATOM      5  C   UNL     1       1.965   4.487  19.747  0.00  0.00    +0.000 C 
ATOM      6  C   UNL     1       2.075   5.668  20.723  0.00  0.00    +0.000 C 
ENDROOT
BRANCH   4   7
ATOM      7  C   UNL     1       4.144   4.767  18.506  0.00  0.00    +0.000 A 
ATOM      8  N   UNL     1       4.824   4.937  19.624  0.00  0.00    +0.000 NA
ATOM      9  N   UNL     1       6.163   4.880  19.353  0.00  0.00    +0.000 NA
ATOM     10  C   UNL     1       6.296   4.674  18.066  0.00  0.00    +0.000 A 
ATOM     11  N   UNL     1       5.052   4.587  17.490  0.00  0.00    +0.000 N 
ATOM     12  C   UNL     1       4.838   4.416  16.070  0.00  0.00    +0.000 C 
ATOM     13  C   UNL     1       6.110   3.988  15.321  0.00  0.00    +0.000 C 
ATOM     14  C   UNL     1       7.338   4.760  15.814  0.00  0.00    +0.000 C 
ATOM     15  C   UNL     1       7.558   4.513  17.304  0.00  0.00    +0.000 C 
ENDBRANCH   4   7
BRANCH   1  16
ATOM     16  C   UNL     1       1.812   8.075  21.092  0.00  0.00    +0.000 C 
BRANCH  16  24
ATOM     17  O   UNL     1      -3.163  12.375  24.080  0.00  0.00    +0.000 OA
ATOM     18  C   UNL     1      -2.442  12.104  23.121  0.00  0.00    +0.000 C 
ATOM     19  C   UNL     1      -2.339  12.981  21.875  0.00  0.00    +0.000 C 
ATOM     20  O   UNL     1      -1.887  12.406  20.656  0.00  0.00    +0.000 OA
ATOM     21  C   UNL     1      -0.991  11.384  20.823  0.00  0.00    +0.000 A 
ATOM     22  C   UNL     1      -0.259  10.998  19.703  0.00  0.00    +0.000 A 
ATOM     23  C   UNL     1       0.650   9.931  19.792  0.00  0.00    +0.000 A 
ATOM     24  C   UNL     1       0.835   9.236  20.995  0.00  0.00    +0.000 A 
ATOM     25  C   UNL     1       0.069   9.623  22.110  0.00  0.00    +0.000 A 
ATOM     26  C   UNL     1      -0.831  10.688  22.022  0.00  0.00    +0.000 A 
ATOM     27  N   UNL     1      -1.605  11.023  23.135  0.00  0.00    +0.000 N 
ATOM     28  H   UNL     1      -1.571  10.473  23.981  0.00  0.00    +0.000 HD
ENDBRANCH  16  24
ENDBRANCH   1  16
TORSDOF 3
ENDMDL
MODEL 4
REMARK VINA RESULT:      -8.1      3.498      9.067
REMARK  Name = 
REMARK  3 active torsions:
REMARK  status: ('A' for Active; 'I' for Inactive)
REMARK    1  A    between atoms: C_8  and  C_9
REMARK    2  A    between atoms: C_9  and  N_10
REMARK    3  A    between atoms: C_13  and  C_14
REMARK                            x       y       z     vdW  Elec       q    Type
REMARK                         _______ _______ _______ _____ _____    ______ ____
ROOT
ATOM      1  N   UNL     1       1.827   8.401  19.675  0.00  0.00    +0.000 NA
ATOM      2  C   UNL     1       1.735   8.792  18.267  0.00  0.00    +0.000 C 
ATOM      3  C   UNL     1       1.710  10.310  18.061  0.00  0.00    +0.000 C 
ATOM      4  C   UNL     1       0.604  10.992  18.870  0.00  0.00    +0.000 C 
ATOM      5  C   UNL     1       0.780  10.585  20.343  0.00  0.00    +0.000 C 
ATOM      6  C   UNL     1       0.850   9.064  20.545  0.00  0.00    +0.000 C 
ENDROOT
BRANCH   4   7
ATOM      7  C   UNL     1      -0.778  10.670  18.360  0.00  0.00    +0.000 A 
ATOM      8  N   UNL     1      -1.063   9.763  17.444  0.00  0.00    +0.000 NA
ATOM      9  N   UNL     1      -2.414   9.739  17.235  0.00  0.00    +0.000 NA
ATOM     10  C   UNL     1      -2.951  10.634  18.028  0.00  0.00    +0.000 A 
ATOM     11  N   UNL     1      -1.962  11.240  18.762  0.00  0.00    +0.000 N 
ATOM     12  C   UNL     1      -2.206  12.316  19.698  0.00  0.00    +0.000 C 
ATOM     13  C   UNL     1      -3.693  12.472  20.054  0.00  0.00    +0.000 C 
ATOM     14  C   UNL     1      -4.584  12.329  18.817  0.00  0.00    +0.000 C 
ATOM     15  C   UNL     1      -4.390  10.955  18.179  0.00  0.00    +0.000 C 
ENDBRANCH   4   7
BRANCH   1  16
ATOM     16  C   UNL     1       1.840   6.932  19.855  0.00  0.00    +0.000 C 
BRANCH  16  24
ATOM     17  O   UNL     1       7.674   5.993  15.703  0.00  0.00    +0.000 OA
ATOM     18  C   UNL     1       6.631   5.542  16.174  0.00  0.00    +0.000 C 
ATOM     19  C   UNL     1       6.169   4.102  15.960  0.00  0.00    +0.000 C 
ATOM     20  O   UNL     1       4.791   3.786  16.110  0.00  0.00    +0.000 OA
ATOM     21  C   UNL     1       4.140   4.562  17.032  0.00  0.00    +0.000 A 
ATOM     22  C   UNL     1       2.900   4.109  17.474  0.00  0.00    +0.000 A 
ATOM     23  C   UNL     1       2.159   4.873  18.391  0.00  0.00    +0.000 A 
ATOM     24  C   UNL     1       2.643   6.097  18.870  0.00  0.00    +0.000 A 
ATOM     25  C   UNL     1       3.886   6.553  18.393  0.00  0.00    +0.000 A 
ATOM     26  C   UNL     1       4.625   5.789  17.486  0.00  0.00    +0.000 A 
ATOM     27  N   UNL     1       5.837   6.285  17.001  0.00  0.00    +0.000 N 
ATOM     28  H   UNL     1       6.158   7.211  17.246  0.00  0.00    +0.000 HD
ENDBRANCH  16  24
ENDBRANCH   1  16
TORSDOF 3
ENDMDL
MODEL 5
REMARK VINA RESULT:      -8.0      2.265      2.510
REMARK  Name = 
REMARK  3 active torsions:
REMARK  status: ('A' for Active; 'I' for Inactive)
REMARK    1  A    between atoms: C_8  and  C_9
REMARK    2  A    between atoms: C_9  and  N_10
REMARK    3  A    between atoms: C_13  and  C_14
REMARK                            x       y       z     vdW  Elec       q    Type
REMARK                         _______ _______ _______ _____ _____    ______ ____
ROOT
ATOM      1  N   UNL     1       1.639   6.990  20.355  0.00  0.00    +0.000 NA
ATOM      2  C   UNL     1       2.307   7.494  19.153  0.00  0.00    +0.000 C 
ATOM      3  C   UNL     1       2.133   6.579  17.936  0.00  0.00    +0.000 C 
ATOM      4  C   UNL     1       2.573   5.141  18.218  0.00  0.00    +0.000 C 
ATOM      5  C   UNL     1       1.806   4.649  19.458  0.00  0.00    +0.000 C 
ATOM      6  C   UNL     1       1.943   5.589  20.665  0.00  0.00    +0.000 C 
ENDROOT
BRANCH   4   7
ATOM      7  C   UNL     1       4.065   5.007  18.392  0.00  0.00    +0.000 A 
ATOM      8  N   UNL     1       4.707   5.047  19.545  0.00  0.00    +0.000 NA
ATOM      9  N   UNL     1       6.046   4.887  19.324  0.00  0.00    +0.000 NA
ATOM     10  C   UNL     1       6.218   4.747  18.032  0.00  0.00    +0.000 A 
ATOM     11  N   UNL     1       4.998   4.807  17.404  0.00  0.00    +0.000 N 
ATOM     12  C   UNL     1       4.834   4.742  15.968  0.00  0.00    +0.000 C 
ATOM     13  C   UNL     1       6.096   4.246  15.244  0.00  0.00    +0.000 C 
ATOM     14  C   UNL     1       7.363   4.873  15.833  0.00  0.00    +0.000 C 
ATOM     15  C   UNL     1       7.494   4.518  17.312  0.00  0.00    +0.000 C 
ENDBRANCH   4   7
BRANCH   1  16
ATOM     16  C   UNL     1       1.826   7.881  21.522  0.00  0.00    +0.000 C 
BRANCH  16  24
ATOM     17  O   UNL     1      -0.706  14.208  19.132  0.00  0.00    +0.000 OA
ATOM     18  C   UNL     1      -0.778  13.279  19.935  0.00  0.00    +0.000 C 
ATOM     19  C   UNL     1      -1.878  13.164  20.988  0.00  0.00    +0.000 C 
ATOM     20  O   UNL     1      -1.652  12.370  22.145  0.00  0.00    +0.000 OA
ATOM     21  C   UNL     1      -0.824  11.300  21.931  0.00  0.00    +0.000 A 
ATOM     22  C   UNL     1      -0.817  10.304  22.904  0.00  0.00    +0.000 A 
ATOM     23  C   UNL     1       0.036   9.196  22.769  0.00  0.00    +0.000 A 
ATOM     24  C   UNL     1       0.894   9.074  21.667  0.00  0.00    +0.000 A 
ATOM     25  C   UNL     1       0.893  10.103  20.707  0.00  0.00    +0.000 A 
ATOM     26  C   UNL     1       0.040  11.201  20.839  0.00  0.00    +0.000 A 
ATOM     27  N   UNL     1       0.090  12.224  19.891  0.00  0.00    +0.000 N 
ATOM     28  H   UNL     1       0.772  12.215  19.146  0.00  0.00    +0.000 HD
ENDBRANCH  16  24
ENDBRANCH   1  16
TORSDOF 3
ENDMDL
MODEL 6
REMARK VINA RESULT:      -7.9      3.817      9.495
REMARK  Name = 
REMARK  3 active torsions:
REMARK  status: ('A' for Active; 'I' for Inactive)
REMARK    1  A    between atoms: C_8  and  C_9
REMARK    2  A    between atoms: C_9  and  N_10
REMARK    3  A    between atoms: C_13  and  C_14
REMARK                            x       y       z     vdW  Elec       q    Type
REMARK                         _______ _______ _______ _____ _____    ______ ____
ROOT
ATOM      1  N   UNL     1       1.794   8.950  18.998  0.00  0.00    +0.000 NA
ATOM      2  C   UNL     1       1.659  10.015  18.002  0.00  0.00    +0.000 C 
ATOM      3  C   UNL     1       1.712  11.421  18.608  0.00  0.00    +0.000 C 
ATOM      4  C   UNL     1       0.687  11.614  19.728  0.00  0.00    +0.000 C 
ATOM      5  C   UNL     1       0.908  10.500  20.765  0.00  0.00    +0.000 C 
ATOM      6  C   UNL     1       0.899   9.093  20.151  0.00  0.00    +0.000 C 
ENDROOT
BRANCH   4   7
ATOM      7  C   UNL     1      -0.734  11.638  19.224  0.00  0.00    +0.000 A 
ATOM      8  N   UNL     1      -1.129  11.230  18.032  0.00  0.00    +0.000 NA
ATOM      9  N   UNL     1      -2.482  11.392  17.924  0.00  0.00    +0.000 NA
ATOM     10  C   UNL     1      -2.910  11.899  19.054  0.00  0.00    +0.000 A 
ATOM     11  N   UNL     1      -1.847  12.064  19.907  0.00  0.00    +0.000 N 
ATOM     12  C   UNL     1      -1.962  12.653  21.224  0.00  0.00    +0.000 C 
ATOM     13  C   UNL     1      -3.417  12.747  21.711  0.00  0.00    +0.000 C 
ATOM     14  C   UNL     1      -4.356  13.207  20.592  0.00  0.00    +0.000 C 
ATOM     15  C   UNL     1      -4.308  12.225  19.423  0.00  0.00    +0.000 C 
ENDBRANCH   4   7
BRANCH   1  16
ATOM     16  C   UNL     1       1.729   7.599  18.395  0.00  0.00    +0.000 C 
BRANCH  16  24
ATOM     17  O   UNL     1       7.742   5.370  15.073  0.00  0.00    +0.000 OA
ATOM     18  C   UNL     1       7.040   5.389  16.083  0.00  0.00    +0.000 C 
ATOM     19  C   UNL     1       7.458   4.750  17.406  0.00  0.00    +0.000 C 
ATOM     20  O   UNL     1       6.458   4.394  18.352  0.00  0.00    +0.000 OA
ATOM     21  C   UNL     1       5.356   5.207  18.326  0.00  0.00    +0.000 A 
ATOM     22  C   UNL     1       4.496   5.138  19.419  0.00  0.00    +0.000 A 
ATOM     23  C   UNL     1       3.326   5.915  19.444  0.00  0.00    +0.000 A 
ATOM     24  C   UNL     1       3.000   6.763  18.377  0.00  0.00    +0.000 A 
ATOM     25  C   UNL     1       3.866   6.801  17.269  0.00  0.00    +0.000 A 
ATOM     26  C   UNL     1       5.032   6.033  17.248  0.00  0.00    +0.000 A 
ATOM     27  N   UNL     1       5.852   6.062  16.119  0.00  0.00    +0.000 N 
ATOM     28  H   UNL     1       5.586   6.580  15.293  0.00  0.00    +0.000 HD
ENDBRANCH  16  24
ENDBRANCH   1  16
TORSDOF 3
ENDMDL
MODEL 7
REMARK VINA RESULT:      -7.9      2.453      2.745
REMARK  Name = 
REMARK  3 active torsions:
REMARK  status: ('A' for Active; 'I' for Inactive)
REMARK    1  A    between atoms: C_8  and  C_9
REMARK    2  A    between atoms: C_9  and  N_10
REMARK    3  A    between atoms: C_13  and  C_14
REMARK                            x       y       z     vdW  Elec       q    Type
REMARK                         _______ _______ _______ _____ _____    ______ ____
ROOT
ATOM      1  N   UNL     1       1.477   7.006  20.265  0.00  0.00    +0.000 NA
ATOM      2  C   UNL     1       2.382   7.556  19.255  0.00  0.00    +0.000 C 
ATOM      3  C   UNL     1       2.361   6.778  17.935  0.00  0.00    +0.000 C 
ATOM      4  C   UNL     1       2.636   5.286  18.131  0.00  0.00    +0.000 C 
ATOM      5  C   UNL     1       1.628   4.753  19.163  0.00  0.00    +0.000 C 
ATOM      6  C   UNL     1       1.617   5.560  20.470  0.00  0.00    +0.000 C 
ENDROOT
BRANCH   4   7
ATOM      7  C   UNL     1       4.060   5.002  18.540  0.00  0.00    +0.000 A 
ATOM      8  N   UNL     1       4.445   4.026  19.340  0.00  0.00    +0.000 NA
ATOM      9  N   UNL     1       5.805   4.066  19.482  0.00  0.00    +0.000 NA
ATOM     10  C   UNL     1       6.246   5.070  18.764  0.00  0.00    +0.000 A 
ATOM     11  N   UNL     1       5.186   5.684  18.144  0.00  0.00    +0.000 N 
ATOM     12  C   UNL     1       5.317   6.863  17.317  0.00  0.00    +0.000 C 
ATOM     13  C   UNL     1       6.771   7.149  16.910  0.00  0.00    +0.000 C 
ATOM     14  C   UNL     1       7.734   6.936  18.082  0.00  0.00    +0.000 C 
ATOM     15  C   UNL     1       7.654   5.495  18.580  0.00  0.00    +0.000 C 
ENDBRANCH   4   7
BRANCH   1  16
ATOM     16  C   UNL     1       1.518   7.763  21.536  0.00  0.00    +0.000 C 
BRANCH  16  24
ATOM     17  O   UNL     1      -0.548  14.115  18.787  0.00  0.00    +0.000 OA
ATOM     18  C   UNL     1      -0.663  13.256  19.660  0.00  0.00    +0.000 C 
ATOM     19  C   UNL     1      -1.716  13.319  20.765  0.00  0.00    +0.000 C 
ATOM     20  O   UNL     1      -1.505  12.592  21.968  0.00  0.00    +0.000 OA
ATOM     21  C   UNL     1      -0.788  11.437  21.800  0.00  0.00    +0.000 A 
ATOM     22  C   UNL     1      -0.823  10.516  22.843  0.00  0.00    +0.000 A 
ATOM     23  C   UNL     1      -0.081   9.326  22.756  0.00  0.00    +0.000 A 
ATOM     24  C   UNL     1       0.706   9.046  21.631  0.00  0.00    +0.000 A 
ATOM     25  C   UNL     1       0.751   9.999  20.597  0.00  0.00    +0.000 A 
ATOM     26  C   UNL     1       0.008  11.179  20.682  0.00  0.00    +0.000 A 
ATOM     27  N   UNL     1       0.102  12.123  19.658  0.00  0.00    +0.000 N 
ATOM     28  H   UNL     1       0.743  11.997  18.888  0.00  0.00    +0.000 HD
ENDBRANCH  16  24
ENDBRANCH   1  16
TORSDOF 3
ENDMDL
MODEL 8
REMARK VINA RESULT:      -7.9      1.394      1.825
REMARK  Name = 
REMARK  3 active torsions:
REMARK  status: ('A' for Active; 'I' for Inactive)
REMARK    1  A    between atoms: C_8  and  C_9
REMARK    2  A    between atoms: C_9  and  N_10
REMARK    3  A    between atoms: C_13  and  C_14
REMARK                            x       y       z     vdW  Elec       q    Type
REMARK                         _______ _______ _______ _____ _____    ______ ____
ROOT
ATOM      1  N   UNL     1       1.758   6.314  20.346  0.00  0.00    +0.000 NA
ATOM      2  C   UNL     1       2.256   6.720  19.030  0.00  0.00    +0.000 C 
ATOM      3  C   UNL     1       2.101   5.632  17.961  0.00  0.00    +0.000 C 
ATOM      4  C   UNL     1       2.741   4.307  18.380  0.00  0.00    +0.000 C 
ATOM      5  C   UNL     1       2.147   3.906  19.741  0.00  0.00    +0.000 C 
ATOM      6  C   UNL     1       2.261   5.013  20.799  0.00  0.00    +0.000 C 
ENDROOT
BRANCH   4   7
ATOM      7  C   UNL     1       4.247   4.371  18.423  0.00  0.00    +0.000 A 
ATOM      8  N   UNL     1       4.980   4.410  19.520  0.00  0.00    +0.000 NA
ATOM      9  N   UNL     1       6.303   4.457  19.180  0.00  0.00    +0.000 NA
ATOM     10  C   UNL     1       6.374   4.445  17.871  0.00  0.00    +0.000 A 
ATOM     11  N   UNL     1       5.106   4.383  17.349  0.00  0.00    +0.000 N 
ATOM     12  C   UNL     1       4.822   4.408  15.931  0.00  0.00    +0.000 C 
ATOM     13  C   UNL     1       6.068   4.153  15.068  0.00  0.00    +0.000 C 
ATOM     14  C   UNL     1       7.288   4.904  15.609  0.00  0.00    +0.000 C 
ATOM     15  C   UNL     1       7.598   4.455  17.035  0.00  0.00    +0.000 C 
ENDBRANCH   4   7
BRANCH   1  16
ATOM     16  C   UNL     1       1.925   7.373  21.366  0.00  0.00    +0.000 C 
BRANCH  16  24
ATOM     17  O   UNL     1      -1.802  12.238  17.545  0.00  0.00    +0.000 OA
ATOM     18  C   UNL     1      -1.513  11.752  18.637  0.00  0.00    +0.000 C 
ATOM     19  C   UNL     1      -2.169  12.184  19.947  0.00  0.00    +0.000 C 
ATOM     20  O   UNL     1      -1.490  11.948  21.174  0.00  0.00    +0.000 OA
ATOM     21  C   UNL     1      -0.699  10.830  21.165  0.00  0.00    +0.000 A 
ATOM     22  C   UNL     1      -0.273  10.349  22.401  0.00  0.00    +0.000 A 
ATOM     23  C   UNL     1       0.571   9.229  22.466  0.00  0.00    +0.000 A 
ATOM     24  C   UNL     1       1.003   8.580  21.300  0.00  0.00    +0.000 A 
ATOM     25  C   UNL     1       0.584   9.095  20.060  0.00  0.00    +0.000 A 
ATOM     26  C   UNL     1      -0.261  10.206  19.997  0.00  0.00    +0.000 A 
ATOM     27  N   UNL     1      -0.629  10.716  18.750  0.00  0.00    +0.000 N 
ATOM     28  H   UNL     1      -0.247  10.336  17.896  0.00  0.00    +0.000 HD
ENDBRANCH  16  24
ENDBRANCH   1  16
TORSDOF 3
ENDMDL
MODEL 9
REMARK VINA RESULT:      -7.9      1.702      2.676
REMARK  Name = 
REMARK  3 active torsions:
REMARK  status: ('A' for Active; 'I' for Inactive)
REMARK    1  A    between atoms: C_8  and  C_9
REMARK    2  A    between atoms: C_9  and  N_10
REMARK    3  A    between atoms: C_13  and  C_14
REMARK                            x       y       z     vdW  Elec       q    Type
REMARK                         _______ _______ _______ _____ _____    ______ ____
ROOT
ATOM      1  N   UNL     1       1.788   7.506  18.807  0.00  0.00    +0.000 NA
ATOM      2  C   UNL     1       2.231   6.751  17.633  0.00  0.00    +0.000 C 
ATOM      3  C   UNL     1       2.106   5.234  17.806  0.00  0.00    +0.000 C 
ATOM      4  C   UNL     1       2.824   4.727  19.059  0.00  0.00    +0.000 C 
ATOM      5  C   UNL     1       2.286   5.519  20.263  0.00  0.00    +0.000 C 
ATOM      6  C   UNL     1       2.370   7.040  20.071  0.00  0.00    +0.000 C 
ENDROOT
BRANCH   4   7
ATOM      7  C   UNL     1       4.325   4.820  18.952  0.00  0.00    +0.000 A 
ATOM      8  N   UNL     1       5.142   5.160  19.931  0.00  0.00    +0.000 NA
ATOM      9  N   UNL     1       6.431   5.132  19.477  0.00  0.00    +0.000 NA
ATOM     10  C   UNL     1       6.397   4.773  18.217  0.00  0.00    +0.000 A 
ATOM     11  N   UNL     1       5.094   4.557  17.843  0.00  0.00    +0.000 N 
ATOM     12  C   UNL     1       4.696   4.199  16.499  0.00  0.00    +0.000 C 
ATOM     13  C   UNL     1       5.877   3.741  15.628  0.00  0.00    +0.000 C 
ATOM     14  C   UNL     1       7.109   4.624  15.843  0.00  0.00    +0.000 C 
ATOM     15  C   UNL     1       7.549   4.576  17.305  0.00  0.00    +0.000 C 
ENDBRANCH   4   7
BRANCH   1  16
ATOM     16  C   UNL     1       1.926   8.968  18.626  0.00  0.00    +0.000 C 
BRANCH  16  24
ATOM     17  O   UNL     1      -1.313  13.248  23.458  0.00  0.00    +0.000 OA
ATOM     18  C   UNL     1      -1.289  12.762  22.328  0.00  0.00    +0.000 C 
ATOM     19  C   UNL     1      -2.287  13.135  21.234  0.00  0.00    +0.000 C 
ATOM     20  O   UNL     1      -2.504  12.234  20.156  0.00  0.00    +0.000 OA
ATOM     21  C   UNL     1      -1.403  11.490  19.824  0.00  0.00    +0.000 A 
ATOM     22  C   UNL     1      -1.429  10.841  18.593  0.00  0.00    +0.000 A 
ATOM     23  C   UNL     1      -0.350  10.029  18.203  0.00  0.00    +0.000 A 
ATOM     24  C   UNL     1       0.761   9.853  19.040  0.00  0.00    +0.000 A 
ATOM     25  C   UNL     1       0.758  10.495  20.291  0.00  0.00    +0.000 A 
ATOM     26  C   UNL     1      -0.312  11.307  20.675  0.00  0.00    +0.000 A 
ATOM     27  N   UNL     1      -0.303  11.900  21.939  0.00  0.00    +0.000 N 
ATOM     28  H   UNL     1       0.432  11.704  22.603  0.00  0.00    +0.000 HD
ENDBRANCH  16  24
ENDBRANCH   1  16
TORSDOF 3
ENDMDL
