MODEL 1
REMARK VINA RESULT:      -8.7      0.000      0.000
REMARK  Name = 
REMARK  1 active torsions:
REMARK  status: ('A' for Active; 'I' for Inactive)
REMARK    1  A    between atoms: C_2  and  C_12
REMARK                            x       y       z     vdW  Elec       q    Type
REMARK                         _______ _______ _______ _____ _____    ______ ____
ROOT
ATOM      1  C   UNL     1       1.276   8.965  19.130  0.00  0.00    +0.000 A 
ATOM      2  C   UNL     1       1.468   8.532  20.452  0.00  0.00    +0.000 A 
ATOM      3  C   UNL     1       0.810   9.125  21.497  0.00  0.00    +0.000 A 
ATOM      4  C   UNL     1      -0.093  10.154  21.247  0.00  0.00    +0.000 A 
ATOM      5  C   UNL     1      -0.677  10.765  22.412  0.00  0.00    +0.000 A 
ATOM      6  O   UNL     1      -0.337  10.368  23.525  0.00  0.00    +0.000 OA
ATOM      7  N   UNL     1      -1.600  11.773  22.215  0.00  0.00    +0.000 N 
ATOM      8  C   UNL     1      -1.985  12.205  20.931  0.00  0.00    +0.000 A 
ATOM      9  N   UNL     1      -1.413  11.668  19.853  0.00  0.00    +0.000 NA
ATOM     10  C   UNL     1      -0.414  10.624  19.982  0.00  0.00    +0.000 A 
ATOM     11  C   UNL     1       0.305  10.001  18.892  0.00  0.00    +0.000 A 
ATOM     12  C   UNL     1      -3.191  13.406  20.619  0.00  0.00    +0.000 C 
ATOM     13  C   UNL     1      -4.287  14.438  21.398  0.00  0.00    +0.000 C 
ATOM     14  C   UNL     1      -4.678  14.744  22.961  0.00  0.00    +0.000 C 
ATOM     15  C   UNL     1      -3.906  14.051  24.100  0.00  0.00    +0.000 C 
ATOM     16  C   UNL     1      -3.011  13.268  23.260  0.00  0.00    +0.000 C 
ATOM     17  C   UNL     1      -2.043  12.241  23.540  0.00  0.00    +0.000 C 
ENDROOT
BRANCH   1  19
ATOM     18  O   UNL     1       2.631   8.875  17.226  0.00  0.00    +0.000 OA
ATOM     19  C   UNL     1       2.244   8.234  18.209  0.00  0.00    +0.000 C 
ATOM     20  N   UNL     1       2.646   6.941  18.450  0.00  0.00    +0.000 N 
ATOM     21  C   UNL     1       3.601   6.279  17.678  0.00  0.00    +0.000 A 
ATOM     22  N   UNL     1       3.707   4.958  17.647  0.00  0.00    +0.000 NA
ATOM     23  C   UNL     1       4.719   4.633  16.778  0.00  0.00    +0.000 A 
ATOM     24  C   UNL     1       5.426   5.667  16.239  0.00  0.00    +0.000 A 
ATOM     25  S   UNL     1       4.820   7.134  16.757  0.00  0.00    +0.000 S 
ATOM     26  C   UNL     1       6.531   5.248  15.347  0.00  0.00    +0.000 C 
ATOM     27  C   UNL     1       6.170   3.739  15.129  0.00  0.00    +0.000 C 
ATOM     28  C   UNL     1       5.222   3.322  16.308  0.00  0.00    +0.000 C 
ATOM     29  H   UNL     1       2.131   6.350  19.079  0.00  0.00    +0.000 HD
ENDBRANCH   1  19
TORSDOF 1
ENDMDL
MODEL 2
REMARK VINA RESULT:      -8.5      2.744     10.752
REMARK  Name = 
REMARK  1 active torsions:
REMARK  status: ('A' for Active; 'I' for Inactive)
REMARK    1  A    between atoms: C_2  and  C_12
REMARK                            x       y       z     vdW  Elec       q    Type
REMARK                         _______ _______ _______ _____ _____    ______ ____
ROOT
ATOM      1  C   UNL     1      -0.308  10.701  21.277  0.00  0.00    +0.000 A 
ATOM      2  C   UNL     1      -0.103  11.230  19.992  0.00  0.00    +0.000 A 
ATOM      3  C   UNL     1       0.643  10.560  19.058  0.00  0.00    +0.000 A 
ATOM      4  C   UNL     1       1.183   9.317  19.371  0.00  0.00    +0.000 A 
ATOM      5  C   UNL     1       2.014   8.726  18.355  0.00  0.00    +0.000 A 
ATOM      6  O   UNL     1       2.210   9.347  17.312  0.00  0.00    +0.000 OA
ATOM      7  N   UNL     1       2.550   7.479  18.608  0.00  0.00    +0.000 N 
ATOM      8  C   UNL     1       2.305   6.779  19.806  0.00  0.00    +0.000 A 
ATOM      9  N   UNL     1       1.570   7.344  20.763  0.00  0.00    +0.000 NA
ATOM     10  C   UNL     1       0.996   8.664  20.582  0.00  0.00    +0.000 A 
ATOM     11  C   UNL     1       0.223   9.394  21.563  0.00  0.00    +0.000 A 
ATOM     12  C   UNL     1       2.883   5.185  20.148  0.00  0.00    +0.000 C 
ATOM     13  C   UNL     1       3.781   3.913  19.479  0.00  0.00    +0.000 C 
ATOM     14  C   UNL     1       4.560   3.670  18.056  0.00  0.00    +0.000 C 
ATOM     15  C   UNL     1       4.631   4.800  17.011  0.00  0.00    +0.000 C 
ATOM     16  C   UNL     1       3.868   5.786  17.762  0.00  0.00    +0.000 C 
ATOM     17  C   UNL     1       3.362   7.094  17.440  0.00  0.00    +0.000 C 
ENDROOT
BRANCH   1  19
ATOM     18  O   UNL     1      -0.716  11.741  23.331  0.00  0.00    +0.000 OA
ATOM     19  C   UNL     1      -1.037  11.724  22.138  0.00  0.00    +0.000 C 
ATOM     20  N   UNL     1      -1.998  12.562  21.621  0.00  0.00    +0.000 N 
ATOM     21  C   UNL     1      -2.615  13.570  22.363  0.00  0.00    +0.000 A 
ATOM     22  N   UNL     1      -3.777  14.104  22.018  0.00  0.00    +0.000 NA
ATOM     23  C   UNL     1      -4.114  15.040  22.964  0.00  0.00    +0.000 A 
ATOM     24  C   UNL     1      -3.196  15.284  23.943  0.00  0.00    +0.000 A 
ATOM     25  S   UNL     1      -1.860  14.300  23.763  0.00  0.00    +0.000 S 
ATOM     26  C   UNL     1      -3.600  16.335  24.905  0.00  0.00    +0.000 C 
ATOM     27  C   UNL     1      -5.123  16.471  24.564  0.00  0.00    +0.000 C 
ATOM     28  C   UNL     1      -5.321  15.882  23.123  0.00  0.00    +0.000 C 
ATOM     29  H   UNL     1      -2.436  12.362  20.739  0.00  0.00    +0.000 HD
ENDBRANCH   1  19
TORSDOF 1
ENDMDL
MODEL 3
REMARK VINA RESULT:      -8.3      2.727     10.504
REMARK  Name = 
REMARK  1 active torsions:
REMARK  status: ('A' for Active; 'I' for Inactive)
REMARK    1  A    between atoms: C_2  and  C_12
REMARK                            x       y       z     vdW  Elec       q    Type
REMARK                         _______ _______ _______ _____ _____    ______ ____
ROOT
ATOM      1  C   UNL     1       0.334  10.063  20.607  0.00  0.00    +0.000 A 
ATOM      2  C   UNL     1       0.322   9.007  21.533  0.00  0.00    +0.000 A 
ATOM      3  C   UNL     1       0.987   7.835  21.283  0.00  0.00    +0.000 A 
ATOM      4  C   UNL     1       1.716   7.694  20.108  0.00  0.00    +0.000 A 
ATOM      5  C   UNL     1       2.316   6.402  19.900  0.00  0.00    +0.000 A 
ATOM      6  O   UNL     1       2.134   5.521  20.737  0.00  0.00    +0.000 OA
ATOM      7  N   UNL     1       3.074   6.222  18.759  0.00  0.00    +0.000 N 
ATOM      8  C   UNL     1       3.279   7.249  17.817  0.00  0.00    +0.000 A 
ATOM      9  N   UNL     1       2.690   8.432  17.990  0.00  0.00    +0.000 NA
ATOM     10  C   UNL     1       1.856   8.687  19.148  0.00  0.00    +0.000 A 
ATOM     11  C   UNL     1       1.131   9.910  19.418  0.00  0.00    +0.000 A 
ATOM     12  C   UNL     1       4.280   7.108  16.413  0.00  0.00    +0.000 C 
ATOM     13  C   UNL     1       5.293   6.025  15.593  0.00  0.00    +0.000 C 
ATOM     14  C   UNL     1       5.780   4.479  15.844  0.00  0.00    +0.000 C 
ATOM     15  C   UNL     1       5.214   3.674  17.030  0.00  0.00    +0.000 C 
ATOM     16  C   UNL     1       4.361   4.724  17.568  0.00  0.00    +0.000 C 
ATOM     17  C   UNL     1       3.568   4.833  18.764  0.00  0.00    +0.000 C 
ENDROOT
BRANCH   1  19
ATOM     18  O   UNL     1      -1.507  11.470  20.288  0.00  0.00    +0.000 OA
ATOM     19  C   UNL     1      -0.606  11.164  21.077  0.00  0.00    +0.000 C 
ATOM     20  N   UNL     1      -0.452  11.785  22.295  0.00  0.00    +0.000 N 
ATOM     21  C   UNL     1      -1.350  12.730  22.793  0.00  0.00    +0.000 A 
ATOM     22  N   UNL     1      -1.025  13.597  23.741  0.00  0.00    +0.000 NA
ATOM     23  C   UNL     1      -2.116  14.395  23.981  0.00  0.00    +0.000 A 
ATOM     24  C   UNL     1      -3.264  14.086  23.312  0.00  0.00    +0.000 A 
ATOM     25  S   UNL     1      -3.024  12.790  22.287  0.00  0.00    +0.000 S 
ATOM     26  C   UNL     1      -4.415  14.955  23.649  0.00  0.00    +0.000 C 
ATOM     27  C   UNL     1      -3.688  16.120  24.403  0.00  0.00    +0.000 C 
ATOM     28  C   UNL     1      -2.300  15.561  24.874  0.00  0.00    +0.000 C 
ATOM     29  H   UNL     1       0.417  11.726  22.798  0.00  0.00    +0.000 HD
ENDBRANCH   1  19
TORSDOF 1
ENDMDL
MODEL 4
REMARK VINA RESULT:      -8.3      3.135     10.671
REMARK  Name = 
REMARK  1 active torsions:
REMARK  status: ('A' for Active; 'I' for Inactive)
REMARK    1  A    between atoms: C_2  and  C_12
REMARK                            x       y       z     vdW  Elec       q    Type
REMARK                         _______ _______ _______ _____ _____    ______ ____
ROOT
ATOM      1  C   UNL     1      -0.451  11.040  20.816  0.00  0.00    +0.000 A 
ATOM      2  C   UNL     1      -0.076  11.392  19.509  0.00  0.00    +0.000 A 
ATOM      3  C   UNL     1       0.707  10.565  18.747  0.00  0.00    +0.000 A 
ATOM      4  C   UNL     1       1.115   9.338  19.258  0.00  0.00    +0.000 A 
ATOM      5  C   UNL     1       1.996   8.574  18.415  0.00  0.00    +0.000 A 
ATOM      6  O   UNL     1       2.345   9.048  17.335  0.00  0.00    +0.000 OA
ATOM      7  N   UNL     1       2.406   7.336  18.868  0.00  0.00    +0.000 N 
ATOM      8  C   UNL     1       1.987   6.806  20.104  0.00  0.00    +0.000 A 
ATOM      9  N   UNL     1       1.204   7.530  20.903  0.00  0.00    +0.000 NA
ATOM     10  C   UNL     1       0.756   8.852  20.508  0.00  0.00    +0.000 A 
ATOM     11  C   UNL     1      -0.054   9.746  21.307  0.00  0.00    +0.000 A 
ATOM     12  C   UNL     1       2.402   5.231  20.689  0.00  0.00    +0.000 C 
ATOM     13  C   UNL     1       3.263   3.831  20.273  0.00  0.00    +0.000 C 
ATOM     14  C   UNL     1       4.161   3.365  18.983  0.00  0.00    +0.000 C 
ATOM     15  C   UNL     1       4.425   4.351  17.829  0.00  0.00    +0.000 C 
ATOM     16  C   UNL     1       3.668   5.470  18.372  0.00  0.00    +0.000 C 
ATOM     17  C   UNL     1       3.300   6.758  17.848  0.00  0.00    +0.000 C 
ENDROOT
BRANCH   1  19
ATOM     18  O   UNL     1      -2.178  12.615  20.863  0.00  0.00    +0.000 OA
ATOM     19  C   UNL     1      -1.182  12.205  21.468  0.00  0.00    +0.000 C 
ATOM     20  N   UNL     1      -0.750  12.772  22.645  0.00  0.00    +0.000 N 
ATOM     21  C   UNL     1      -1.449  13.777  23.313  0.00  0.00    +0.000 A 
ATOM     22  N   UNL     1      -0.877  14.581  24.198  0.00  0.00    +0.000 NA
ATOM     23  C   UNL     1      -1.827  15.465  24.646  0.00  0.00    +0.000 A 
ATOM     24  C   UNL     1      -3.101  15.282  24.196  0.00  0.00    +0.000 A 
ATOM     25  S   UNL     1      -3.175  14.003  23.126  0.00  0.00    +0.000 S 
ATOM     26  C   UNL     1      -4.085  16.240  24.752  0.00  0.00    +0.000 C 
ATOM     27  C   UNL     1      -3.126  17.310  25.375  0.00  0.00    +0.000 C 
ATOM     28  C   UNL     1      -1.734  16.615  25.575  0.00  0.00    +0.000 C 
ATOM     29  H   UNL     1       0.187  12.619  22.978  0.00  0.00    +0.000 HD
ENDBRANCH   1  19
TORSDOF 1
ENDMDL
MODEL 5
REMARK VINA RESULT:      -8.2      2.500     10.465
REMARK  Name = 
REMARK  1 active torsions:
REMARK  status: ('A' for Active; 'I' for Inactive)
REMARK    1  A    between atoms: C_2  and  C_12
REMARK                            x       y       z     vdW  Elec       q    Type
REMARK                         _______ _______ _______ _____ _____    ______ ____
ROOT
ATOM      1  C   UNL     1       0.740   9.766  20.114  0.00  0.00    +0.000 A 
ATOM      2  C   UNL     1       0.726   8.727  21.059  0.00  0.00    +0.000 A 
ATOM      3  C   UNL     1       1.391   7.551  20.833  0.00  0.00    +0.000 A 
ATOM      4  C   UNL     1       2.124   7.389  19.662  0.00  0.00    +0.000 A 
ATOM      5  C   UNL     1       2.725   6.094  19.480  0.00  0.00    +0.000 A 
ATOM      6  O   UNL     1       2.541   5.227  20.332  0.00  0.00    +0.000 OA
ATOM      7  N   UNL     1       3.486   5.893  18.345  0.00  0.00    +0.000 N 
ATOM      8  C   UNL     1       3.694   6.902  17.385  0.00  0.00    +0.000 A 
ATOM      9  N   UNL     1       3.104   8.088  17.534  0.00  0.00    +0.000 NA
ATOM     10  C   UNL     1       2.266   8.364  18.685  0.00  0.00    +0.000 A 
ATOM     11  C   UNL     1       1.541   9.592  18.930  0.00  0.00    +0.000 A 
ATOM     12  C   UNL     1       4.699   6.736  15.987  0.00  0.00    +0.000 C 
ATOM     13  C   UNL     1       5.715   5.638  15.189  0.00  0.00    +0.000 C 
ATOM     14  C   UNL     1       6.201   4.097  15.470  0.00  0.00    +0.000 C 
ATOM     15  C   UNL     1       5.632   3.315  16.669  0.00  0.00    +0.000 C 
ATOM     16  C   UNL     1       4.777   4.374  17.185  0.00  0.00    +0.000 C 
ATOM     17  C   UNL     1       3.981   4.505  18.377  0.00  0.00    +0.000 C 
ENDROOT
BRANCH   1  19
ATOM     18  O   UNL     1      -0.288  11.843  19.797  0.00  0.00    +0.000 OA
ATOM     19  C   UNL     1      -0.202  10.876  20.562  0.00  0.00    +0.000 C 
ATOM     20  N   UNL     1      -0.898  10.809  21.747  0.00  0.00    +0.000 N 
ATOM     21  C   UNL     1      -1.837  11.764  22.139  0.00  0.00    +0.000 A 
ATOM     22  N   UNL     1      -2.210  11.925  23.400  0.00  0.00    +0.000 NA
ATOM     23  C   UNL     1      -3.118  12.954  23.447  0.00  0.00    +0.000 A 
ATOM     24  C   UNL     1      -3.499  13.494  22.254  0.00  0.00    +0.000 A 
ATOM     25  S   UNL     1      -2.690  12.768  20.987  0.00  0.00    +0.000 S 
ATOM     26  C   UNL     1      -4.513  14.567  22.370  0.00  0.00    +0.000 C 
ATOM     27  C   UNL     1      -4.446  14.864  23.907  0.00  0.00    +0.000 C 
ATOM     28  C   UNL     1      -3.803  13.605  24.587  0.00  0.00    +0.000 C 
ATOM     29  H   UNL     1      -0.623  10.168  22.471  0.00  0.00    +0.000 HD
ENDBRANCH   1  19
TORSDOF 1
ENDMDL
MODEL 6
REMARK VINA RESULT:      -8.2      2.921     10.529
REMARK  Name = 
REMARK  1 active torsions:
REMARK  status: ('A' for Active; 'I' for Inactive)
REMARK    1  A    between atoms: C_2  and  C_12
REMARK                            x       y       z     vdW  Elec       q    Type
REMARK                         _______ _______ _______ _____ _____    ______ ____
ROOT
ATOM      1  C   UNL     1       0.686  10.401  20.837  0.00  0.00    +0.000 A 
ATOM      2  C   UNL     1       1.017  10.657  19.496  0.00  0.00    +0.000 A 
ATOM      3  C   UNL     1       1.562   9.685  18.700  0.00  0.00    +0.000 A 
ATOM      4  C   UNL     1       1.765   8.408  19.213  0.00  0.00    +0.000 A 
ATOM      5  C   UNL     1       2.413   7.477  18.326  0.00  0.00    +0.000 A 
ATOM      6  O   UNL     1       2.759   7.861  17.211  0.00  0.00    +0.000 OA
ATOM      7  N   UNL     1       2.611   6.189  18.781  0.00  0.00    +0.000 N 
ATOM      8  C   UNL     1       2.198   5.766  20.059  0.00  0.00    +0.000 A 
ATOM      9  N   UNL     1       1.636   6.638  20.895  0.00  0.00    +0.000 NA
ATOM     10  C   UNL     1       1.421   8.017  20.499  0.00  0.00    +0.000 A 
ATOM     11  C   UNL     1       0.864   9.061  21.332  0.00  0.00    +0.000 A 
ATOM     12  C   UNL     1       2.347   4.148  20.654  0.00  0.00    +0.000 C 
ATOM     13  C   UNL     1       2.886   2.602  20.214  0.00  0.00    +0.000 C 
ATOM     14  C   UNL     1       3.572   1.955  18.873  0.00  0.00    +0.000 C 
ATOM     15  C   UNL     1       3.928   2.856  17.675  0.00  0.00    +0.000 C 
ATOM     16  C   UNL     1       3.447   4.108  18.243  0.00  0.00    +0.000 C 
ATOM     17  C   UNL     1       3.293   5.436  17.713  0.00  0.00    +0.000 C 
ENDROOT
BRANCH   1  19
ATOM     18  O   UNL     1       1.055  12.628  21.447  0.00  0.00    +0.000 OA
ATOM     19  C   UNL     1       0.248  11.694  21.510  0.00  0.00    +0.000 C 
ATOM     20  N   UNL     1      -0.961  11.808  22.157  0.00  0.00    +0.000 N 
ATOM     21  C   UNL     1      -1.430  13.004  22.701  0.00  0.00    +0.000 A 
ATOM     22  N   UNL     1      -2.367  13.047  23.637  0.00  0.00    +0.000 NA
ATOM     23  C   UNL     1      -2.577  14.362  23.969  0.00  0.00    +0.000 A 
ATOM     24  C   UNL     1      -1.898  15.297  23.245  0.00  0.00    +0.000 A 
ATOM     25  S   UNL     1      -0.899  14.569  22.123  0.00  0.00    +0.000 S 
ATOM     26  C   UNL     1      -2.203  16.696  23.622  0.00  0.00    +0.000 C 
ATOM     27  C   UNL     1      -2.947  16.474  24.983  0.00  0.00    +0.000 C 
ATOM     28  C   UNL     1      -3.447  14.987  24.991  0.00  0.00    +0.000 C 
ATOM     29  H   UNL     1      -1.477  10.990  22.433  0.00  0.00    +0.000 HD
ENDBRANCH   1  19
TORSDOF 1
ENDMDL
MODEL 7
REMARK VINA RESULT:      -8.1      1.703      2.448
REMARK  Name = 
REMARK  1 active torsions:
REMARK  status: ('A' for Active; 'I' for Inactive)
REMARK    1  A    between atoms: C_2  and  C_12
REMARK                            x       y       z     vdW  Elec       q    Type
REMARK                         _______ _______ _______ _____ _____    ______ ____
ROOT
ATOM      1  C   UNL     1       0.677  10.186  19.068  0.00  0.00    +0.000 A 
ATOM      2  C   UNL     1      -0.519  10.309  18.341  0.00  0.00    +0.000 A 
ATOM      3  C   UNL     1      -1.565  11.056  18.815  0.00  0.00    +0.000 A 
ATOM      4  C   UNL     1      -1.436  11.735  20.022  0.00  0.00    +0.000 A 
ATOM      5  C   UNL     1      -2.612  12.430  20.474  0.00  0.00    +0.000 A 
ATOM      6  O   UNL     1      -3.638  12.364  19.798  0.00  0.00    +0.000 OA
ATOM      7  N   UNL     1      -2.525  13.142  21.654  0.00  0.00    +0.000 N 
ATOM      8  C   UNL     1      -1.338  13.213  22.409  0.00  0.00    +0.000 A 
ATOM      9  N   UNL     1      -0.261  12.536  22.011  0.00  0.00    +0.000 NA
ATOM     10  C   UNL     1      -0.285  11.742  20.797  0.00  0.00    +0.000 A 
ATOM     11  C   UNL     1       0.803  10.933  20.292  0.00  0.00    +0.000 A 
ATOM     12  C   UNL     1      -1.144  14.150  23.850  0.00  0.00    +0.000 C 
ATOM     13  C   UNL     1      -1.974  15.207  24.882  0.00  0.00    +0.000 C 
ATOM     14  C   UNL     1      -3.490  15.833  24.922  0.00  0.00    +0.000 C 
ATOM     15  C   UNL     1      -4.533  15.398  23.877  0.00  0.00    +0.000 C 
ATOM     16  C   UNL     1      -3.674  14.487  23.133  0.00  0.00    +0.000 C 
ATOM     17  C   UNL     1      -3.843  13.750  21.910  0.00  0.00    +0.000 C 
ENDROOT
BRANCH   1  19
ATOM     18  O   UNL     1       2.154   9.588  17.357  0.00  0.00    +0.000 OA
ATOM     19  C   UNL     1       1.591   9.182  18.379  0.00  0.00    +0.000 C 
ATOM     20  N   UNL     1       1.764   7.904  18.858  0.00  0.00    +0.000 N 
ATOM     21  C   UNL     1       2.665   6.994  18.303  0.00  0.00    +0.000 A 
ATOM     22  N   UNL     1       2.565   5.685  18.488  0.00  0.00    +0.000 NA
ATOM     23  C   UNL     1       3.582   5.079  17.792  0.00  0.00    +0.000 A 
ATOM     24  C   UNL     1       4.483   5.898  17.179  0.00  0.00    +0.000 A 
ATOM     25  S   UNL     1       4.074   7.501  17.398  0.00  0.00    +0.000 S 
ATOM     26  C   UNL     1       5.579   5.183  16.485  0.00  0.00    +0.000 C 
ATOM     27  C   UNL     1       5.006   3.725  16.464  0.00  0.00    +0.000 C 
ATOM     28  C   UNL     1       3.910   3.650  17.585  0.00  0.00    +0.000 C 
ATOM     29  H   UNL     1       1.113   7.505  19.512  0.00  0.00    +0.000 HD
ENDBRANCH   1  19
TORSDOF 1
ENDMDL
MODEL 8
REMARK VINA RESULT:      -8.1      1.863      2.786
REMARK  Name = 
REMARK  1 active torsions:
REMARK  status: ('A' for Active; 'I' for Inactive)
REMARK    1  A    between atoms: C_2  and  C_12
REMARK                            x       y       z     vdW  Elec       q    Type
REMARK                         _______ _______ _______ _____ _____    ______ ____
ROOT
ATOM      1  C   UNL     1       0.660   9.731  20.208  0.00  0.00    +0.000 A 
ATOM      2  C   UNL     1      -0.281  10.002  19.201  0.00  0.00    +0.000 A 
ATOM      3  C   UNL     1      -1.260  10.944  19.377  0.00  0.00    +0.000 A 
ATOM      4  C   UNL     1      -1.309  11.673  20.560  0.00  0.00    +0.000 A 
ATOM      5  C   UNL     1      -2.416  12.584  20.684  0.00  0.00    +0.000 A 
ATOM      6  O   UNL     1      -3.241  12.645  19.774  0.00  0.00    +0.000 OA
ATOM      7  N   UNL     1      -2.493  13.351  21.830  0.00  0.00    +0.000 N 
ATOM      8  C   UNL     1      -1.532  13.274  22.857  0.00  0.00    +0.000 A 
ATOM      9  N   UNL     1      -0.530  12.401  22.761  0.00  0.00    +0.000 NA
ATOM     10  C   UNL     1      -0.399  11.541  21.600  0.00  0.00    +0.000 A 
ATOM     11  C   UNL     1       0.616  10.528  21.406  0.00  0.00    +0.000 A 
ATOM     12  C   UNL     1      -1.531  14.263  24.277  0.00  0.00    +0.000 C 
ATOM     13  C   UNL     1      -2.384  15.513  25.040  0.00  0.00    +0.000 C 
ATOM     14  C   UNL     1      -3.726  16.385  24.682  0.00  0.00    +0.000 C 
ATOM     15  C   UNL     1      -4.545  16.059  23.418  0.00  0.00    +0.000 C 
ATOM     16  C   UNL     1      -3.707  14.968  22.938  0.00  0.00    +0.000 C 
ATOM     17  C   UNL     1      -3.703  14.187  21.730  0.00  0.00    +0.000 C 
ENDROOT
BRANCH   1  19
ATOM     18  O   UNL     1       1.604   7.633  20.629  0.00  0.00    +0.000 OA
ATOM     19  C   UNL     1       1.519   8.543  19.797  0.00  0.00    +0.000 C 
ATOM     20  N   UNL     1       2.168   8.496  18.585  0.00  0.00    +0.000 N 
ATOM     21  C   UNL     1       2.885   7.384  18.142  0.00  0.00    +0.000 A 
ATOM     22  N   UNL     1       3.810   7.459  17.196  0.00  0.00    +0.000 NA
ATOM     23  C   UNL     1       4.338   6.204  17.017  0.00  0.00    +0.000 A 
ATOM     24  C   UNL     1       3.768   5.189  17.728  0.00  0.00    +0.000 A 
ATOM     25  S   UNL     1       2.555   5.765  18.719  0.00  0.00    +0.000 S 
ATOM     26  C   UNL     1       4.352   3.855  17.455  0.00  0.00    +0.000 C 
ATOM     27  C   UNL     1       5.659   4.261  16.692  0.00  0.00    +0.000 C 
ATOM     28  C   UNL     1       5.437   5.718  16.153  0.00  0.00    +0.000 C 
ATOM     29  H   UNL     1       2.313   9.332  18.045  0.00  0.00    +0.000 HD
ENDBRANCH   1  19
TORSDOF 1
ENDMDL
MODEL 9
REMARK VINA RESULT:      -8.1      1.529      1.722
REMARK  Name = 
REMARK  1 active torsions:
REMARK  status: ('A' for Active; 'I' for Inactive)
REMARK    1  A    between atoms: C_2  and  C_12
REMARK                            x       y       z     vdW  Elec       q    Type
REMARK                         _______ _______ _______ _____ _____    ______ ____
ROOT
ATOM      1  C   UNL     1       1.474   8.622  19.865  0.00  0.00    +0.000 A 
ATOM      2  C   UNL     1       1.019   8.207  21.128  0.00  0.00    +0.000 A 
ATOM      3  C   UNL     1       0.312   9.053  21.942  0.00  0.00    +0.000 A 
ATOM      4  C   UNL     1       0.006  10.337  21.503  0.00  0.00    +0.000 A 
ATOM      5  C   UNL     1      -0.672  11.175  22.455  0.00  0.00    +0.000 A 
ATOM      6  O   UNL     1      -0.913  10.728  23.575  0.00  0.00    +0.000 OA
ATOM      7  N   UNL     1      -1.022  12.450  22.056  0.00  0.00    +0.000 N 
ATOM      8  C   UNL     1      -0.746  12.940  20.764  0.00  0.00    +0.000 A 
ATOM      9  N   UNL     1      -0.082  12.178  19.896  0.00  0.00    +0.000 NA
ATOM     10  C   UNL     1       0.344  10.838  20.253  0.00  0.00    +0.000 A 
ATOM     11  C   UNL     1       1.108   9.939  19.414  0.00  0.00    +0.000 A 
ATOM     12  C   UNL     1      -1.228  14.495  20.181  0.00  0.00    +0.000 C 
ATOM     13  C   UNL     1      -2.055  15.902  20.640  0.00  0.00    +0.000 C 
ATOM     14  C   UNL     1      -2.818  16.402  22.002  0.00  0.00    +0.000 C 
ATOM     15  C   UNL     1      -2.808  15.518  23.263  0.00  0.00    +0.000 C 
ATOM     16  C   UNL     1      -2.040  14.415  22.702  0.00  0.00    +0.000 C 
ATOM     17  C   UNL     1      -1.687  13.110  23.193  0.00  0.00    +0.000 C 
ENDROOT
BRANCH   1  19
ATOM     18  O   UNL     1       2.439   6.493  19.914  0.00  0.00    +0.000 OA
ATOM     19  C   UNL     1       2.352   7.537  19.259  0.00  0.00    +0.000 C 
ATOM     20  N   UNL     1       3.016   7.716  18.067  0.00  0.00    +0.000 N 
ATOM     21  C   UNL     1       3.752   6.709  17.441  0.00  0.00    +0.000 A 
ATOM     22  N   UNL     1       4.687   6.963  16.536  0.00  0.00    +0.000 NA
ATOM     23  C   UNL     1       5.232   5.766  16.141  0.00  0.00    +0.000 A 
ATOM     24  C   UNL     1       4.667   4.634  16.650  0.00  0.00    +0.000 A 
ATOM     25  S   UNL     1       3.436   5.009  17.712  0.00  0.00    +0.000 S 
ATOM     26  C   UNL     1       5.271   3.377  16.150  0.00  0.00    +0.000 C 
ATOM     27  C   UNL     1       6.581   3.927  15.490  0.00  0.00    +0.000 C 
ATOM     28  C   UNL     1       6.348   5.455  15.219  0.00  0.00    +0.000 C 
ATOM     29  H   UNL     1       3.157   8.637  17.688  0.00  0.00    +0.000 HD
ENDBRANCH   1  19
TORSDOF 1
ENDMDL
