MODEL 1
REMARK VINA RESULT:      -8.2      0.000      0.000
REMARK  Name = 
REMARK  6 active torsions:
REMARK  status: ('A' for Active; 'I' for Inactive)
REMARK    1  A    between atoms: C_1  and  C_2
REMARK    2  A    between atoms: C_4  and  O_5
REMARK    3  A    between atoms: O_5  and  C_6
REMARK    4  A    between atoms: C_14  and  N_15
REMARK    5  A    between atoms: C_16  and  C_18
REMARK    6  A    between atoms: N_21  and  C_22
REMARK                            x       y       z     vdW  Elec       q    Type
REMARK                         _______ _______ _______ _____ _____    ______ ____
ROOT
ATOM      1  N   UNL     1       0.915   8.711  20.265  0.00  0.00    +0.000 N 
ATOM      2  C   UNL     1       0.994   9.435  21.447  0.00  0.00    +0.000 C 
ATOM      3  O   UNL     1       1.702   9.172  22.414  0.00  0.00    +0.000 OA
ATOM      4  H   UNL     1       0.208   9.036  19.617  0.00  0.00    +0.000 HD
ENDROOT
BRANCH   1  11
ATOM      5  C   UNL     1       2.492   8.736  17.751  0.00  0.00    +0.000 C 
ATOM      6  C   UNL     1       2.445   7.579  18.711  0.00  0.00    +0.000 A 
ATOM      7  C   UNL     1       3.204   6.436  18.376  0.00  0.00    +0.000 A 
ATOM      8  C   UNL     1       3.306   5.349  19.246  0.00  0.00    +0.000 A 
ATOM      9  C   UNL     1       2.590   5.361  20.431  0.00  0.00    +0.000 A 
ATOM     10  C   UNL     1       1.803   6.468  20.757  0.00  0.00    +0.000 A 
ATOM     11  C   UNL     1       1.711   7.590  19.915  0.00  0.00    +0.000 A 
BRANCH   8  12
ATOM     12  O   UNL     1       4.023   4.208  18.976  0.00  0.00    +0.000 OA
BRANCH  12  13
ATOM     13  C   UNL     1       5.110   4.300  18.119  0.00  0.00    +0.000 A 
ATOM     14  N   UNL     1       4.944   4.081  16.799  0.00  0.00    +0.000 NA
ATOM     15  C   UNL     1       6.049   4.151  16.039  0.00  0.00    +0.000 A 
ATOM     16  C   UNL     1       7.290   4.458  16.543  0.00  0.00    +0.000 A 
ATOM     17  C   UNL     1       7.338   4.702  17.895  0.00  0.00    +0.000 A 
ATOM     18  N   UNL     1       6.270   4.631  18.706  0.00  0.00    +0.000 NA
ENDBRANCH  12  13
ENDBRANCH   8  12
ENDBRANCH   1  11
BRANCH   2  19
ATOM     19  C   UNL     1       0.132  10.629  21.502  0.00  0.00    +0.000 A 
ATOM     20  C   UNL     1      -0.565  11.164  20.390  0.00  0.00    +0.000 A 
ATOM     21  C   UNL     1      -1.332  12.180  20.895  0.00  0.00    +0.000 A 
ATOM     22  N   UNL     1      -1.110  12.212  22.253  0.00  0.00    +0.000 N 
ATOM     23  N   UNL     1      -0.132  11.327  22.622  0.00  0.00    +0.000 NA
BRANCH  22  24
ATOM     24  C   UNL     1      -1.828  12.968  23.222  0.00  0.00    +0.000 A 
ATOM     25  C   UNL     1      -1.319  14.178  23.718  0.00  0.00    +0.000 A 
ATOM     26  C   UNL     1      -2.091  14.962  24.579  0.00  0.00    +0.000 A 
ATOM     27  C   UNL     1      -3.362  14.538  24.960  0.00  0.00    +0.000 A 
ATOM     28  C   UNL     1      -3.858  13.320  24.500  0.00  0.00    +0.000 A 
ATOM     29  C   UNL     1      -3.096  12.533  23.634  0.00  0.00    +0.000 A 
ENDBRANCH  22  24
ENDBRANCH   2  19
TORSDOF 5
ENDMDL
MODEL 2
REMARK VINA RESULT:      -8.1      0.144      1.283
REMARK  Name = 
REMARK  6 active torsions:
REMARK  status: ('A' for Active; 'I' for Inactive)
REMARK    1  A    between atoms: C_1  and  C_2
REMARK    2  A    between atoms: C_4  and  O_5
REMARK    3  A    between atoms: O_5  and  C_6
REMARK    4  A    between atoms: C_14  and  N_15
REMARK    5  A    between atoms: C_16  and  C_18
REMARK    6  A    between atoms: N_21  and  C_22
REMARK                            x       y       z     vdW  Elec       q    Type
REMARK                         _______ _______ _______ _____ _____    ______ ____
ROOT
ATOM      1  N   UNL     1       0.871   8.751  20.292  0.00  0.00    +0.000 N 
ATOM      2  C   UNL     1       1.016   9.571  21.404  0.00  0.00    +0.000 C 
ATOM      3  O   UNL     1       1.805   9.406  22.329  0.00  0.00    +0.000 OA
ATOM      4  H   UNL     1       0.106   9.003  19.678  0.00  0.00    +0.000 HD
ENDROOT
BRANCH   1  11
ATOM      5  C   UNL     1       2.487   8.748  17.803  0.00  0.00    +0.000 C 
ATOM      6  C   UNL     1       2.428   7.603  18.777  0.00  0.00    +0.000 A 
ATOM      7  C   UNL     1       3.194   6.458  18.469  0.00  0.00    +0.000 A 
ATOM      8  C   UNL     1       3.285   5.382  19.354  0.00  0.00    +0.000 A 
ATOM      9  C   UNL     1       2.550   5.408  20.527  0.00  0.00    +0.000 A 
ATOM     10  C   UNL     1       1.756   6.516  20.827  0.00  0.00    +0.000 A 
ATOM     11  C   UNL     1       1.675   7.627  19.969  0.00  0.00    +0.000 A 
BRANCH   8  12
ATOM     12  O   UNL     1       4.009   4.240  19.110  0.00  0.00    +0.000 OA
BRANCH  12  13
ATOM     13  C   UNL     1       5.127   4.329  18.295  0.00  0.00    +0.000 A 
ATOM     14  N   UNL     1       6.305   4.730  18.813  0.00  0.00    +0.000 NA
ATOM     15  C   UNL     1       7.333   4.828  17.953  0.00  0.00    +0.000 A 
ATOM     16  C   UNL     1       7.231   4.512  16.620  0.00  0.00    +0.000 A 
ATOM     17  C   UNL     1       5.995   4.076  16.206  0.00  0.00    +0.000 A 
ATOM     18  N   UNL     1       4.928   3.974  17.016  0.00  0.00    +0.000 NA
ENDBRANCH  12  13
ENDBRANCH   8  12
ENDBRANCH   1  11
BRANCH   2  19
ATOM     19  C   UNL     1       0.121  10.741  21.433  0.00  0.00    +0.000 A 
ATOM     20  C   UNL     1      -0.577  11.242  20.305  0.00  0.00    +0.000 A 
ATOM     21  C   UNL     1      -1.377  12.243  20.789  0.00  0.00    +0.000 A 
ATOM     22  N   UNL     1      -1.173  12.298  22.148  0.00  0.00    +0.000 N 
ATOM     23  N   UNL     1      -0.175  11.445  22.540  0.00  0.00    +0.000 NA
BRANCH  22  24
ATOM     24  C   UNL     1      -1.923  13.046  23.100  0.00  0.00    +0.000 A 
ATOM     25  C   UNL     1      -3.184  12.607  23.533  0.00  0.00    +0.000 A 
ATOM     26  C   UNL     1      -3.852  13.291  24.552  0.00  0.00    +0.000 A 
ATOM     27  C   UNL     1      -3.275  14.419  25.131  0.00  0.00    +0.000 A 
ATOM     28  C   UNL     1      -2.040  14.881  24.680  0.00  0.00    +0.000 A 
ATOM     29  C   UNL     1      -1.363  14.200  23.666  0.00  0.00    +0.000 A 
ENDBRANCH  22  24
ENDBRANCH   2  19
TORSDOF 5
ENDMDL
MODEL 3
REMARK VINA RESULT:      -8.1      1.038      1.571
REMARK  Name = 
REMARK  6 active torsions:
REMARK  status: ('A' for Active; 'I' for Inactive)
REMARK    1  A    between atoms: C_1  and  C_2
REMARK    2  A    between atoms: C_4  and  O_5
REMARK    3  A    between atoms: O_5  and  C_6
REMARK    4  A    between atoms: C_14  and  N_15
REMARK    5  A    between atoms: C_16  and  C_18
REMARK    6  A    between atoms: N_21  and  C_22
REMARK                            x       y       z     vdW  Elec       q    Type
REMARK                         _______ _______ _______ _____ _____    ______ ____
ROOT
ATOM      1  N   UNL     1       0.811   8.841  20.445  0.00  0.00    +0.000 N 
ATOM      2  C   UNL     1       1.000   9.573  21.611  0.00  0.00    +0.000 C 
ATOM      3  O   UNL     1       1.798   9.317  22.507  0.00  0.00    +0.000 OA
ATOM      4  H   UNL     1       0.045   9.161  19.865  0.00  0.00    +0.000 HD
ENDROOT
BRANCH   1  11
ATOM      5  C   UNL     1       2.328   8.943  17.897  0.00  0.00    +0.000 C 
ATOM      6  C   UNL     1       2.278   7.746  18.806  0.00  0.00    +0.000 A 
ATOM      7  C   UNL     1       3.003   6.603  18.404  0.00  0.00    +0.000 A 
ATOM      8  C   UNL     1       3.102   5.477  19.223  0.00  0.00    +0.000 A 
ATOM      9  C   UNL     1       2.414   5.453  20.425  0.00  0.00    +0.000 A 
ATOM     10  C   UNL     1       1.660   6.560  20.818  0.00  0.00    +0.000 A 
ATOM     11  C   UNL     1       1.574   7.719  20.027  0.00  0.00    +0.000 A 
BRANCH   8  12
ATOM     12  O   UNL     1       3.786   4.334  18.886  0.00  0.00    +0.000 OA
BRANCH  12  13
ATOM     13  C   UNL     1       5.033   4.463  18.294  0.00  0.00    +0.000 A 
ATOM     14  N   UNL     1       6.091   4.854  19.033  0.00  0.00    +0.000 NA
ATOM     15  C   UNL     1       7.257   4.992  18.381  0.00  0.00    +0.000 A 
ATOM     16  C   UNL     1       7.405   4.726  17.042  0.00  0.00    +0.000 A 
ATOM     17  C   UNL     1       6.272   4.296  16.392  0.00  0.00    +0.000 A 
ATOM     18  N   UNL     1       5.077   4.155  16.988  0.00  0.00    +0.000 NA
ENDBRANCH  12  13
ENDBRANCH   8  12
ENDBRANCH   1  11
BRANCH   2  19
ATOM     19  C   UNL     1       0.144  10.765  21.741  0.00  0.00    +0.000 A 
ATOM     20  C   UNL     1       0.365  11.986  21.056  0.00  0.00    +0.000 A 
ATOM     21  C   UNL     1      -0.715  12.773  21.360  0.00  0.00    +0.000 A 
ATOM     22  N   UNL     1      -1.543  12.025  22.164  0.00  0.00    +0.000 N 
ATOM     23  N   UNL     1      -0.974  10.822  22.489  0.00  0.00    +0.000 NA
BRANCH  22  24
ATOM     24  C   UNL     1      -2.869  12.349  22.569  0.00  0.00    +0.000 A 
ATOM     25  C   UNL     1      -3.253  12.270  23.917  0.00  0.00    +0.000 A 
ATOM     26  C   UNL     1      -4.522  12.704  24.310  0.00  0.00    +0.000 A 
ATOM     27  C   UNL     1      -5.414  13.203  23.364  0.00  0.00    +0.000 A 
ATOM     28  C   UNL     1      -5.051  13.250  22.019  0.00  0.00    +0.000 A 
ATOM     29  C   UNL     1      -3.783  12.824  21.619  0.00  0.00    +0.000 A 
ENDBRANCH  22  24
ENDBRANCH   2  19
TORSDOF 5
ENDMDL
MODEL 4
REMARK VINA RESULT:      -8.1      1.289      1.685
REMARK  Name = 
REMARK  6 active torsions:
REMARK  status: ('A' for Active; 'I' for Inactive)
REMARK    1  A    between atoms: C_1  and  C_2
REMARK    2  A    between atoms: C_4  and  O_5
REMARK    3  A    between atoms: O_5  and  C_6
REMARK    4  A    between atoms: C_14  and  N_15
REMARK    5  A    between atoms: C_16  and  C_18
REMARK    6  A    between atoms: N_21  and  C_22
REMARK                            x       y       z     vdW  Elec       q    Type
REMARK                         _______ _______ _______ _____ _____    ______ ____
ROOT
ATOM      1  N   UNL     1       0.502   9.327  20.493  0.00  0.00    +0.000 N 
ATOM      2  C   UNL     1       0.671   9.976  21.709  0.00  0.00    +0.000 C 
ATOM      3  O   UNL     1       1.481   9.682  22.583  0.00  0.00    +0.000 OA
ATOM      4  H   UNL     1      -0.277   9.662  19.940  0.00  0.00    +0.000 HD
ENDROOT
BRANCH   1  11
ATOM      5  C   UNL     1       1.928   9.633  17.909  0.00  0.00    +0.000 C 
ATOM      6  C   UNL     1       1.962   8.389  18.753  0.00  0.00    +0.000 A 
ATOM      7  C   UNL     1       2.723   7.304  18.268  0.00  0.00    +0.000 A 
ATOM      8  C   UNL     1       2.899   6.142  19.021  0.00  0.00    +0.000 A 
ATOM      9  C   UNL     1       2.253   6.022  20.240  0.00  0.00    +0.000 A 
ATOM     10  C   UNL     1       1.464   7.071  20.716  0.00  0.00    +0.000 A 
ATOM     11  C   UNL     1       1.299   8.265  19.992  0.00  0.00    +0.000 A 
BRANCH   8  12
ATOM     12  O   UNL     1       3.622   5.051  18.603  0.00  0.00    +0.000 OA
BRANCH  12  13
ATOM     13  C   UNL     1       4.985   5.205  18.395  0.00  0.00    +0.000 A 
ATOM     14  N   UNL     1       5.480   5.181  17.141  0.00  0.00    +0.000 NA
ATOM     15  C   UNL     1       6.813   5.298  17.023  0.00  0.00    +0.000 A 
ATOM     16  C   UNL     1       7.651   5.468  18.098  0.00  0.00    +0.000 A 
ATOM     17  C   UNL     1       7.037   5.518  19.327  0.00  0.00    +0.000 A 
ATOM     18  N   UNL     1       5.713   5.390  19.507  0.00  0.00    +0.000 NA
ENDBRANCH  12  13
ENDBRANCH   8  12
ENDBRANCH   1  11
BRANCH   2  19
ATOM     19  C   UNL     1      -0.224  11.126  21.928  0.00  0.00    +0.000 A 
ATOM     20  C   UNL     1      -0.043  12.404  21.342  0.00  0.00    +0.000 A 
ATOM     21  C   UNL     1      -1.147  13.129  21.702  0.00  0.00    +0.000 A 
ATOM     22  N   UNL     1      -1.952  12.294  22.443  0.00  0.00    +0.000 N 
ATOM     23  N   UNL     1      -1.344  11.089  22.674  0.00  0.00    +0.000 NA
BRANCH  22  24
ATOM     24  C   UNL     1      -3.288  12.542  22.866  0.00  0.00    +0.000 A 
ATOM     25  C   UNL     1      -4.289  12.879  21.942  0.00  0.00    +0.000 A 
ATOM     26  C   UNL     1      -5.616  13.003  22.361  0.00  0.00    +0.000 A 
ATOM     27  C   UNL     1      -5.947  12.807  23.700  0.00  0.00    +0.000 A 
ATOM     28  C   UNL     1      -4.952  12.508  24.628  0.00  0.00    +0.000 A 
ATOM     29  C   UNL     1      -3.624  12.376  24.217  0.00  0.00    +0.000 A 
ENDBRANCH  22  24
ENDBRANCH   2  19
TORSDOF 5
ENDMDL
MODEL 5
REMARK VINA RESULT:      -8.0      3.617      4.763
REMARK  Name = 
REMARK  6 active torsions:
REMARK  status: ('A' for Active; 'I' for Inactive)
REMARK    1  A    between atoms: C_1  and  C_2
REMARK    2  A    between atoms: C_4  and  O_5
REMARK    3  A    between atoms: O_5  and  C_6
REMARK    4  A    between atoms: C_14  and  N_15
REMARK    5  A    between atoms: C_16  and  C_18
REMARK    6  A    between atoms: N_21  and  C_22
REMARK                            x       y       z     vdW  Elec       q    Type
REMARK                         _______ _______ _______ _____ _____    ______ ____
ROOT
ATOM      1  N   UNL     1       2.164   7.653  18.164  0.00  0.00    +0.000 N 
ATOM      2  C   UNL     1       1.964   9.009  17.940  0.00  0.00    +0.000 C 
ATOM      3  O   UNL     1       2.735   9.770  17.364  0.00  0.00    +0.000 OA
ATOM      4  H   UNL     1       1.454   7.210  18.735  0.00  0.00    +0.000 HD
ENDROOT
BRANCH   1  11
ATOM      5  C   UNL     1       1.920   4.699  18.014  0.00  0.00    +0.000 C 
ATOM      6  C   UNL     1       3.154   5.468  17.629  0.00  0.00    +0.000 A 
ATOM      7  C   UNL     1       4.261   4.720  17.173  0.00  0.00    +0.000 A 
ATOM      8  C   UNL     1       5.417   5.343  16.700  0.00  0.00    +0.000 A 
ATOM      9  C   UNL     1       5.508   6.725  16.747  0.00  0.00    +0.000 A 
ATOM     10  C   UNL     1       4.436   7.476  17.233  0.00  0.00    +0.000 A 
ATOM     11  C   UNL     1       3.248   6.874  17.682  0.00  0.00    +0.000 A 
BRANCH   8  12
ATOM     12  O   UNL     1       6.528   4.673  16.249  0.00  0.00    +0.000 OA
BRANCH  12  13
ATOM     13  C   UNL     1       6.715   4.555  14.880  0.00  0.00    +0.000 A 
ATOM     14  N   UNL     1       5.954   3.699  14.169  0.00  0.00    +0.000 NA
ATOM     15  C   UNL     1       6.220   3.613  12.855  0.00  0.00    +0.000 A 
ATOM     16  C   UNL     1       7.186   4.367  12.233  0.00  0.00    +0.000 A 
ATOM     17  C   UNL     1       7.875   5.236  13.044  0.00  0.00    +0.000 A 
ATOM     18  N   UNL     1       7.664   5.352  14.365  0.00  0.00    +0.000 NA
ENDBRANCH  12  13
ENDBRANCH   8  12
ENDBRANCH   1  11
BRANCH   2  19
ATOM     19  C   UNL     1       0.691   9.542  18.455  0.00  0.00    +0.000 A 
ATOM     20  C   UNL     1       0.537  10.159  19.722  0.00  0.00    +0.000 A 
ATOM     21  C   UNL     1      -0.755  10.614  19.750  0.00  0.00    +0.000 A 
ATOM     22  N   UNL     1      -1.317  10.299  18.534  0.00  0.00    +0.000 N 
ATOM     23  N   UNL     1      -0.465   9.548  17.768  0.00  0.00    +0.000 NA
BRANCH  22  24
ATOM     24  C   UNL     1      -2.573  10.740  18.029  0.00  0.00    +0.000 A 
ATOM     25  C   UNL     1      -3.422  11.544  18.805  0.00  0.00    +0.000 A 
ATOM     26  C   UNL     1      -4.595  12.063  18.250  0.00  0.00    +0.000 A 
ATOM     27  C   UNL     1      -4.932  11.773  16.931  0.00  0.00    +0.000 A 
ATOM     28  C   UNL     1      -4.110  10.946  16.167  0.00  0.00    +0.000 A 
ATOM     29  C   UNL     1      -2.934  10.428  16.711  0.00  0.00    +0.000 A 
ENDBRANCH  22  24
ENDBRANCH   2  19
TORSDOF 5
ENDMDL
MODEL 6
REMARK VINA RESULT:      -8.0      2.436      3.981
REMARK  Name = 
REMARK  6 active torsions:
REMARK  status: ('A' for Active; 'I' for Inactive)
REMARK    1  A    between atoms: C_1  and  C_2
REMARK    2  A    between atoms: C_4  and  O_5
REMARK    3  A    between atoms: O_5  and  C_6
REMARK    4  A    between atoms: C_14  and  N_15
REMARK    5  A    between atoms: C_16  and  C_18
REMARK    6  A    between atoms: N_21  and  C_22
REMARK                            x       y       z     vdW  Elec       q    Type
REMARK                         _______ _______ _______ _____ _____    ______ ____
ROOT
ATOM      1  N   UNL     1       3.154   6.953  18.929  0.00  0.00    +0.000 N 
ATOM      2  C   UNL     1       2.399   8.035  18.496  0.00  0.00    +0.000 C 
ATOM      3  O   UNL     1       2.456   8.563  17.389  0.00  0.00    +0.000 OA
ATOM      4  H   UNL     1       3.029   6.714  19.905  0.00  0.00    +0.000 HD
ENDROOT
BRANCH   1  11
ATOM      5  C   UNL     1       2.249   4.441  17.634  0.00  0.00    +0.000 C 
ATOM      6  C   UNL     1       3.648   4.985  17.543  0.00  0.00    +0.000 A 
ATOM      7  C   UNL     1       4.580   4.237  16.792  0.00  0.00    +0.000 A 
ATOM      8  C   UNL     1       5.876   4.704  16.564  0.00  0.00    +0.000 A 
ATOM      9  C   UNL     1       6.278   5.894  17.149  0.00  0.00    +0.000 A 
ATOM     10  C   UNL     1       5.380   6.625  17.928  0.00  0.00    +0.000 A 
ATOM     11  C   UNL     1       4.059   6.193  18.143  0.00  0.00    +0.000 A 
BRANCH   8  12
ATOM     12  O   UNL     1       6.829   4.022  15.848  0.00  0.00    +0.000 OA
BRANCH  12  13
ATOM     13  C   UNL     1       6.915   4.249  14.482  0.00  0.00    +0.000 A 
ATOM     14  N   UNL     1       6.173   3.510  13.631  0.00  0.00    +0.000 NA
ATOM     15  C   UNL     1       6.338   3.763  12.322  0.00  0.00    +0.000 A 
ATOM     16  C   UNL     1       7.182   4.736  11.845  0.00  0.00    +0.000 A 
ATOM     17  C   UNL     1       7.859   5.456  12.800  0.00  0.00    +0.000 A 
ATOM     18  N   UNL     1       7.747   5.237  14.120  0.00  0.00    +0.000 NA
ENDBRANCH  12  13
ENDBRANCH   8  12
ENDBRANCH   1  11
BRANCH   2  19
ATOM     19  C   UNL     1       1.449   8.566  19.488  0.00  0.00    +0.000 A 
ATOM     20  C   UNL     1       1.279   8.041  20.794  0.00  0.00    +0.000 A 
ATOM     21  C   UNL     1       0.404   8.891  21.417  0.00  0.00    +0.000 A 
ATOM     22  N   UNL     1       0.102   9.886  20.516  0.00  0.00    +0.000 N 
ATOM     23  N   UNL     1       0.660   9.638  19.290  0.00  0.00    +0.000 NA
BRANCH  22  24
ATOM     24  C   UNL     1      -0.611  11.091  20.775  0.00  0.00    +0.000 A 
ATOM     25  C   UNL     1      -1.268  11.778  19.742  0.00  0.00    +0.000 A 
ATOM     26  C   UNL     1      -2.058  12.893  20.036  0.00  0.00    +0.000 A 
ATOM     27  C   UNL     1      -2.185  13.333  21.351  0.00  0.00    +0.000 A 
ATOM     28  C   UNL     1      -1.505  12.676  22.375  0.00  0.00    +0.000 A 
ATOM     29  C   UNL     1      -0.718  11.558  22.092  0.00  0.00    +0.000 A 
ENDBRANCH  22  24
ENDBRANCH   2  19
TORSDOF 5
ENDMDL
MODEL 7
REMARK VINA RESULT:      -7.9      2.197     10.327
REMARK  Name = 
REMARK  6 active torsions:
REMARK  status: ('A' for Active; 'I' for Inactive)
REMARK    1  A    between atoms: C_1  and  C_2
REMARK    2  A    between atoms: C_4  and  O_5
REMARK    3  A    between atoms: O_5  and  C_6
REMARK    4  A    between atoms: C_14  and  N_15
REMARK    5  A    between atoms: C_16  and  C_18
REMARK    6  A    between atoms: N_21  and  C_22
REMARK                            x       y       z     vdW  Elec       q    Type
REMARK                         _______ _______ _______ _____ _____    ______ ____
ROOT
ATOM      1  N   UNL     1       2.357   7.393  20.047  0.00  0.00    +0.000 N 
ATOM      2  C   UNL     1       2.188   6.025  20.225  0.00  0.00    +0.000 C 
ATOM      3  O   UNL     1       1.288   5.482  20.858  0.00  0.00    +0.000 OA
ATOM      4  H   UNL     1       3.209   7.654  19.565  0.00  0.00    +0.000 HD
ENDROOT
BRANCH   1  11
ATOM      5  C   UNL     1       1.257   9.333  18.089  0.00  0.00    +0.000 C 
ATOM      6  C   UNL     1       0.958   9.354  19.563  0.00  0.00    +0.000 A 
ATOM      7  C   UNL     1       0.099  10.373  20.029  0.00  0.00    +0.000 A 
ATOM      8  C   UNL     1      -0.319  10.421  21.360  0.00  0.00    +0.000 A 
ATOM      9  C   UNL     1       0.177   9.491  22.259  0.00  0.00    +0.000 A 
ATOM     10  C   UNL     1       1.059   8.502  21.821  0.00  0.00    +0.000 A 
ATOM     11  C   UNL     1       1.467   8.411  20.479  0.00  0.00    +0.000 A 
BRANCH   8  12
ATOM     12  O   UNL     1      -1.148  11.388  21.875  0.00  0.00    +0.000 OA
BRANCH  12  13
ATOM     13  C   UNL     1      -0.897  12.713  21.550  0.00  0.00    +0.000 A 
ATOM     14  N   UNL     1      -1.741  13.374  20.732  0.00  0.00    +0.000 NA
ATOM     15  C   UNL     1      -1.412  14.642  20.433  0.00  0.00    +0.000 A 
ATOM     16  C   UNL     1      -0.301  15.270  20.942  0.00  0.00    +0.000 A 
ATOM     17  C   UNL     1       0.468  14.517  21.796  0.00  0.00    +0.000 A 
ATOM     18  N   UNL     1       0.197  13.242  22.118  0.00  0.00    +0.000 NA
ENDBRANCH  12  13
ENDBRANCH   8  12
ENDBRANCH   1  11
BRANCH   2  19
ATOM     19  C   UNL     1       3.204   5.184  19.570  0.00  0.00    +0.000 A 
ATOM     20  C   UNL     1       3.397   3.806  19.841  0.00  0.00    +0.000 A 
ATOM     21  C   UNL     1       4.341   3.387  18.941  0.00  0.00    +0.000 A 
ATOM     22  N   UNL     1       4.660   4.474  18.160  0.00  0.00    +0.000 N 
ATOM     23  N   UNL     1       4.040   5.611  18.606  0.00  0.00    +0.000 NA
BRANCH  22  24
ATOM     24  C   UNL     1       5.446   4.476  16.972  0.00  0.00    +0.000 A 
ATOM     25  C   UNL     1       4.878   4.159  15.729  0.00  0.00    +0.000 A 
ATOM     26  C   UNL     1       5.636   4.281  14.561  0.00  0.00    +0.000 A 
ATOM     27  C   UNL     1       6.961   4.704  14.629  0.00  0.00    +0.000 A 
ATOM     28  C   UNL     1       7.541   4.986  15.864  0.00  0.00    +0.000 A 
ATOM     29  C   UNL     1       6.789   4.872  17.036  0.00  0.00    +0.000 A 
ENDBRANCH  22  24
ENDBRANCH   2  19
TORSDOF 5
ENDMDL
MODEL 8
REMARK VINA RESULT:      -7.8      2.830      4.173
REMARK  Name = 
REMARK  6 active torsions:
REMARK  status: ('A' for Active; 'I' for Inactive)
REMARK    1  A    between atoms: C_1  and  C_2
REMARK    2  A    between atoms: C_4  and  O_5
REMARK    3  A    between atoms: O_5  and  C_6
REMARK    4  A    between atoms: C_14  and  N_15
REMARK    5  A    between atoms: C_16  and  C_18
REMARK    6  A    between atoms: N_21  and  C_22
REMARK                            x       y       z     vdW  Elec       q    Type
REMARK                         _______ _______ _______ _____ _____    ______ ____
ROOT
ATOM      1  N   UNL     1       2.621   7.356  18.442  0.00  0.00    +0.000 N 
ATOM      2  C   UNL     1       2.215   7.299  19.770  0.00  0.00    +0.000 C 
ATOM      3  O   UNL     1       2.559   6.463  20.599  0.00  0.00    +0.000 OA
ATOM      4  H   UNL     1       2.161   8.069  17.890  0.00  0.00    +0.000 HD
ENDROOT
BRANCH   1  11
ATOM      5  C   UNL     1       1.926   4.554  17.753  0.00  0.00    +0.000 C 
ATOM      6  C   UNL     1       3.274   5.176  17.515  0.00  0.00    +0.000 A 
ATOM      7  C   UNL     1       4.264   4.358  16.928  0.00  0.00    +0.000 A 
ATOM      8  C   UNL     1       5.515   4.866  16.575  0.00  0.00    +0.000 A 
ATOM      9  C   UNL     1       5.818   6.185  16.875  0.00  0.00    +0.000 A 
ATOM     10  C   UNL     1       4.863   6.995  17.491  0.00  0.00    +0.000 A 
ATOM     11  C   UNL     1       3.584   6.516  17.824  0.00  0.00    +0.000 A 
BRANCH   8  12
ATOM     12  O   UNL     1       6.520   4.122  16.007  0.00  0.00    +0.000 OA
BRANCH  12  13
ATOM     13  C   UNL     1       6.794   4.304  14.660  0.00  0.00    +0.000 A 
ATOM     14  N   UNL     1       7.708   5.218  14.278  0.00  0.00    +0.000 NA
ATOM     15  C   UNL     1       7.891   5.363  12.954  0.00  0.00    +0.000 A 
ATOM     16  C   UNL     1       7.223   4.613  12.017  0.00  0.00    +0.000 A 
ATOM     17  C   UNL     1       6.343   3.682  12.517  0.00  0.00    +0.000 A 
ATOM     18  N   UNL     1       6.108   3.505  13.827  0.00  0.00    +0.000 NA
ENDBRANCH  12  13
ENDBRANCH   8  12
ENDBRANCH   1  11
BRANCH   2  19
ATOM     19  C   UNL     1       1.288   8.368  20.181  0.00  0.00    +0.000 A 
ATOM     20  C   UNL     1       0.581   8.385  21.409  0.00  0.00    +0.000 A 
ATOM     21  C   UNL     1      -0.059   9.595  21.444  0.00  0.00    +0.000 A 
ATOM     22  N   UNL     1       0.289  10.266  20.294  0.00  0.00    +0.000 N 
ATOM     23  N   UNL     1       1.037   9.477  19.461  0.00  0.00    +0.000 NA
BRANCH  22  24
ATOM     24  C   UNL     1       0.025  11.630  19.983  0.00  0.00    +0.000 A 
ATOM     25  C   UNL     1       0.161  12.633  20.955  0.00  0.00    +0.000 A 
ATOM     26  C   UNL     1       0.012  13.976  20.601  0.00  0.00    +0.000 A 
ATOM     27  C   UNL     1      -0.285  14.323  19.285  0.00  0.00    +0.000 A 
ATOM     28  C   UNL     1      -0.457  13.330  18.323  0.00  0.00    +0.000 A 
ATOM     29  C   UNL     1      -0.304  11.985  18.668  0.00  0.00    +0.000 A 
ENDBRANCH  22  24
ENDBRANCH   2  19
TORSDOF 5
ENDMDL
MODEL 9
REMARK VINA RESULT:      -7.8      1.888      2.557
REMARK  Name = 
REMARK  6 active torsions:
REMARK  status: ('A' for Active; 'I' for Inactive)
REMARK    1  A    between atoms: C_1  and  C_2
REMARK    2  A    between atoms: C_4  and  O_5
REMARK    3  A    between atoms: O_5  and  C_6
REMARK    4  A    between atoms: C_14  and  N_15
REMARK    5  A    between atoms: C_16  and  C_18
REMARK    6  A    between atoms: N_21  and  C_22
REMARK                            x       y       z     vdW  Elec       q    Type
REMARK                         _______ _______ _______ _____ _____    ______ ____
ROOT
ATOM      1  N   UNL     1       0.618   9.594  20.340  0.00  0.00    +0.000 N 
ATOM      2  C   UNL     1       0.744  10.092  21.631  0.00  0.00    +0.000 C 
ATOM      3  O   UNL     1       1.545   9.714  22.480  0.00  0.00    +0.000 OA
ATOM      4  H   UNL     1      -0.160   9.974  19.815  0.00  0.00    +0.000 HD
ENDROOT
BRANCH   1  11
ATOM      5  C   UNL     1       1.936  10.190  17.749  0.00  0.00    +0.000 C 
ATOM      6  C   UNL     1       2.068   8.886  18.487  0.00  0.00    +0.000 A 
ATOM      7  C   UNL     1       2.873   7.891  17.892  0.00  0.00    +0.000 A 
ATOM      8  C   UNL     1       3.139   6.684  18.542  0.00  0.00    +0.000 A 
ATOM      9  C   UNL     1       2.543   6.429  19.766  0.00  0.00    +0.000 A 
ATOM     10  C   UNL     1       1.712   7.388  20.349  0.00  0.00    +0.000 A 
ATOM     11  C   UNL     1       1.456   8.625  19.731  0.00  0.00    +0.000 A 
BRANCH   8  12
ATOM     12  O   UNL     1       3.908   5.675  18.015  0.00  0.00    +0.000 OA
BRANCH  12  13
ATOM     13  C   UNL     1       3.563   4.364  18.305  0.00  0.00    +0.000 A 
ATOM     14  N   UNL     1       4.226   3.692  19.268  0.00  0.00    +0.000 NA
ATOM     15  C   UNL     1       3.860   2.415  19.465  0.00  0.00    +0.000 A 
ATOM     16  C   UNL     1       2.848   1.806  18.764  0.00  0.00    +0.000 A 
ATOM     17  C   UNL     1       2.212   2.594  17.834  0.00  0.00    +0.000 A 
ATOM     18  N   UNL     1       2.545   3.870  17.583  0.00  0.00    +0.000 NA
ENDBRANCH  12  13
ENDBRANCH   8  12
ENDBRANCH   1  11
BRANCH   2  19
ATOM     19  C   UNL     1      -0.190  11.181  21.969  0.00  0.00    +0.000 A 
ATOM     20  C   UNL     1      -0.014  12.533  21.583  0.00  0.00    +0.000 A 
ATOM     21  C   UNL     1      -1.153  13.178  21.989  0.00  0.00    +0.000 A 
ATOM     22  N   UNL     1      -1.968  12.229  22.562  0.00  0.00    +0.000 N 
ATOM     23  N   UNL     1      -1.340  11.015  22.647  0.00  0.00    +0.000 NA
BRANCH  22  24
ATOM     24  C   UNL     1      -3.328  12.388  22.951  0.00  0.00    +0.000 A 
ATOM     25  C   UNL     1      -3.714  12.264  24.295  0.00  0.00    +0.000 A 
ATOM     26  C   UNL     1      -5.031  12.539  24.673  0.00  0.00    +0.000 A 
ATOM     27  C   UNL     1      -5.968  12.922  23.716  0.00  0.00    +0.000 A 
ATOM     28  C   UNL     1      -5.599  13.011  22.375  0.00  0.00    +0.000 A 
ATOM     29  C   UNL     1      -4.283  12.744  21.989  0.00  0.00    +0.000 A 
ENDBRANCH  22  24
ENDBRANCH   2  19
TORSDOF 5
ENDMDL
