MODEL 1
REMARK VINA RESULT:      -8.7      0.000      0.000
REMARK  Name = 
REMARK  6 active torsions:
REMARK  status: ('A' for Active; 'I' for Inactive)
REMARK    1  A    between atoms: C_1  and  N_2
REMARK    2  A    between atoms: C_4  and  C_5
REMARK    3  A    between atoms: C_5  and  C_6
REMARK    4  A    between atoms: C_10  and  N_11
REMARK    5  A    between atoms: C_16  and  C_17
REMARK    6  A    between atoms: C_20  and  C_21
REMARK                            x       y       z     vdW  Elec       q    Type
REMARK                         _______ _______ _______ _____ _____    ______ ____
ROOT
ATOM      1  N   UNL     1       4.035   4.545  19.130  0.00  0.00    +0.000 N 
ATOM      2  C   UNL     1       5.386   5.146  19.252  0.00  0.00    +0.000 C 
ATOM      3  C   UNL     1       5.918   4.983  17.859  0.00  0.00    +0.000 A 
ATOM      4  C   UNL     1       5.286   3.874  17.296  0.00  0.00    +0.000 A 
ATOM      5  C   UNL     1       5.426   3.504  15.972  0.00  0.00    +0.000 A 
ATOM      6  C   UNL     1       6.229   4.311  15.163  0.00  0.00    +0.000 A 
ATOM      7  C   UNL     1       6.862   5.450  15.717  0.00  0.00    +0.000 A 
ATOM      8  C   UNL     1       6.714   5.810  17.076  0.00  0.00    +0.000 A 
ATOM      9  C   UNL     1       4.162   3.497  18.189  0.00  0.00    +0.000 C 
ATOM     10  O   UNL     1       3.406   2.568  17.971  0.00  0.00    +0.000 OA
ENDROOT
BRANCH   1  15
ATOM     11  C   UNL     1       1.942   7.414  19.940  0.00  0.00    +0.000 A 
ATOM     12  C   UNL     1       2.312   8.247  18.875  0.00  0.00    +0.000 A 
ATOM     13  C   UNL     1       2.896   7.711  17.727  0.00  0.00    +0.000 A 
ATOM     14  C   UNL     1       3.221   6.360  17.674  0.00  0.00    +0.000 A 
ATOM     15  C   UNL     1       3.051   5.567  18.818  0.00  0.00    +0.000 A 
ATOM     16  C   UNL     1       2.262   6.050  19.867  0.00  0.00    +0.000 A 
BRANCH  11  17
ATOM     17  C   UNL     1       1.259   7.977  21.163  0.00  0.00    +0.000 C 
BRANCH  17  21
ATOM     18  C   UNL     1      -0.004  11.515  20.160  0.00  0.00    +0.000 C 
ATOM     19  N   UNL     1      -0.048  10.280  20.921  0.00  0.00    +0.000 N 
ATOM     20  N   UNL     1       0.889  10.338  21.957  0.00  0.00    +0.000 NA
ATOM     21  C   UNL     1       0.956   9.414  21.081  0.00  0.00    +0.000 C 
ENDBRANCH  17  21
ENDBRANCH  11  17
ENDBRANCH   1  15
BRANCH   8  22
ATOM     22  C   UNL     1       7.308   7.108  17.560  0.00  0.00    +0.000 C 
ATOM     23  F   UNL     1       8.178   7.689  16.693  0.00  0.00    +0.000 F 
ATOM     24  F   UNL     1       6.357   8.051  17.809  0.00  0.00    +0.000 F 
ATOM     25  F   UNL     1       7.998   6.959  18.728  0.00  0.00    +0.000 F 
ENDBRANCH   8  22
BRANCH   6  26
ATOM     26  C   UNL     1       6.341   4.012  13.689  0.00  0.00    +0.000 C 
ATOM     27  F   UNL     1       5.133   3.832  13.085  0.00  0.00    +0.000 F 
ENDBRANCH   6  26
TORSDOF 5
ENDMDL
MODEL 2
REMARK VINA RESULT:      -7.9      3.685      5.927
REMARK  Name = 
REMARK  6 active torsions:
REMARK  status: ('A' for Active; 'I' for Inactive)
REMARK    1  A    between atoms: C_1  and  N_2
REMARK    2  A    between atoms: C_4  and  C_5
REMARK    3  A    between atoms: C_5  and  C_6
REMARK    4  A    between atoms: C_10  and  N_11
REMARK    5  A    between atoms: C_16  and  C_17
REMARK    6  A    between atoms: C_20  and  C_21
REMARK                            x       y       z     vdW  Elec       q    Type
REMARK                         _______ _______ _______ _____ _____    ______ ____
ROOT
ATOM      1  N   UNL     1       6.045   5.393  15.696  0.00  0.00    +0.000 N 
ATOM      2  C   UNL     1       4.830   6.225  15.876  0.00  0.00    +0.000 C 
ATOM      3  C   UNL     1       4.091   5.461  16.933  0.00  0.00    +0.000 A 
ATOM      4  C   UNL     1       4.464   4.121  16.820  0.00  0.00    +0.000 A 
ATOM      5  C   UNL     1       4.086   3.143  17.720  0.00  0.00    +0.000 A 
ATOM      6  C   UNL     1       3.309   3.541  18.810  0.00  0.00    +0.000 A 
ATOM      7  C   UNL     1       2.938   4.901  18.947  0.00  0.00    +0.000 A 
ATOM      8  C   UNL     1       3.327   5.888  18.013  0.00  0.00    +0.000 A 
ATOM      9  C   UNL     1       5.632   4.056  15.905  0.00  0.00    +0.000 C 
ATOM     10  O   UNL     1       6.201   3.023  15.606  0.00  0.00    +0.000 OA
ENDROOT
BRANCH   1  15
ATOM     11  C   UNL     1       7.707   7.893  17.757  0.00  0.00    +0.000 A 
ATOM     12  C   UNL     1       7.899   7.118  18.909  0.00  0.00    +0.000 A 
ATOM     13  C   UNL     1       7.861   5.725  18.840  0.00  0.00    +0.000 A 
ATOM     14  C   UNL     1       7.521   5.095  17.647  0.00  0.00    +0.000 A 
ATOM     15  C   UNL     1       7.118   5.870  16.550  0.00  0.00    +0.000 A 
ATOM     16  C   UNL     1       7.380   7.244  16.558  0.00  0.00    +0.000 A 
BRANCH  11  17
ATOM     17  C   UNL     1       7.801   9.399  17.813  0.00  0.00    +0.000 C 
BRANCH  17  21
ATOM     18  C   UNL     1      11.124  11.173  18.776  0.00  0.00    +0.000 C 
ATOM     19  N   UNL     1       9.681  11.029  18.752  0.00  0.00    +0.000 N 
ATOM     20  N   UNL     1       9.289  10.100  19.720  0.00  0.00    +0.000 NA
ATOM     21  C   UNL     1       9.001   9.908  18.493  0.00  0.00    +0.000 C 
ENDBRANCH  17  21
ENDBRANCH  11  17
ENDBRANCH   1  15
BRANCH   8  22
ATOM     22  C   UNL     1       3.009   7.333  18.296  0.00  0.00    +0.000 C 
ATOM     23  F   UNL     1       2.666   7.594  19.585  0.00  0.00    +0.000 F 
ATOM     24  F   UNL     1       4.060   8.157  18.026  0.00  0.00    +0.000 F 
ATOM     25  F   UNL     1       1.971   7.794  17.540  0.00  0.00    +0.000 F 
ENDBRANCH   8  22
BRANCH   6  26
ATOM     26  C   UNL     1       2.949   2.537  19.876  0.00  0.00    +0.000 C 
ATOM     27  F   UNL     1       1.605   2.378  20.031  0.00  0.00    +0.000 F 
ENDBRANCH   6  26
TORSDOF 5
ENDMDL
MODEL 3
REMARK VINA RESULT:      -7.8      0.969      1.348
REMARK  Name = 
REMARK  6 active torsions:
REMARK  status: ('A' for Active; 'I' for Inactive)
REMARK    1  A    between atoms: C_1  and  N_2
REMARK    2  A    between atoms: C_4  and  C_5
REMARK    3  A    between atoms: C_5  and  C_6
REMARK    4  A    between atoms: C_10  and  N_11
REMARK    5  A    between atoms: C_16  and  C_17
REMARK    6  A    between atoms: C_20  and  C_21
REMARK                            x       y       z     vdW  Elec       q    Type
REMARK                         _______ _______ _______ _____ _____    ______ ____
ROOT
ATOM      1  N   UNL     1       3.111   3.862  18.844  0.00  0.00    +0.000 N 
ATOM      2  C   UNL     1       4.496   4.029  19.349  0.00  0.00    +0.000 C 
ATOM      3  C   UNL     1       5.280   4.087  18.072  0.00  0.00    +0.000 A 
ATOM      4  C   UNL     1       4.570   3.368  17.111  0.00  0.00    +0.000 A 
ATOM      5  C   UNL     1       4.923   3.321  15.775  0.00  0.00    +0.000 A 
ATOM      6  C   UNL     1       6.040   4.062  15.382  0.00  0.00    +0.000 A 
ATOM      7  C   UNL     1       6.759   4.811  16.345  0.00  0.00    +0.000 A 
ATOM      8  C   UNL     1       6.389   4.842  17.708  0.00  0.00    +0.000 A 
ATOM      9  C   UNL     1       3.220   3.091  17.663  0.00  0.00    +0.000 C 
ATOM     10  O   UNL     1       2.354   2.485  17.061  0.00  0.00    +0.000 OA
ENDROOT
BRANCH   1  15
ATOM     11  C   UNL     1       1.829   7.022  20.121  0.00  0.00    +0.000 A 
ATOM     12  C   UNL     1       2.476   7.885  19.225  0.00  0.00    +0.000 A 
ATOM     13  C   UNL     1       2.962   7.407  18.008  0.00  0.00    +0.000 A 
ATOM     14  C   UNL     1       2.910   6.047  17.722  0.00  0.00    +0.000 A 
ATOM     15  C   UNL     1       2.462   5.153  18.705  0.00  0.00    +0.000 A 
ATOM     16  C   UNL     1       1.771   5.656  19.813  0.00  0.00    +0.000 A 
BRANCH  11  17
ATOM     17  C   UNL     1       1.251   7.541  21.416  0.00  0.00    +0.000 C 
BRANCH  17  21
ATOM     18  C   UNL     1       0.874  11.368  20.833  0.00  0.00    +0.000 C 
ATOM     19  N   UNL     1       0.460  10.080  21.357  0.00  0.00    +0.000 N 
ATOM     20  N   UNL     1       1.174   9.800  22.527  0.00  0.00    +0.000 NA
ATOM     21  C   UNL     1       1.238   9.008  21.530  0.00  0.00    +0.000 C 
ENDBRANCH  17  21
ENDBRANCH  11  17
ENDBRANCH   1  15
BRANCH   8  22
ATOM     22  C   UNL     1       7.120   5.767  18.647  0.00  0.00    +0.000 C 
ATOM     23  F   UNL     1       6.513   5.945  19.850  0.00  0.00    +0.000 F 
ATOM     24  F   UNL     1       8.376   5.326  18.934  0.00  0.00    +0.000 F 
ATOM     25  F   UNL     1       7.276   7.018  18.125  0.00  0.00    +0.000 F 
ENDBRANCH   8  22
BRANCH   6  26
ATOM     26  C   UNL     1       6.415   4.128  13.923  0.00  0.00    +0.000 C 
ATOM     27  F   UNL     1       5.401   3.757  13.091  0.00  0.00    +0.000 F 
ENDBRANCH   6  26
TORSDOF 5
ENDMDL
MODEL 4
REMARK VINA RESULT:      -7.4      7.227      9.845
REMARK  Name = 
REMARK  6 active torsions:
REMARK  status: ('A' for Active; 'I' for Inactive)
REMARK    1  A    between atoms: C_1  and  N_2
REMARK    2  A    between atoms: C_4  and  C_5
REMARK    3  A    between atoms: C_5  and  C_6
REMARK    4  A    between atoms: C_10  and  N_11
REMARK    5  A    between atoms: C_16  and  C_17
REMARK    6  A    between atoms: C_20  and  C_21
REMARK                            x       y       z     vdW  Elec       q    Type
REMARK                         _______ _______ _______ _____ _____    ______ ____
ROOT
ATOM      1  N   UNL     1      -0.254  11.328  18.458  0.00  0.00    +0.000 N 
ATOM      2  C   UNL     1       0.487  10.552  19.482  0.00  0.00    +0.000 C 
ATOM      3  C   UNL     1       0.031  11.209  20.751  0.00  0.00    +0.000 A 
ATOM      4  C   UNL     1      -0.306  12.528  20.442  0.00  0.00    +0.000 A 
ATOM      5  C   UNL     1      -0.899  13.396  21.340  0.00  0.00    +0.000 A 
ATOM      6  C   UNL     1      -1.190  12.900  22.612  0.00  0.00    +0.000 A 
ATOM      7  C   UNL     1      -0.870  11.559  22.933  0.00  0.00    +0.000 A 
ATOM      8  C   UNL     1      -0.258  10.686  22.005  0.00  0.00    +0.000 A 
ATOM      9  C   UNL     1      -0.346  12.646  18.963  0.00  0.00    +0.000 C 
ATOM     10  O   UNL     1      -0.620  13.675  18.373  0.00  0.00    +0.000 OA
ENDROOT
BRANCH   1  15
ATOM     11  C   UNL     1      -3.839  11.296  17.819  0.00  0.00    +0.000 A 
ATOM     12  C   UNL     1      -3.826  10.606  16.599  0.00  0.00    +0.000 A 
ATOM     13  C   UNL     1      -2.726   9.828  16.238  0.00  0.00    +0.000 A 
ATOM     14  C   UNL     1      -1.585   9.820  17.033  0.00  0.00    +0.000 A 
ATOM     15  C   UNL     1      -1.513  10.678  18.141  0.00  0.00    +0.000 A 
ATOM     16  C   UNL     1      -2.688  11.267  18.619  0.00  0.00    +0.000 A 
BRANCH  11  17
ATOM     17  C   UNL     1      -5.047  12.096  18.243  0.00  0.00    +0.000 C 
BRANCH  17  21
ATOM     18  C   UNL     1      -7.705  10.817  20.778  0.00  0.00    +0.000 C 
ATOM     19  N   UNL     1      -7.274  11.413  19.527  0.00  0.00    +0.000 N 
ATOM     20  N   UNL     1      -6.871  10.406  18.645  0.00  0.00    +0.000 NA
ATOM     21  C   UNL     1      -6.056  11.325  18.986  0.00  0.00    +0.000 C 
ENDBRANCH  17  21
ENDBRANCH  11  17
ENDBRANCH   1  15
BRANCH   8  22
ATOM     22  C   UNL     1      -0.071   9.237  22.374  0.00  0.00    +0.000 C 
ATOM     23  F   UNL     1       1.157   8.733  22.079  0.00  0.00    +0.000 F 
ATOM     24  F   UNL     1      -0.244   9.015  23.706  0.00  0.00    +0.000 F 
ATOM     25  F   UNL     1      -0.964   8.421  21.742  0.00  0.00    +0.000 F 
ENDBRANCH   8  22
BRANCH   6  26
ATOM     26  C   UNL     1      -1.925  13.771  23.600  0.00  0.00    +0.000 C 
ATOM     27  F   UNL     1      -1.095  14.428  24.458  0.00  0.00    +0.000 F 
ENDBRANCH   6  26
TORSDOF 5
ENDMDL
MODEL 5
REMARK VINA RESULT:      -7.3      1.474      1.967
REMARK  Name = 
REMARK  6 active torsions:
REMARK  status: ('A' for Active; 'I' for Inactive)
REMARK    1  A    between atoms: C_1  and  N_2
REMARK    2  A    between atoms: C_4  and  C_5
REMARK    3  A    between atoms: C_5  and  C_6
REMARK    4  A    between atoms: C_10  and  N_11
REMARK    5  A    between atoms: C_16  and  C_17
REMARK    6  A    between atoms: C_20  and  C_21
REMARK                            x       y       z     vdW  Elec       q    Type
REMARK                         _______ _______ _______ _____ _____    ______ ____
ROOT
ATOM      1  N   UNL     1       4.443   3.811  19.211  0.00  0.00    +0.000 N 
ATOM      2  C   UNL     1       5.712   4.580  19.233  0.00  0.00    +0.000 C 
ATOM      3  C   UNL     1       6.073   4.611  17.778  0.00  0.00    +0.000 A 
ATOM      4  C   UNL     1       5.516   3.478  17.183  0.00  0.00    +0.000 A 
ATOM      5  C   UNL     1       5.528   3.246  15.821  0.00  0.00    +0.000 A 
ATOM      6  C   UNL     1       6.110   4.222  15.010  0.00  0.00    +0.000 A 
ATOM      7  C   UNL     1       6.662   5.385  15.599  0.00  0.00    +0.000 A 
ATOM      8  C   UNL     1       6.649   5.604  16.995  0.00  0.00    +0.000 A 
ATOM      9  C   UNL     1       4.576   2.874  18.160  0.00  0.00    +0.000 C 
ATOM     10  O   UNL     1       3.921   1.873  17.939  0.00  0.00    +0.000 OA
ENDROOT
BRANCH   1  15
ATOM     11  C   UNL     1       2.771   6.860  18.130  0.00  0.00    +0.000 A 
ATOM     12  C   UNL     1       1.634   6.279  17.551  0.00  0.00    +0.000 A 
ATOM     13  C   UNL     1       1.253   4.980  17.889  0.00  0.00    +0.000 A 
ATOM     14  C   UNL     1       2.061   4.209  18.718  0.00  0.00    +0.000 A 
ATOM     15  C   UNL     1       3.306   4.711  19.125  0.00  0.00    +0.000 A 
ATOM     16  C   UNL     1       3.568   6.076  18.976  0.00  0.00    +0.000 A 
BRANCH  11  17
ATOM     17  C   UNL     1       3.160   8.284  17.812  0.00  0.00    +0.000 C 
BRANCH  17  21
ATOM     18  C   UNL     1      -0.242  10.086  18.365  0.00  0.00    +0.000 C 
ATOM     19  N   UNL     1       1.121   9.732  18.717  0.00  0.00    +0.000 N 
ATOM     20  N   UNL     1       2.012  10.520  17.981  0.00  0.00    +0.000 NA
ATOM     21  C   UNL     1       2.052   9.248  17.890  0.00  0.00    +0.000 C 
ENDBRANCH  17  21
ENDBRANCH  11  17
ENDBRANCH   1  15
BRANCH   8  22
ATOM     22  C   UNL     1       7.133   6.925  17.536  0.00  0.00    +0.000 C 
ATOM     23  F   UNL     1       7.738   6.849  18.750  0.00  0.00    +0.000 F 
ATOM     24  F   UNL     1       8.041   7.519  16.713  0.00  0.00    +0.000 F 
ATOM     25  F   UNL     1       6.121   7.827  17.685  0.00  0.00    +0.000 F 
ENDBRANCH   8  22
BRANCH   6  26
ATOM     26  C   UNL     1       6.065   4.069  13.510  0.00  0.00    +0.000 C 
ATOM     27  F   UNL     1       4.805   3.872  13.029  0.00  0.00    +0.000 F 
ENDBRANCH   6  26
TORSDOF 5
ENDMDL
MODEL 6
REMARK VINA RESULT:      -7.2      4.350      7.804
REMARK  Name = 
REMARK  6 active torsions:
REMARK  status: ('A' for Active; 'I' for Inactive)
REMARK    1  A    between atoms: C_1  and  N_2
REMARK    2  A    between atoms: C_4  and  C_5
REMARK    3  A    between atoms: C_5  and  C_6
REMARK    4  A    between atoms: C_10  and  N_11
REMARK    5  A    between atoms: C_16  and  C_17
REMARK    6  A    between atoms: C_20  and  C_21
REMARK                            x       y       z     vdW  Elec       q    Type
REMARK                         _______ _______ _______ _____ _____    ______ ____
ROOT
ATOM      1  N   UNL     1       2.562   7.661  19.325  0.00  0.00    +0.000 N 
ATOM      2  C   UNL     1       2.229   8.425  20.552  0.00  0.00    +0.000 C 
ATOM      3  C   UNL     1       1.049   9.231  20.098  0.00  0.00    +0.000 A 
ATOM      4  C   UNL     1       1.174   9.418  18.720  0.00  0.00    +0.000 A 
ATOM      5  C   UNL     1       0.197  10.000  17.935  0.00  0.00    +0.000 A 
ATOM      6  C   UNL     1      -0.984  10.393  18.569  0.00  0.00    +0.000 A 
ATOM      7  C   UNL     1      -1.132  10.192  19.963  0.00  0.00    +0.000 A 
ATOM      8  C   UNL     1      -0.119   9.603  20.753  0.00  0.00    +0.000 A 
ATOM      9  C   UNL     1       2.251   8.515  18.241  0.00  0.00    +0.000 C 
ATOM     10  O   UNL     1       2.599   8.434  17.078  0.00  0.00    +0.000 OA
ENDROOT
BRANCH   1  15
ATOM     11  C   UNL     1       2.274   4.132  18.473  0.00  0.00    +0.000 A 
ATOM     12  C   UNL     1       2.036   3.627  19.759  0.00  0.00    +0.000 A 
ATOM     13  C   UNL     1       1.574   4.465  20.775  0.00  0.00    +0.000 A 
ATOM     14  C   UNL     1       1.453   5.832  20.550  0.00  0.00    +0.000 A 
ATOM     15  C   UNL     1       1.894   6.372  19.333  0.00  0.00    +0.000 A 
ATOM     16  C   UNL     1       2.132   5.510  18.257  0.00  0.00    +0.000 A 
BRANCH  11  17
ATOM     17  C   UNL     1       2.721   3.222  17.355  0.00  0.00    +0.000 C 
BRANCH  17  21
ATOM     18  C   UNL     1       5.983   3.835  15.328  0.00  0.00    +0.000 C 
ATOM     19  N   UNL     1       4.871   4.242  16.168  0.00  0.00    +0.000 N 
ATOM     20  N   UNL     1       5.142   3.901  17.497  0.00  0.00    +0.000 NA
ATOM     21  C   UNL     1       4.107   3.439  16.913  0.00  0.00    +0.000 C 
ENDBRANCH  17  21
ENDBRANCH  11  17
ENDBRANCH   1  15
BRANCH   8  22
ATOM     22  C   UNL     1      -0.401   9.300  22.202  0.00  0.00    +0.000 C 
ATOM     23  F   UNL     1       0.698   9.298  23.003  0.00  0.00    +0.000 F 
ATOM     24  F   UNL     1      -1.257  10.199  22.762  0.00  0.00    +0.000 F 
ATOM     25  F   UNL     1      -0.982   8.077  22.373  0.00  0.00    +0.000 F 
ENDBRANCH   8  22
BRANCH   6  26
ATOM     26  C   UNL     1      -2.123  10.943  17.749  0.00  0.00    +0.000 C 
ATOM     27  F   UNL     1      -3.299  10.287  17.956  0.00  0.00    +0.000 F 
ENDBRANCH   6  26
TORSDOF 5
ENDMDL
MODEL 7
REMARK VINA RESULT:      -7.1      2.972      4.472
REMARK  Name = 
REMARK  6 active torsions:
REMARK  status: ('A' for Active; 'I' for Inactive)
REMARK    1  A    between atoms: C_1  and  N_2
REMARK    2  A    between atoms: C_4  and  C_5
REMARK    3  A    between atoms: C_5  and  C_6
REMARK    4  A    between atoms: C_10  and  N_11
REMARK    5  A    between atoms: C_16  and  C_17
REMARK    6  A    between atoms: C_20  and  C_21
REMARK                            x       y       z     vdW  Elec       q    Type
REMARK                         _______ _______ _______ _____ _____    ______ ____
ROOT
ATOM      1  N   UNL     1       2.171   7.076  17.971  0.00  0.00    +0.000 N 
ATOM      2  C   UNL     1       2.079   5.613  18.193  0.00  0.00    +0.000 C 
ATOM      3  C   UNL     1       3.519   5.244  18.391  0.00  0.00    +0.000 A 
ATOM      4  C   UNL     1       4.290   6.176  17.694  0.00  0.00    +0.000 A 
ATOM      5  C   UNL     1       5.669   6.232  17.763  0.00  0.00    +0.000 A 
ATOM      6  C   UNL     1       6.306   5.314  18.600  0.00  0.00    +0.000 A 
ATOM      7  C   UNL     1       5.535   4.374  19.327  0.00  0.00    +0.000 A 
ATOM      8  C   UNL     1       4.126   4.326  19.240  0.00  0.00    +0.000 A 
ATOM      9  C   UNL     1       3.393   7.289  17.293  0.00  0.00    +0.000 C 
ATOM     10  O   UNL     1       3.766   8.268  16.674  0.00  0.00    +0.000 OA
ENDROOT
BRANCH   1  15
ATOM     11  C   UNL     1       0.577   9.530  20.140  0.00  0.00    +0.000 A 
ATOM     12  C   UNL     1       0.308   8.696  21.234  0.00  0.00    +0.000 A 
ATOM     13  C   UNL     1       1.005   7.499  21.400  0.00  0.00    +0.000 A 
ATOM     14  C   UNL     1       1.894   7.068  20.420  0.00  0.00    +0.000 A 
ATOM     15  C   UNL     1       2.004   7.791  19.224  0.00  0.00    +0.000 A 
ATOM     16  C   UNL     1       1.487   9.089  19.168  0.00  0.00    +0.000 A 
BRANCH  11  17
ATOM     17  C   UNL     1      -0.133  10.853  19.981  0.00  0.00    +0.000 C 
BRANCH  17  21
ATOM     18  C   UNL     1      -2.226  10.169  16.776  0.00  0.00    +0.000 C 
ATOM     19  N   UNL     1      -1.994  10.169  18.209  0.00  0.00    +0.000 N 
ATOM     20  N   UNL     1      -2.230  11.449  18.719  0.00  0.00    +0.000 NA
ATOM     21  C   UNL     1      -1.088  10.900  18.863  0.00  0.00    +0.000 C 
ENDBRANCH  17  21
ENDBRANCH  11  17
ENDBRANCH   1  15
BRANCH   8  22
ATOM     22  C   UNL     1       3.366   3.389  20.144  0.00  0.00    +0.000 C 
ATOM     23  F   UNL     1       4.134   2.453  20.760  0.00  0.00    +0.000 F 
ATOM     24  F   UNL     1       2.721   4.048  21.146  0.00  0.00    +0.000 F 
ATOM     25  F   UNL     1       2.401   2.692  19.476  0.00  0.00    +0.000 F 
ENDBRANCH   8  22
BRANCH   6  26
ATOM     26  C   UNL     1       7.800   5.391  18.791  0.00  0.00    +0.000 C 
ATOM     27  F   UNL     1       8.277   6.667  18.787  0.00  0.00    +0.000 F 
ENDBRANCH   6  26
TORSDOF 5
ENDMDL
MODEL 8
REMARK VINA RESULT:      -7.1      5.979      9.055
REMARK  Name = 
REMARK  6 active torsions:
REMARK  status: ('A' for Active; 'I' for Inactive)
REMARK    1  A    between atoms: C_1  and  N_2
REMARK    2  A    between atoms: C_4  and  C_5
REMARK    3  A    between atoms: C_5  and  C_6
REMARK    4  A    between atoms: C_10  and  N_11
REMARK    5  A    between atoms: C_16  and  C_17
REMARK    6  A    between atoms: C_20  and  C_21
REMARK                            x       y       z     vdW  Elec       q    Type
REMARK                         _______ _______ _______ _____ _____    ______ ____
ROOT
ATOM      1  N   UNL     1      -1.458  12.475  18.430  0.00  0.00    +0.000 N 
ATOM      2  C   UNL     1      -0.080  11.973  18.202  0.00  0.00    +0.000 C 
ATOM      3  C   UNL     1       0.180  11.212  19.468  0.00  0.00    +0.000 A 
ATOM      4  C   UNL     1      -0.597  11.792  20.472  0.00  0.00    +0.000 A 
ATOM      5  C   UNL     1      -0.719  11.265  21.745  0.00  0.00    +0.000 A 
ATOM      6  C   UNL     1      -0.039  10.075  22.013  0.00  0.00    +0.000 A 
ATOM      7  C   UNL     1       0.738   9.467  20.997  0.00  0.00    +0.000 A 
ATOM      8  C   UNL     1       0.858  10.022  19.703  0.00  0.00    +0.000 A 
ATOM      9  C   UNL     1      -1.556  12.719  19.820  0.00  0.00    +0.000 C 
ATOM     10  O   UNL     1      -2.382  13.375  20.426  0.00  0.00    +0.000 OA
ENDROOT
BRANCH   1  15
ATOM     11  C   UNL     1      -4.762  11.577  17.190  0.00  0.00    +0.000 A 
ATOM     12  C   UNL     1      -4.379  11.025  15.960  0.00  0.00    +0.000 A 
ATOM     13  C   UNL     1      -3.069  10.592  15.755  0.00  0.00    +0.000 A 
ATOM     14  C   UNL     1      -2.102  10.808  16.732  0.00  0.00    +0.000 A 
ATOM     15  C   UNL     1      -2.432  11.553  17.874  0.00  0.00    +0.000 A 
ATOM     16  C   UNL     1      -3.780  11.775  18.172  0.00  0.00    +0.000 A 
BRANCH  11  17
ATOM     17  C   UNL     1      -6.191  11.997  17.439  0.00  0.00    +0.000 C 
BRANCH  17  21
ATOM     18  C   UNL     1      -7.366   9.312  19.995  0.00  0.00    +0.000 C 
ATOM     19  N   UNL     1      -6.648  10.508  19.595  0.00  0.00    +0.000 N 
ATOM     20  N   UNL     1      -7.537  11.585  19.528  0.00  0.00    +0.000 NA
ATOM     21  C   UNL     1      -6.872  11.236  18.497  0.00  0.00    +0.000 C 
ENDBRANCH  17  21
ENDBRANCH  11  17
ENDBRANCH   1  15
BRANCH   8  22
ATOM     22  C   UNL     1       1.591   9.249  18.638  0.00  0.00    +0.000 C 
ATOM     23  F   UNL     1       2.609   9.929  18.047  0.00  0.00    +0.000 F 
ATOM     24  F   UNL     1       2.149   8.105  19.121  0.00  0.00    +0.000 F 
ATOM     25  F   UNL     1       0.770   8.861  17.619  0.00  0.00    +0.000 F 
ENDBRANCH   8  22
BRANCH   6  26
ATOM     26  C   UNL     1      -0.214   9.403  23.352  0.00  0.00    +0.000 C 
ATOM     27  F   UNL     1       0.940   9.338  24.073  0.00  0.00    +0.000 F 
ENDBRANCH   6  26
TORSDOF 5
ENDMDL
MODEL 9
REMARK VINA RESULT:      -6.9      7.264      9.825
REMARK  Name = 
REMARK  6 active torsions:
REMARK  status: ('A' for Active; 'I' for Inactive)
REMARK    1  A    between atoms: C_1  and  N_2
REMARK    2  A    between atoms: C_4  and  C_5
REMARK    3  A    between atoms: C_5  and  C_6
REMARK    4  A    between atoms: C_10  and  N_11
REMARK    5  A    between atoms: C_16  and  C_17
REMARK    6  A    between atoms: C_20  and  C_21
REMARK                            x       y       z     vdW  Elec       q    Type
REMARK                         _______ _______ _______ _____ _____    ______ ____
ROOT
ATOM      1  N   UNL     1      -0.405  11.366  18.363  0.00  0.00    +0.000 N 
ATOM      2  C   UNL     1       0.347  10.541  19.340  0.00  0.00    +0.000 C 
ATOM      3  C   UNL     1      -0.054  11.171  20.641  0.00  0.00    +0.000 A 
ATOM      4  C   UNL     1      -0.367  12.506  20.381  0.00  0.00    +0.000 A 
ATOM      5  C   UNL     1      -0.909  13.361  21.322  0.00  0.00    +0.000 A 
ATOM      6  C   UNL     1      -1.175  12.835  22.588  0.00  0.00    +0.000 A 
ATOM      7  C   UNL     1      -0.879  11.477  22.859  0.00  0.00    +0.000 A 
ATOM      8  C   UNL     1      -0.318  10.618  21.888  0.00  0.00    +0.000 A 
ATOM      9  C   UNL     1      -0.448  12.670  18.908  0.00  0.00    +0.000 C 
ATOM     10  O   UNL     1      -0.714  13.722  18.357  0.00  0.00    +0.000 OA
ENDROOT
BRANCH   1  15
ATOM     11  C   UNL     1      -3.955  11.465  17.554  0.00  0.00    +0.000 A 
ATOM     12  C   UNL     1      -3.935  10.627  16.431  0.00  0.00    +0.000 A 
ATOM     13  C   UNL     1      -2.874   9.745  16.224  0.00  0.00    +0.000 A 
ATOM     14  C   UNL     1      -1.770   9.771  17.071  0.00  0.00    +0.000 A 
ATOM     15  C   UNL     1      -1.689  10.756  18.066  0.00  0.00    +0.000 A 
ATOM     16  C   UNL     1      -2.842  11.470  18.408  0.00  0.00    +0.000 A 
BRANCH  11  17
ATOM     17  C   UNL     1      -5.125  12.383  17.815  0.00  0.00    +0.000 C 
BRANCH  17  21
ATOM     18  C   UNL     1      -7.308  10.212  20.192  0.00  0.00    +0.000 C 
ATOM     19  N   UNL     1      -6.181  11.069  19.873  0.00  0.00    +0.000 N 
ATOM     20  N   UNL     1      -6.599  12.403  19.858  0.00  0.00    +0.000 NA
ATOM     21  C   UNL     1      -6.078  11.881  18.818  0.00  0.00    +0.000 C 
ENDBRANCH  17  21
ENDBRANCH  11  17
ENDBRANCH   1  15
BRANCH   8  22
ATOM     22  C   UNL     1      -0.156   9.154  22.208  0.00  0.00    +0.000 C 
ATOM     23  F   UNL     1      -0.926   8.324  21.457  0.00  0.00    +0.000 F 
ATOM     24  F   UNL     1       1.124   8.724  22.031  0.00  0.00    +0.000 F 
ATOM     25  F   UNL     1      -0.467   8.869  23.506  0.00  0.00    +0.000 F 
ENDBRANCH   8  22
BRANCH   6  26
ATOM     26  C   UNL     1      -1.857  13.694  23.623  0.00  0.00    +0.000 C 
ATOM     27  F   UNL     1      -3.082  13.222  23.989  0.00  0.00    +0.000 F 
ENDBRANCH   6  26
TORSDOF 5
ENDMDL
