MODEL 1
REMARK VINA RESULT:      -8.4      0.000      0.000
REMARK  Name = 
REMARK  5 active torsions:
REMARK  status: ('A' for Active; 'I' for Inactive)
REMARK    1  A    between atoms: C_1  and  N_2
REMARK    2  A    between atoms: C_6  and  C_7
REMARK    3  A    between atoms: C_7  and  C_8
REMARK    4  A    between atoms: C_10  and  N_11
REMARK    5  A    between atoms: C_18  and  C_19
REMARK                            x       y       z     vdW  Elec       q    Type
REMARK                         _______ _______ _______ _____ _____    ______ ____
ROOT
ATOM      1  N   UNL     1       0.788   9.549  18.871  0.00  0.00    +0.000 N 
ATOM      2  C   UNL     1      -0.277   9.685  17.882  0.00  0.00    +0.000 C 
ATOM      3  C   UNL     1      -1.230  10.649  18.525  0.00  0.00    +0.000 A 
ATOM      4  C   UNL     1      -0.731  11.024  19.769  0.00  0.00    +0.000 A 
ATOM      5  C   UNL     1      -1.390  11.881  20.630  0.00  0.00    +0.000 A 
ATOM      6  C   UNL     1      -2.610  12.397  20.209  0.00  0.00    +0.000 A 
ATOM      7  C   UNL     1      -3.134  12.039  18.954  0.00  0.00    +0.000 A 
ATOM      8  C   UNL     1      -2.454  11.155  18.088  0.00  0.00    +0.000 A 
ATOM      9  C   UNL     1       0.542  10.343  19.997  0.00  0.00    +0.000 C 
ATOM     10  O   UNL     1       1.182  10.505  21.017  0.00  0.00    +0.000 OA
ENDROOT
BRANCH   1  13
ATOM     11  C   UNL     1       2.715   6.423  19.433  0.00  0.00    +0.000 A 
ATOM     12  C   UNL     1       1.871   7.502  19.677  0.00  0.00    +0.000 A 
ATOM     13  C   UNL     1       1.806   8.562  18.767  0.00  0.00    +0.000 A 
ATOM     14  C   UNL     1       2.717   8.562  17.710  0.00  0.00    +0.000 A 
ATOM     15  C   UNL     1       3.598   7.497  17.593  0.00  0.00    +0.000 A 
ATOM     16  N   UNL     1       3.596   6.420  18.407  0.00  0.00    +0.000 NA
BRANCH  11  17
ATOM     17  C   UNL     1       2.572   5.149  20.246  0.00  0.00    +0.000 C 
BRANCH  17  23
ATOM     18  C   UNL     1       1.549   2.618  21.624  0.00  0.00    +0.000 C 
ATOM     19  N   UNL     1       1.395   2.843  20.202  0.00  0.00    +0.000 NA
ATOM     20  C   UNL     1       2.364   2.125  19.385  0.00  0.00    +0.000 C 
ATOM     21  C   UNL     1       2.064   2.659  17.995  0.00  0.00    +0.000 C 
ATOM     22  C   UNL     1       1.437   4.034  18.219  0.00  0.00    +0.000 C 
ATOM     23  C   UNL     1       1.413   4.242  19.742  0.00  0.00    +0.000 C 
ENDBRANCH  17  23
ENDBRANCH  11  17
ENDBRANCH   1  13
BRANCH   8  24
ATOM     24  C   UNL     1      -3.072  10.797  16.763  0.00  0.00    +0.000 C 
ATOM     25  F   UNL     1      -3.238   9.458  16.582  0.00  0.00    +0.000 F 
ATOM     26  F   UNL     1      -4.304  11.352  16.598  0.00  0.00    +0.000 F 
ATOM     27  F   UNL     1      -2.322  11.226  15.711  0.00  0.00    +0.000 F 
ENDBRANCH   8  24
TORSDOF 4
ENDMDL
MODEL 2
REMARK VINA RESULT:      -8.3      3.581      5.089
REMARK  Name = 
REMARK  5 active torsions:
REMARK  status: ('A' for Active; 'I' for Inactive)
REMARK    1  A    between atoms: C_1  and  N_2
REMARK    2  A    between atoms: C_6  and  C_7
REMARK    3  A    between atoms: C_7  and  C_8
REMARK    4  A    between atoms: C_10  and  N_11
REMARK    5  A    between atoms: C_18  and  C_19
REMARK                            x       y       z     vdW  Elec       q    Type
REMARK                         _______ _______ _______ _____ _____    ______ ____
ROOT
ATOM      1  N   UNL     1       1.778   7.697  19.383  0.00  0.00    +0.000 N 
ATOM      2  C   UNL     1       1.140   7.963  20.670  0.00  0.00    +0.000 C 
ATOM      3  C   UNL     1       0.786   9.418  20.591  0.00  0.00    +0.000 A 
ATOM      4  C   UNL     1       1.188   9.920  19.356  0.00  0.00    +0.000 A 
ATOM      5  C   UNL     1       1.033  11.241  18.982  0.00  0.00    +0.000 A 
ATOM      6  C   UNL     1       0.430  12.098  19.895  0.00  0.00    +0.000 A 
ATOM      7  C   UNL     1       0.010  11.616  21.146  0.00  0.00    +0.000 A 
ATOM      8  C   UNL     1       0.183  10.265  21.520  0.00  0.00    +0.000 A 
ATOM      9  C   UNL     1       1.809   8.845  18.584  0.00  0.00    +0.000 C 
ATOM     10  O   UNL     1       2.244   9.029  17.465  0.00  0.00    +0.000 OA
ENDROOT
BRANCH   1  13
ATOM     11  C   UNL     1       3.862   5.163  17.642  0.00  0.00    +0.000 A 
ATOM     12  C   UNL     1       2.998   6.236  17.839  0.00  0.00    +0.000 A 
ATOM     13  C   UNL     1       2.464   6.482  19.107  0.00  0.00    +0.000 A 
ATOM     14  C   UNL     1       2.706   5.538  20.105  0.00  0.00    +0.000 A 
ATOM     15  C   UNL     1       3.496   4.439  19.801  0.00  0.00    +0.000 A 
ATOM     16  N   UNL     1       4.101   4.248  18.609  0.00  0.00    +0.000 NA
BRANCH  11  17
ATOM     17  C   UNL     1       4.672   5.066  16.361  0.00  0.00    +0.000 C 
BRANCH  17  23
ATOM     18  C   UNL     1       7.138   4.744  14.582  0.00  0.00    +0.000 C 
ATOM     19  N   UNL     1       7.191   5.405  15.869  0.00  0.00    +0.000 NA
ATOM     20  C   UNL     1       7.731   4.573  16.936  0.00  0.00    +0.000 C 
ATOM     21  C   UNL     1       7.527   5.453  18.157  0.00  0.00    +0.000 C 
ATOM     22  C   UNL     1       6.363   6.375  17.799  0.00  0.00    +0.000 C 
ATOM     23  C   UNL     1       5.933   5.977  16.378  0.00  0.00    +0.000 C 
ENDBRANCH  17  23
ENDBRANCH  11  17
ENDBRANCH   1  13
BRANCH   8  24
ATOM     24  C   UNL     1      -0.275   9.810  22.880  0.00  0.00    +0.000 C 
ATOM     25  F   UNL     1      -1.001  10.747  23.552  0.00  0.00    +0.000 F 
ATOM     26  F   UNL     1      -1.062   8.701  22.820  0.00  0.00    +0.000 F 
ATOM     27  F   UNL     1       0.767   9.489  23.695  0.00  0.00    +0.000 F 
ENDBRANCH   8  24
TORSDOF 4
ENDMDL
MODEL 3
REMARK VINA RESULT:      -8.2      3.706      4.919
REMARK  Name = 
REMARK  5 active torsions:
REMARK  status: ('A' for Active; 'I' for Inactive)
REMARK    1  A    between atoms: C_1  and  N_2
REMARK    2  A    between atoms: C_6  and  C_7
REMARK    3  A    between atoms: C_7  and  C_8
REMARK    4  A    between atoms: C_10  and  N_11
REMARK    5  A    between atoms: C_18  and  C_19
REMARK                            x       y       z     vdW  Elec       q    Type
REMARK                         _______ _______ _______ _____ _____    ______ ____
ROOT
ATOM      1  N   UNL     1       1.723   8.077  19.361  0.00  0.00    +0.000 N 
ATOM      2  C   UNL     1       1.083   8.241  20.664  0.00  0.00    +0.000 C 
ATOM      3  C   UNL     1       0.618   9.667  20.648  0.00  0.00    +0.000 A 
ATOM      4  C   UNL     1       0.965  10.247  19.431  0.00  0.00    +0.000 A 
ATOM      5  C   UNL     1       0.704  11.566  19.112  0.00  0.00    +0.000 A 
ATOM      6  C   UNL     1       0.049  12.338  20.065  0.00  0.00    +0.000 A 
ATOM      7  C   UNL     1      -0.317  11.774  21.300  0.00  0.00    +0.000 A 
ATOM      8  C   UNL     1      -0.036  10.426  21.616  0.00  0.00    +0.000 A 
ATOM      9  C   UNL     1       1.656   9.255  18.609  0.00  0.00    +0.000 C 
ATOM     10  O   UNL     1       2.062   9.517  17.494  0.00  0.00    +0.000 OA
ENDROOT
BRANCH   1  13
ATOM     11  C   UNL     1       4.075   5.832  17.564  0.00  0.00    +0.000 A 
ATOM     12  C   UNL     1       3.138   6.837  17.790  0.00  0.00    +0.000 A 
ATOM     13  C   UNL     1       2.496   6.930  19.028  0.00  0.00    +0.000 A 
ATOM     14  C   UNL     1       2.715   5.906  19.949  0.00  0.00    +0.000 A 
ATOM     15  C   UNL     1       3.587   4.882  19.608  0.00  0.00    +0.000 A 
ATOM     16  N   UNL     1       4.290   4.839  18.457  0.00  0.00    +0.000 NA
BRANCH  11  17
ATOM     17  C   UNL     1       4.984   5.902  16.350  0.00  0.00    +0.000 C 
BRANCH  17  23
ATOM     18  C   UNL     1       7.586   4.600  17.292  0.00  0.00    +0.000 C 
ATOM     19  N   UNL     1       6.961   4.261  16.030  0.00  0.00    +0.000 NA
ATOM     20  C   UNL     1       7.582   4.898  14.876  0.00  0.00    +0.000 C 
ATOM     21  C   UNL     1       6.649   4.491  13.749  0.00  0.00    +0.000 C 
ATOM     22  C   UNL     1       5.301   4.225  14.419  0.00  0.00    +0.000 C 
ATOM     23  C   UNL     1       5.513   4.505  15.915  0.00  0.00    +0.000 C 
ENDBRANCH  17  23
ENDBRANCH  11  17
ENDBRANCH   1  13
BRANCH   8  24
ATOM     24  C   UNL     1      -0.441   9.884  22.961  0.00  0.00    +0.000 C 
ATOM     25  F   UNL     1       0.612   9.643  23.791  0.00  0.00    +0.000 F 
ATOM     26  F   UNL     1      -1.263  10.732  23.638  0.00  0.00    +0.000 F 
ATOM     27  F   UNL     1      -1.115   8.706  22.861  0.00  0.00    +0.000 F 
ENDBRANCH   8  24
TORSDOF 4
ENDMDL
MODEL 4
REMARK VINA RESULT:      -8.1      3.501      5.081
REMARK  Name = 
REMARK  5 active torsions:
REMARK  status: ('A' for Active; 'I' for Inactive)
REMARK    1  A    between atoms: C_1  and  N_2
REMARK    2  A    between atoms: C_6  and  C_7
REMARK    3  A    between atoms: C_7  and  C_8
REMARK    4  A    between atoms: C_10  and  N_11
REMARK    5  A    between atoms: C_18  and  C_19
REMARK                            x       y       z     vdW  Elec       q    Type
REMARK                         _______ _______ _______ _____ _____    ______ ____
ROOT
ATOM      1  N   UNL     1       2.086   7.390  19.416  0.00  0.00    +0.000 N 
ATOM      2  C   UNL     1       1.434   7.728  20.679  0.00  0.00    +0.000 C 
ATOM      3  C   UNL     1       0.932   9.123  20.451  0.00  0.00    +0.000 A 
ATOM      4  C   UNL     1       1.272   9.527  19.163  0.00  0.00    +0.000 A 
ATOM      5  C   UNL     1       0.980  10.777  18.652  0.00  0.00    +0.000 A 
ATOM      6  C   UNL     1       0.299  11.663  19.479  0.00  0.00    +0.000 A 
ATOM      7  C   UNL     1      -0.061  11.278  20.783  0.00  0.00    +0.000 A 
ATOM      8  C   UNL     1       0.252  10.000  21.295  0.00  0.00    +0.000 A 
ATOM      9  C   UNL     1       1.994   8.443  18.498  0.00  0.00    +0.000 C 
ATOM     10  O   UNL     1       2.400   8.548  17.358  0.00  0.00    +0.000 OA
ENDROOT
BRANCH   1  13
ATOM     11  C   UNL     1       5.076   5.212  19.081  0.00  0.00    +0.000 A 
ATOM     12  C   UNL     1       4.260   6.337  19.001  0.00  0.00    +0.000 A 
ATOM     13  C   UNL     1       2.890   6.228  19.258  0.00  0.00    +0.000 A 
ATOM     14  C   UNL     1       2.367   4.948  19.442  0.00  0.00    +0.000 A 
ATOM     15  C   UNL     1       3.233   3.866  19.406  0.00  0.00    +0.000 A 
ATOM     16  N   UNL     1       4.571   3.971  19.261  0.00  0.00    +0.000 NA
BRANCH  11  17
ATOM     17  C   UNL     1       6.586   5.372  19.099  0.00  0.00    +0.000 C 
BRANCH  17  23
ATOM     18  C   UNL     1       7.758   7.710  17.515  0.00  0.00    +0.000 C 
ATOM     19  N   UNL     1       7.246   6.518  16.873  0.00  0.00    +0.000 NA
ATOM     20  C   UNL     1       5.911   6.678  16.312  0.00  0.00    +0.000 C 
ATOM     21  C   UNL     1       5.587   5.267  15.856  0.00  0.00    +0.000 C 
ATOM     22  C   UNL     1       6.439   4.354  16.736  0.00  0.00    +0.000 C 
ATOM     23  C   UNL     1       7.216   5.286  17.680  0.00  0.00    +0.000 C 
ENDBRANCH  17  23
ENDBRANCH  11  17
ENDBRANCH   1  13
BRANCH   8  24
ATOM     24  C   UNL     1      -0.148   9.651  22.704  0.00  0.00    +0.000 C 
ATOM     25  F   UNL     1       0.909   9.368  23.516  0.00  0.00    +0.000 F 
ATOM     26  F   UNL     1      -0.828  10.659  23.315  0.00  0.00    +0.000 F 
ATOM     27  F   UNL     1      -0.961   8.561  22.755  0.00  0.00    +0.000 F 
ENDBRANCH   8  24
TORSDOF 4
ENDMDL
MODEL 5
REMARK VINA RESULT:      -8.0      3.618      7.989
REMARK  Name = 
REMARK  5 active torsions:
REMARK  status: ('A' for Active; 'I' for Inactive)
REMARK    1  A    between atoms: C_1  and  N_2
REMARK    2  A    between atoms: C_6  and  C_7
REMARK    3  A    between atoms: C_7  and  C_8
REMARK    4  A    between atoms: C_10  and  N_11
REMARK    5  A    between atoms: C_18  and  C_19
REMARK                            x       y       z     vdW  Elec       q    Type
REMARK                         _______ _______ _______ _____ _____    ______ ____
ROOT
ATOM      1  N   UNL     1       1.706   8.286  19.453  0.00  0.00    +0.000 N 
ATOM      2  C   UNL     1       1.601   7.052  20.228  0.00  0.00    +0.000 C 
ATOM      3  C   UNL     1       2.409   6.069  19.434  0.00  0.00    +0.000 A 
ATOM      4  C   UNL     1       2.928   6.707  18.311  0.00  0.00    +0.000 A 
ATOM      5  C   UNL     1       3.694   6.066  17.355  0.00  0.00    +0.000 A 
ATOM      6  C   UNL     1       3.962   4.716  17.549  0.00  0.00    +0.000 A 
ATOM      7  C   UNL     1       3.454   4.050  18.678  0.00  0.00    +0.000 A 
ATOM      8  C   UNL     1       2.664   4.715  19.642  0.00  0.00    +0.000 A 
ATOM      9  C   UNL     1       2.498   8.104  18.313  0.00  0.00    +0.000 C 
ATOM     10  O   UNL     1       2.822   8.876  17.433  0.00  0.00    +0.000 OA
ENDROOT
BRANCH   1  13
ATOM     11  C   UNL     1      -0.757  11.034  19.032  0.00  0.00    +0.000 A 
ATOM     12  C   UNL     1       0.192  10.066  18.715  0.00  0.00    +0.000 A 
ATOM     13  C   UNL     1       0.914   9.433  19.731  0.00  0.00    +0.000 A 
ATOM     14  C   UNL     1       0.756   9.913  21.031  0.00  0.00    +0.000 A 
ATOM     15  C   UNL     1      -0.136  10.952  21.251  0.00  0.00    +0.000 A 
ATOM     16  N   UNL     1      -0.914  11.499  20.292  0.00  0.00    +0.000 NA
BRANCH  11  17
ATOM     17  C   UNL     1      -1.743  11.502  17.977  0.00  0.00    +0.000 C 
BRANCH  17  23
ATOM     18  C   UNL     1      -2.752   9.739  15.691  0.00  0.00    +0.000 C 
ATOM     19  N   UNL     1      -3.643  10.323  16.671  0.00  0.00    +0.000 NA
ATOM     20  C   UNL     1      -4.343  11.509  16.196  0.00  0.00    +0.000 C 
ATOM     21  C   UNL     1      -5.064  11.975  17.449  0.00  0.00    +0.000 C 
ATOM     22  C   UNL     1      -4.240  11.428  18.614  0.00  0.00    +0.000 C 
ATOM     23  C   UNL     1      -3.061  10.675  17.977  0.00  0.00    +0.000 C 
ENDBRANCH  17  23
ENDBRANCH  11  17
ENDBRANCH   1  13
BRANCH   8  24
ATOM     24  C   UNL     1       2.137   3.944  20.823  0.00  0.00    +0.000 C 
ATOM     25  F   UNL     1       2.480   4.486  22.025  0.00  0.00    +0.000 F 
ATOM     26  F   UNL     1       0.778   3.862  20.826  0.00  0.00    +0.000 F 
ATOM     27  F   UNL     1       2.592   2.662  20.848  0.00  0.00    +0.000 F 
ENDBRANCH   8  24
TORSDOF 4
ENDMDL
MODEL 6
REMARK VINA RESULT:      -7.8      3.770      7.927
REMARK  Name = 
REMARK  5 active torsions:
REMARK  status: ('A' for Active; 'I' for Inactive)
REMARK    1  A    between atoms: C_1  and  N_2
REMARK    2  A    between atoms: C_6  and  C_7
REMARK    3  A    between atoms: C_7  and  C_8
REMARK    4  A    between atoms: C_10  and  N_11
REMARK    5  A    between atoms: C_18  and  C_19
REMARK                            x       y       z     vdW  Elec       q    Type
REMARK                         _______ _______ _______ _____ _____    ______ ____
ROOT
ATOM      1  N   UNL     1       2.546   7.434  18.686  0.00  0.00    +0.000 N 
ATOM      2  C   UNL     1       2.072   6.437  19.641  0.00  0.00    +0.000 C 
ATOM      3  C   UNL     1       2.746   5.174  19.192  0.00  0.00    +0.000 A 
ATOM      4  C   UNL     1       3.536   5.449  18.079  0.00  0.00    +0.000 A 
ATOM      5  C   UNL     1       4.266   4.488  17.405  0.00  0.00    +0.000 A 
ATOM      6  C   UNL     1       4.206   3.185  17.884  0.00  0.00    +0.000 A 
ATOM      7  C   UNL     1       3.419   2.882  19.010  0.00  0.00    +0.000 A 
ATOM      8  C   UNL     1       2.671   3.872  19.684  0.00  0.00    +0.000 A 
ATOM      9  C   UNL     1       3.424   6.869  17.753  0.00  0.00    +0.000 C 
ATOM     10  O   UNL     1       4.022   7.362  16.818  0.00  0.00    +0.000 OA
ENDROOT
BRANCH   1  13
ATOM     11  C   UNL     1       0.436  10.401  19.426  0.00  0.00    +0.000 A 
ATOM     12  C   UNL     1       0.835   9.071  19.320  0.00  0.00    +0.000 A 
ATOM     13  C   UNL     1       1.992   8.742  18.607  0.00  0.00    +0.000 A 
ATOM     14  C   UNL     1       2.625   9.761  17.895  0.00  0.00    +0.000 A 
ATOM     15  C   UNL     1       2.104  11.044  17.970  0.00  0.00    +0.000 A 
ATOM     16  N   UNL     1       1.050  11.390  18.738  0.00  0.00    +0.000 NA
BRANCH  11  17
ATOM     17  C   UNL     1      -0.631  10.794  20.432  0.00  0.00    +0.000 C 
BRANCH  17  23
ATOM     18  C   UNL     1      -0.248   9.501  23.177  0.00  0.00    +0.000 C 
ATOM     19  N   UNL     1      -0.399  10.930  23.007  0.00  0.00    +0.000 NA
ATOM     20  C   UNL     1      -1.735  11.422  23.316  0.00  0.00    +0.000 C 
ATOM     21  C   UNL     1      -1.637  12.883  22.913  0.00  0.00    +0.000 C 
ATOM     22  C   UNL     1      -0.529  12.936  21.861  0.00  0.00    +0.000 C 
ATOM     23  C   UNL     1      -0.040  11.489  21.693  0.00  0.00    +0.000 C 
ENDBRANCH  17  23
ENDBRANCH  11  17
ENDBRANCH   1  13
BRANCH   8  24
ATOM     24  C   UNL     1       1.837   3.483  20.875  0.00  0.00    +0.000 C 
ATOM     25  F   UNL     1       1.800   2.140  21.100  0.00  0.00    +0.000 F 
ATOM     26  F   UNL     1       2.288   4.043  22.031  0.00  0.00    +0.000 F 
ATOM     27  F   UNL     1       0.540   3.876  20.748  0.00  0.00    +0.000 F 
ENDBRANCH   8  24
TORSDOF 4
ENDMDL
MODEL 7
REMARK VINA RESULT:      -7.7      1.644      2.154
REMARK  Name = 
REMARK  5 active torsions:
REMARK  status: ('A' for Active; 'I' for Inactive)
REMARK    1  A    between atoms: C_1  and  N_2
REMARK    2  A    between atoms: C_6  and  C_7
REMARK    3  A    between atoms: C_7  and  C_8
REMARK    4  A    between atoms: C_10  and  N_11
REMARK    5  A    between atoms: C_18  and  C_19
REMARK                            x       y       z     vdW  Elec       q    Type
REMARK                         _______ _______ _______ _____ _____    ______ ____
ROOT
ATOM      1  N   UNL     1       0.901   9.594  20.305  0.00  0.00    +0.000 N 
ATOM      2  C   UNL     1      -0.099  10.432  19.647  0.00  0.00    +0.000 C 
ATOM      3  C   UNL     1      -0.871  11.020  20.792  0.00  0.00    +0.000 A 
ATOM      4  C   UNL     1      -0.339  10.550  21.990  0.00  0.00    +0.000 A 
ATOM      5  C   UNL     1      -0.847  10.880  23.232  0.00  0.00    +0.000 A 
ATOM      6  C   UNL     1      -1.941  11.738  23.268  0.00  0.00    +0.000 A 
ATOM      7  C   UNL     1      -2.493  12.230  22.073  0.00  0.00    +0.000 A 
ATOM      8  C   UNL     1      -1.969  11.877  20.810  0.00  0.00    +0.000 A 
ATOM      9  C   UNL     1       0.780   9.656  21.698  0.00  0.00    +0.000 C 
ATOM     10  O   UNL     1       1.415   9.115  22.581  0.00  0.00    +0.000 OA
ENDROOT
BRANCH   1  13
ATOM     11  C   UNL     1       2.660   6.464  19.353  0.00  0.00    +0.000 A 
ATOM     12  C   UNL     1       2.061   7.441  20.143  0.00  0.00    +0.000 A 
ATOM     13  C   UNL     1       1.720   8.678  19.589  0.00  0.00    +0.000 A 
ATOM     14  C   UNL     1       2.137   8.939  18.284  0.00  0.00    +0.000 A 
ATOM     15  C   UNL     1       2.820   7.947  17.595  0.00  0.00    +0.000 A 
ATOM     16  N   UNL     1       3.062   6.713  18.086  0.00  0.00    +0.000 NA
BRANCH  11  17
ATOM     17  C   UNL     1       2.757   5.035  19.859  0.00  0.00    +0.000 C 
BRANCH  17  23
ATOM     18  C   UNL     1       1.487   2.788  21.497  0.00  0.00    +0.000 C 
ATOM     19  N   UNL     1       1.402   2.838  20.053  0.00  0.00    +0.000 NA
ATOM     20  C   UNL     1       2.339   1.949  19.377  0.00  0.00    +0.000 C 
ATOM     21  C   UNL     1       2.131   2.320  17.919  0.00  0.00    +0.000 C 
ATOM     22  C   UNL     1       1.609   3.756  17.939  0.00  0.00    +0.000 C 
ATOM     23  C   UNL     1       1.548   4.160  19.421  0.00  0.00    +0.000 C 
ENDBRANCH  17  23
ENDBRANCH  11  17
ENDBRANCH   1  13
BRANCH   8  24
ATOM     24  C   UNL     1      -2.613  12.426  19.564  0.00  0.00    +0.000 C 
ATOM     25  F   UNL     1      -1.762  13.150  18.785  0.00  0.00    +0.000 F 
ATOM     26  F   UNL     1      -3.111  11.446  18.762  0.00  0.00    +0.000 F 
ATOM     27  F   UNL     1      -3.658  13.252  19.844  0.00  0.00    +0.000 F 
ENDBRANCH   8  24
TORSDOF 4
ENDMDL
MODEL 8
REMARK VINA RESULT:      -7.6      3.021      3.712
REMARK  Name = 
REMARK  5 active torsions:
REMARK  status: ('A' for Active; 'I' for Inactive)
REMARK    1  A    between atoms: C_1  and  N_2
REMARK    2  A    between atoms: C_6  and  C_7
REMARK    3  A    between atoms: C_7  and  C_8
REMARK    4  A    between atoms: C_10  and  N_11
REMARK    5  A    between atoms: C_18  and  C_19
REMARK                            x       y       z     vdW  Elec       q    Type
REMARK                         _______ _______ _______ _____ _____    ______ ____
ROOT
ATOM      1  N   UNL     1       1.974   8.107  19.210  0.00  0.00    +0.000 N 
ATOM      2  C   UNL     1       1.342   8.231  20.521  0.00  0.00    +0.000 C 
ATOM      3  C   UNL     1       0.644   9.557  20.449  0.00  0.00    +0.000 A 
ATOM      4  C   UNL     1       0.863  10.122  19.196  0.00  0.00    +0.000 A 
ATOM      5  C   UNL     1       0.379  11.361  18.822  0.00  0.00    +0.000 A 
ATOM      6  C   UNL     1      -0.377  12.061  19.755  0.00  0.00    +0.000 A 
ATOM      7  C   UNL     1      -0.618  11.510  21.026  0.00  0.00    +0.000 A 
ATOM      8  C   UNL     1      -0.109  10.246  21.398  0.00  0.00    +0.000 A 
ATOM      9  C   UNL     1       1.695   9.217  18.404  0.00  0.00    +0.000 C 
ATOM     10  O   UNL     1       2.028   9.484  17.267  0.00  0.00    +0.000 OA
ENDROOT
BRANCH   1  13
ATOM     11  C   UNL     1       3.852   4.906  19.365  0.00  0.00    +0.000 A 
ATOM     12  C   UNL     1       3.103   6.006  19.774  0.00  0.00    +0.000 A 
ATOM     13  C   UNL     1       2.921   7.090  18.910  0.00  0.00    +0.000 A 
ATOM     14  C   UNL     1       3.634   7.088  17.711  0.00  0.00    +0.000 A 
ATOM     15  C   UNL     1       4.442   5.998  17.421  0.00  0.00    +0.000 A 
ATOM     16  N   UNL     1       4.542   4.901  18.202  0.00  0.00    +0.000 NA
BRANCH  11  17
ATOM     17  C   UNL     1       3.805   3.617  20.166  0.00  0.00    +0.000 C 
BRANCH  17  23
ATOM     18  C   UNL     1       3.862   1.108  18.419  0.00  0.00    +0.000 C 
ATOM     19  N   UNL     1       2.669   1.911  18.584  0.00  0.00    +0.000 NA
ATOM     20  C   UNL     1       2.400   2.804  17.465  0.00  0.00    +0.000 C 
ATOM     21  C   UNL     1       1.213   3.602  17.974  0.00  0.00    +0.000 C 
ATOM     22  C   UNL     1       1.317   3.552  19.497  0.00  0.00    +0.000 C 
ATOM     23  C   UNL     1       2.579   2.730  19.805  0.00  0.00    +0.000 C 
ENDBRANCH  17  23
ENDBRANCH  11  17
ENDBRANCH   1  13
BRANCH   8  24
ATOM     24  C   UNL     1      -0.389   9.715  22.779  0.00  0.00    +0.000 C 
ATOM     25  F   UNL     1       0.731   9.533  23.531  0.00  0.00    +0.000 F 
ATOM     26  F   UNL     1      -1.193  10.543  23.501  0.00  0.00    +0.000 F 
ATOM     27  F   UNL     1      -1.020   8.509  22.750  0.00  0.00    +0.000 F 
ENDBRANCH   8  24
TORSDOF 4
ENDMDL
MODEL 9
REMARK VINA RESULT:      -7.5      2.345      3.502
REMARK  Name = 
REMARK  5 active torsions:
REMARK  status: ('A' for Active; 'I' for Inactive)
REMARK    1  A    between atoms: C_1  and  N_2
REMARK    2  A    between atoms: C_6  and  C_7
REMARK    3  A    between atoms: C_7  and  C_8
REMARK    4  A    between atoms: C_10  and  N_11
REMARK    5  A    between atoms: C_18  and  C_19
REMARK                            x       y       z     vdW  Elec       q    Type
REMARK                         _______ _______ _______ _____ _____    ______ ____
ROOT
ATOM      1  N   UNL     1       1.184   8.709  20.148  0.00  0.00    +0.000 N 
ATOM      2  C   UNL     1       0.418   9.462  19.159  0.00  0.00    +0.000 C 
ATOM      3  C   UNL     1      -0.276  10.511  19.976  0.00  0.00    +0.000 A 
ATOM      4  C   UNL     1       0.081  10.358  21.313  0.00  0.00    +0.000 A 
ATOM      5  C   UNL     1      -0.414  11.151  22.331  0.00  0.00    +0.000 A 
ATOM      6  C   UNL     1      -1.305  12.159  21.982  0.00  0.00    +0.000 A 
ATOM      7  C   UNL     1      -1.678  12.338  20.638  0.00  0.00    +0.000 A 
ATOM      8  C   UNL     1      -1.171  11.514  19.609  0.00  0.00    +0.000 A 
ATOM      9  C   UNL     1       1.004   9.231  21.435  0.00  0.00    +0.000 C 
ATOM     10  O   UNL     1       1.464   8.892  22.507  0.00  0.00    +0.000 OA
ENDROOT
BRANCH   1  13
ATOM     11  C   UNL     1       3.486   6.256  18.574  0.00  0.00    +0.000 A 
ATOM     12  C   UNL     1       2.679   7.378  18.734  0.00  0.00    +0.000 A 
ATOM     13  C   UNL     1       1.832   7.482  19.841  0.00  0.00    +0.000 A 
ATOM     14  C   UNL     1       1.721   6.369  20.675  0.00  0.00    +0.000 A 
ATOM     15  C   UNL     1       2.485   5.247  20.391  0.00  0.00    +0.000 A 
ATOM     16  N   UNL     1       3.381   5.177  19.384  0.00  0.00    +0.000 NA
BRANCH  11  17
ATOM     17  C   UNL     1       4.610   6.269  17.554  0.00  0.00    +0.000 C 
BRANCH  17  23
ATOM     18  C   UNL     1       7.497   5.599  18.309  0.00  0.00    +0.000 C 
ATOM     19  N   UNL     1       6.765   4.853  17.307  0.00  0.00    +0.000 NA
ATOM     20  C   UNL     1       7.103   5.218  15.938  0.00  0.00    +0.000 C 
ATOM     21  C   UNL     1       6.099   4.407  15.137  0.00  0.00    +0.000 C 
ATOM     22  C   UNL     1       4.922   4.176  16.083  0.00  0.00    +0.000 C 
ATOM     23  C   UNL     1       5.295   4.880  17.397  0.00  0.00    +0.000 C 
ENDBRANCH  17  23
ENDBRANCH  11  17
ENDBRANCH   1  13
BRANCH   8  24
ATOM     24  C   UNL     1      -1.618  11.746  18.190  0.00  0.00    +0.000 C 
ATOM     25  F   UNL     1      -0.970  12.775  17.576  0.00  0.00    +0.000 F 
ATOM     26  F   UNL     1      -1.422  10.657  17.399  0.00  0.00    +0.000 F 
ATOM     27  F   UNL     1      -2.945  12.039  18.108  0.00  0.00    +0.000 F 
ENDBRANCH   8  24
TORSDOF 4
ENDMDL
