MODEL 1
REMARK VINA RESULT:      -7.6      0.000      0.000
REMARK  Name = 
REMARK  4 active torsions:
REMARK  status: ('A' for Active; 'I' for Inactive)
REMARK    1  A    between atoms: S_2  and  N_4
REMARK    2  A    between atoms: S_2  and  C_21
REMARK    3  A    between atoms: N_4  and  C_5
REMARK    4  A    between atoms: C_10  and  C_11
REMARK                            x       y       z     vdW  Elec       q    Type
REMARK                         _______ _______ _______ _____ _____    ______ ____
ROOT
ATOM      1  C   UNL     1       2.636   4.821  20.056  0.00  0.00    +0.000 A 
ATOM      2  C   UNL     1       1.397   4.379  20.543  0.00  0.00    +0.000 A 
ATOM      3  C   UNL     1       1.010   3.047  20.424  0.00  0.00    +0.000 A 
ATOM      4  C   UNL     1       1.889   2.127  19.876  0.00  0.00    +0.000 A 
ATOM      5  C   UNL     1       3.156   2.543  19.464  0.00  0.00    +0.000 A 
ATOM      6  C   UNL     1       3.547   3.898  19.509  0.00  0.00    +0.000 A 
ENDROOT
BRANCH   6   7
ATOM      7  C   UNL     1       4.890   4.289  19.049  0.00  0.00    +0.000 A 
ATOM      8  N   UNL     1       5.947   4.446  19.825  0.00  0.00    +0.000 NA
ATOM      9  N   UNL     1       7.034   4.735  19.043  0.00  0.00    +0.000 NA
ATOM     10  C   UNL     1       6.642   4.762  17.787  0.00  0.00    +0.000 A 
ATOM     11  N   UNL     1       5.288   4.522  17.744  0.00  0.00    +0.000 N 
ATOM     12  C   UNL     1       4.451   4.477  16.561  0.00  0.00    +0.000 C 
ATOM     13  C   UNL     1       4.818   5.460  15.459  0.00  0.00    +0.000 C 
ATOM     14  C   UNL     1       5.987   4.997  14.593  0.00  0.00    +0.000 C 
ATOM     15  C   UNL     1       7.125   4.302  15.341  0.00  0.00    +0.000 C 
ATOM     16  C   UNL     1       7.537   5.022  16.620  0.00  0.00    +0.000 C 
ENDBRANCH   6   7
BRANCH   1  17
ATOM     17  N   UNL     1       2.921   6.210  20.165  0.00  0.00    +0.000 N 
ATOM     18  H   UNL     1       3.375   6.587  20.997  0.00  0.00    +0.000 HD
BRANCH  17  20
ATOM     19  O   UNL     1       3.577   8.004  18.487  0.00  0.00    +0.000 OA
ATOM     20  S   UNL     1       2.413   7.294  18.994  0.00  0.00    +0.000 S 
ATOM     21  O   UNL     1       1.502   6.612  18.098  0.00  0.00    +0.000 OA
BRANCH  20  22
ATOM     22  C   UNL     1       1.455   8.467  19.934  0.00  0.00    +0.000 A 
ATOM     23  C   UNL     1       1.022   8.072  21.211  0.00  0.00    +0.000 A 
ATOM     24  C   UNL     1       0.434   8.998  22.070  0.00  0.00    +0.000 A 
ATOM     25  C   UNL     1       0.278  10.320  21.662  0.00  0.00    +0.000 A 
ATOM     26  C   UNL     1       0.660  10.704  20.376  0.00  0.00    +0.000 A 
ATOM     27  C   UNL     1       1.229   9.776  19.493  0.00  0.00    +0.000 A 
ATOM     28 BR   UNL     1       1.684  10.434  17.769  0.00  0.00    +0.000 Br
ENDBRANCH  20  22
ENDBRANCH  17  20
ENDBRANCH   1  17
TORSDOF 4
ENDMDL
MODEL 2
REMARK VINA RESULT:      -7.5      1.072      1.959
REMARK  Name = 
REMARK  4 active torsions:
REMARK  status: ('A' for Active; 'I' for Inactive)
REMARK    1  A    between atoms: S_2  and  N_4
REMARK    2  A    between atoms: S_2  and  C_21
REMARK    3  A    between atoms: N_4  and  C_5
REMARK    4  A    between atoms: C_10  and  C_11
REMARK                            x       y       z     vdW  Elec       q    Type
REMARK                         _______ _______ _______ _____ _____    ______ ____
ROOT
ATOM      1  C   UNL     1       2.827   4.742  20.064  0.00  0.00    +0.000 A 
ATOM      2  C   UNL     1       2.016   4.303  21.121  0.00  0.00    +0.000 A 
ATOM      3  C   UNL     1       1.609   2.975  21.214  0.00  0.00    +0.000 A 
ATOM      4  C   UNL     1       2.066   2.055  20.286  0.00  0.00    +0.000 A 
ATOM      5  C   UNL     1       2.940   2.466  19.277  0.00  0.00    +0.000 A 
ATOM      6  C   UNL     1       3.311   3.817  19.119  0.00  0.00    +0.000 A 
ENDROOT
BRANCH   6   7
ATOM      7  C   UNL     1       4.225   4.204  18.031  0.00  0.00    +0.000 A 
ATOM      8  N   UNL     1       4.041   3.941  16.749  0.00  0.00    +0.000 NA
ATOM      9  N   UNL     1       5.052   4.519  16.028  0.00  0.00    +0.000 NA
ATOM     10  C   UNL     1       5.860   5.130  16.866  0.00  0.00    +0.000 A 
ATOM     11  N   UNL     1       5.400   4.928  18.147  0.00  0.00    +0.000 N 
ATOM     12  C   UNL     1       5.999   5.415  19.373  0.00  0.00    +0.000 C 
ATOM     13  C   UNL     1       7.520   5.452  19.392  0.00  0.00    +0.000 C 
ATOM     14  C   UNL     1       8.111   6.663  18.675  0.00  0.00    +0.000 C 
ATOM     15  C   UNL     1       7.400   7.076  17.387  0.00  0.00    +0.000 C 
ATOM     16  C   UNL     1       7.076   5.901  16.470  0.00  0.00    +0.000 C 
ENDBRANCH   6   7
BRANCH   1  17
ATOM     17  N   UNL     1       3.142   6.127  20.016  0.00  0.00    +0.000 N 
ATOM     18  H   UNL     1       3.746   6.551  20.720  0.00  0.00    +0.000 HD
BRANCH  17  20
ATOM     19  O   UNL     1       3.493   7.885  18.213  0.00  0.00    +0.000 OA
ATOM     20  S   UNL     1       2.440   7.138  18.880  0.00  0.00    +0.000 S 
ATOM     21  O   UNL     1       1.467   6.376  18.125  0.00  0.00    +0.000 OA
BRANCH  20  22
ATOM     22  C   UNL     1       1.537   8.296  19.891  0.00  0.00    +0.000 A 
ATOM     23  C   UNL     1       1.186   7.886  21.188  0.00  0.00    +0.000 A 
ATOM     24  C   UNL     1       0.648   8.799  22.092  0.00  0.00    +0.000 A 
ATOM     25  C   UNL     1       0.463  10.126  21.709  0.00  0.00    +0.000 A 
ATOM     26  C   UNL     1       0.763  10.524  20.406  0.00  0.00    +0.000 A 
ATOM     27  C   UNL     1       1.279   9.609  19.479  0.00  0.00    +0.000 A 
ATOM     28 BR   UNL     1       1.625  10.288  17.738  0.00  0.00    +0.000 Br
ENDBRANCH  20  22
ENDBRANCH  17  20
ENDBRANCH   1  17
TORSDOF 4
ENDMDL
MODEL 3
REMARK VINA RESULT:      -7.3      2.483      6.721
REMARK  Name = 
REMARK  4 active torsions:
REMARK  status: ('A' for Active; 'I' for Inactive)
REMARK    1  A    between atoms: S_2  and  N_4
REMARK    2  A    between atoms: S_2  and  C_21
REMARK    3  A    between atoms: N_4  and  C_5
REMARK    4  A    between atoms: C_10  and  C_11
REMARK                            x       y       z     vdW  Elec       q    Type
REMARK                         _______ _______ _______ _____ _____    ______ ____
ROOT
ATOM      1  C   UNL     1       3.415   4.952  19.939  0.00  0.00    +0.000 A 
ATOM      2  C   UNL     1       3.444   3.647  20.454  0.00  0.00    +0.000 A 
ATOM      3  C   UNL     1       2.303   3.062  20.998  0.00  0.00    +0.000 A 
ATOM      4  C   UNL     1       1.103   3.753  20.971  0.00  0.00    +0.000 A 
ATOM      5  C   UNL     1       1.047   5.020  20.387  0.00  0.00    +0.000 A 
ATOM      6  C   UNL     1       2.201   5.663  19.892  0.00  0.00    +0.000 A 
ENDROOT
BRANCH   6   7
ATOM      7  C   UNL     1       2.093   7.005  19.296  0.00  0.00    +0.000 A 
ATOM      8  N   UNL     1       2.494   7.336  18.082  0.00  0.00    +0.000 NA
ATOM      9  N   UNL     1       2.164   8.645  17.847  0.00  0.00    +0.000 NA
ATOM     10  C   UNL     1       1.566   9.119  18.919  0.00  0.00    +0.000 A 
ATOM     11  N   UNL     1       1.531   8.131  19.875  0.00  0.00    +0.000 N 
ATOM     12  C   UNL     1       0.975   8.232  21.210  0.00  0.00    +0.000 C 
ATOM     13  C   UNL     1       1.149   9.580  21.893  0.00  0.00    +0.000 C 
ATOM     14  C   UNL     1       0.138  10.630  21.441  0.00  0.00    +0.000 C 
ATOM     15  C   UNL     1      -0.197  10.621  19.950  0.00  0.00    +0.000 C 
ATOM     16  C   UNL     1       1.032  10.507  19.054  0.00  0.00    +0.000 C 
ENDBRANCH   6   7
BRANCH   1  17
ATOM     17  N   UNL     1       4.641   5.490  19.460  0.00  0.00    +0.000 N 
ATOM     18  H   UNL     1       4.747   6.492  19.305  0.00  0.00    +0.000 HD
BRANCH  17  20
ATOM     19  O   UNL     1       7.143   5.050  19.547  0.00  0.00    +0.000 OA
ATOM     20  S   UNL     1       5.911   4.493  19.016  0.00  0.00    +0.000 S 
ATOM     21  O   UNL     1       5.534   3.119  19.282  0.00  0.00    +0.000 OA
BRANCH  20  22
ATOM     22  C   UNL     1       5.966   4.694  17.245  0.00  0.00    +0.000 A 
ATOM     23  C   UNL     1       7.111   5.296  16.698  0.00  0.00    +0.000 A 
ATOM     24  C   UNL     1       7.304   5.316  15.319  0.00  0.00    +0.000 A 
ATOM     25  C   UNL     1       6.357   4.732  14.479  0.00  0.00    +0.000 A 
ATOM     26  C   UNL     1       5.194   4.180  15.016  0.00  0.00    +0.000 A 
ATOM     27  C   UNL     1       4.976   4.177  16.400  0.00  0.00    +0.000 A 
ATOM     28 BR   UNL     1       3.341   3.407  16.988  0.00  0.00    +0.000 Br
ENDBRANCH  20  22
ENDBRANCH  17  20
ENDBRANCH   1  17
TORSDOF 4
ENDMDL
MODEL 4
REMARK VINA RESULT:      -7.2      2.323      4.880
REMARK  Name = 
REMARK  4 active torsions:
REMARK  status: ('A' for Active; 'I' for Inactive)
REMARK    1  A    between atoms: S_2  and  N_4
REMARK    2  A    between atoms: S_2  and  C_21
REMARK    3  A    between atoms: N_4  and  C_5
REMARK    4  A    between atoms: C_10  and  C_11
REMARK                            x       y       z     vdW  Elec       q    Type
REMARK                         _______ _______ _______ _____ _____    ______ ____
ROOT
ATOM      1  C   UNL     1       2.520   6.498  20.139  0.00  0.00    +0.000 A 
ATOM      2  C   UNL     1       1.370   7.278  20.328  0.00  0.00    +0.000 A 
ATOM      3  C   UNL     1       1.098   8.372  19.511  0.00  0.00    +0.000 A 
ATOM      4  C   UNL     1       1.942   8.657  18.450  0.00  0.00    +0.000 A 
ATOM      5  C   UNL     1       3.045   7.837  18.204  0.00  0.00    +0.000 A 
ATOM      6  C   UNL     1       3.381   6.766  19.058  0.00  0.00    +0.000 A 
ENDROOT
BRANCH   6   7
ATOM      7  C   UNL     1       4.563   5.938  18.764  0.00  0.00    +0.000 A 
ATOM      8  N   UNL     1       5.351   5.383  19.668  0.00  0.00    +0.000 NA
ATOM      9  N   UNL     1       6.296   4.626  19.028  0.00  0.00    +0.000 NA
ATOM     10  C   UNL     1       6.094   4.721  17.732  0.00  0.00    +0.000 A 
ATOM     11  N   UNL     1       5.032   5.569  17.514  0.00  0.00    +0.000 N 
ATOM     12  C   UNL     1       4.483   5.963  16.232  0.00  0.00    +0.000 C 
ATOM     13  C   UNL     1       5.495   6.135  15.109  0.00  0.00    +0.000 C 
ATOM     14  C   UNL     1       5.926   4.818  14.469  0.00  0.00    +0.000 C 
ATOM     15  C   UNL     1       6.119   3.649  15.434  0.00  0.00    +0.000 C 
ATOM     16  C   UNL     1       6.902   4.023  16.688  0.00  0.00    +0.000 C 
ENDBRANCH   6   7
BRANCH   1  17
ATOM     17  N   UNL     1       2.748   5.439  21.060  0.00  0.00    +0.000 N 
ATOM     18  H   UNL     1       3.489   5.502  21.756  0.00  0.00    +0.000 HD
BRANCH  17  20
ATOM     19  O   UNL     1       1.998   3.310  22.230  0.00  0.00    +0.000 OA
ATOM     20  S   UNL     1       1.894   4.002  20.956  0.00  0.00    +0.000 S 
ATOM     21  O   UNL     1       0.605   4.274  20.354  0.00  0.00    +0.000 OA
BRANCH  20  22
ATOM     22  C   UNL     1       2.844   3.066  19.773  0.00  0.00    +0.000 A 
ATOM     23  C   UNL     1       3.845   2.217  20.274  0.00  0.00    +0.000 A 
ATOM     24  C   UNL     1       4.496   1.322  19.428  0.00  0.00    +0.000 A 
ATOM     25  C   UNL     1       4.148   1.267  18.080  0.00  0.00    +0.000 A 
ATOM     26  C   UNL     1       3.191   2.144  17.569  0.00  0.00    +0.000 A 
ATOM     27  C   UNL     1       2.548   3.066  18.405  0.00  0.00    +0.000 A 
ATOM     28 BR   UNL     1       1.280   4.209  17.568  0.00  0.00    +0.000 Br
ENDBRANCH  20  22
ENDBRANCH  17  20
ENDBRANCH   1  17
TORSDOF 4
ENDMDL
MODEL 5
REMARK VINA RESULT:      -7.2      2.418      6.766
REMARK  Name = 
REMARK  4 active torsions:
REMARK  status: ('A' for Active; 'I' for Inactive)
REMARK    1  A    between atoms: S_2  and  N_4
REMARK    2  A    between atoms: S_2  and  C_21
REMARK    3  A    between atoms: N_4  and  C_5
REMARK    4  A    between atoms: C_10  and  C_11
REMARK                            x       y       z     vdW  Elec       q    Type
REMARK                         _______ _______ _______ _____ _____    ______ ____
ROOT
ATOM      1  C   UNL     1       3.330   5.005  19.711  0.00  0.00    +0.000 A 
ATOM      2  C   UNL     1       3.364   3.658  20.100  0.00  0.00    +0.000 A 
ATOM      3  C   UNL     1       2.255   3.047  20.680  0.00  0.00    +0.000 A 
ATOM      4  C   UNL     1       1.076   3.761  20.816  0.00  0.00    +0.000 A 
ATOM      5  C   UNL     1       1.009   5.078  20.357  0.00  0.00    +0.000 A 
ATOM      6  C   UNL     1       2.136   5.741  19.830  0.00  0.00    +0.000 A 
ENDROOT
BRANCH   6   7
ATOM      7  C   UNL     1       2.018   7.135  19.371  0.00  0.00    +0.000 A 
ATOM      8  N   UNL     1       2.414   7.589  18.195  0.00  0.00    +0.000 NA
ATOM      9  N   UNL     1       2.074   8.912  18.092  0.00  0.00    +0.000 NA
ATOM     10  C   UNL     1       1.476   9.273  19.207  0.00  0.00    +0.000 A 
ATOM     11  N   UNL     1       1.450   8.194  20.060  0.00  0.00    +0.000 N 
ATOM     12  C   UNL     1       0.896   8.158  21.399  0.00  0.00    +0.000 C 
ATOM     13  C   UNL     1       1.063   9.433  22.213  0.00  0.00    +0.000 C 
ATOM     14  C   UNL     1       0.043  10.515  21.869  0.00  0.00    +0.000 C 
ATOM     15  C   UNL     1      -0.295  10.652  20.385  0.00  0.00    +0.000 C 
ATOM     16  C   UNL     1       0.932  10.636  19.481  0.00  0.00    +0.000 C 
ENDBRANCH   6   7
BRANCH   1  17
ATOM     17  N   UNL     1       4.528   5.561  19.184  0.00  0.00    +0.000 N 
ATOM     18  H   UNL     1       4.544   6.509  18.810  0.00  0.00    +0.000 HD
BRANCH  17  20
ATOM     19  O   UNL     1       7.001   5.335  19.728  0.00  0.00    +0.000 OA
ATOM     20  S   UNL     1       5.922   4.643  19.043  0.00  0.00    +0.000 S 
ATOM     21  O   UNL     1       5.599   3.265  19.354  0.00  0.00    +0.000 OA
BRANCH  20  22
ATOM     22  C   UNL     1       6.271   4.726  17.298  0.00  0.00    +0.000 A 
ATOM     23  C   UNL     1       5.839   3.653  16.500  0.00  0.00    +0.000 A 
ATOM     24  C   UNL     1       5.912   3.737  15.111  0.00  0.00    +0.000 A 
ATOM     25  C   UNL     1       6.411   4.891  14.512  0.00  0.00    +0.000 A 
ATOM     26  C   UNL     1       6.889   5.938  15.302  0.00  0.00    +0.000 A 
ATOM     27  C   UNL     1       6.846   5.855  16.700  0.00  0.00    +0.000 A 
ATOM     28 BR   UNL     1       7.547   7.346  17.648  0.00  0.00    +0.000 Br
ENDBRANCH  20  22
ENDBRANCH  17  20
ENDBRANCH   1  17
TORSDOF 4
ENDMDL
MODEL 6
REMARK VINA RESULT:      -7.1      2.567      6.219
REMARK  Name = 
REMARK  4 active torsions:
REMARK  status: ('A' for Active; 'I' for Inactive)
REMARK    1  A    between atoms: S_2  and  N_4
REMARK    2  A    between atoms: S_2  and  C_21
REMARK    3  A    between atoms: N_4  and  C_5
REMARK    4  A    between atoms: C_10  and  C_11
REMARK                            x       y       z     vdW  Elec       q    Type
REMARK                         _______ _______ _______ _____ _____    ______ ____
ROOT
ATOM      1  C   UNL     1       2.922   4.378  18.917  0.00  0.00    +0.000 A 
ATOM      2  C   UNL     1       2.836   3.030  19.296  0.00  0.00    +0.000 A 
ATOM      3  C   UNL     1       2.039   2.632  20.365  0.00  0.00    +0.000 A 
ATOM      4  C   UNL     1       1.265   3.571  21.026  0.00  0.00    +0.000 A 
ATOM      5  C   UNL     1       1.281   4.902  20.603  0.00  0.00    +0.000 A 
ATOM      6  C   UNL     1       2.132   5.343  19.568  0.00  0.00    +0.000 A 
ENDROOT
BRANCH   6   7
ATOM      7  C   UNL     1       2.123   6.760  19.167  0.00  0.00    +0.000 A 
ATOM      8  N   UNL     1       2.580   7.232  18.021  0.00  0.00    +0.000 NA
ATOM      9  N   UNL     1       2.336   8.579  17.967  0.00  0.00    +0.000 NA
ATOM     10  C   UNL     1       1.734   8.935  19.082  0.00  0.00    +0.000 A 
ATOM     11  N   UNL     1       1.611   7.827  19.887  0.00  0.00    +0.000 N 
ATOM     12  C   UNL     1       1.020   7.775  21.210  0.00  0.00    +0.000 C 
ATOM     13  C   UNL     1       1.254   9.000  22.082  0.00  0.00    +0.000 C 
ATOM     14  C   UNL     1       0.321  10.165  21.760  0.00  0.00    +0.000 C 
ATOM     15  C   UNL     1       0.033  10.386  20.276  0.00  0.00    +0.000 C 
ATOM     16  C   UNL     1       1.280  10.321  19.401  0.00  0.00    +0.000 C 
ENDBRANCH   6   7
BRANCH   1  17
ATOM     17  N   UNL     1       3.808   4.700  17.852  0.00  0.00    +0.000 N 
ATOM     18  H   UNL     1       3.485   5.233  17.046  0.00  0.00    +0.000 HD
BRANCH  17  20
ATOM     19  O   UNL     1       5.595   3.320  19.020  0.00  0.00    +0.000 OA
ATOM     20  S   UNL     1       5.377   4.114  17.823  0.00  0.00    +0.000 S 
ATOM     21  O   UNL     1       5.642   3.572  16.506  0.00  0.00    +0.000 OA
BRANCH  20  22
ATOM     22  C   UNL     1       6.353   5.596  17.992  0.00  0.00    +0.000 A 
ATOM     23  C   UNL     1       7.247   5.661  19.074  0.00  0.00    +0.000 A 
ATOM     24  C   UNL     1       8.168   6.702  19.161  0.00  0.00    +0.000 A 
ATOM     25  C   UNL     1       8.206   7.679  18.169  0.00  0.00    +0.000 A 
ATOM     26  C   UNL     1       7.285   7.645  17.121  0.00  0.00    +0.000 A 
ATOM     27  C   UNL     1       6.336   6.618  17.036  0.00  0.00    +0.000 A 
ATOM     28 BR   UNL     1       5.135   6.710  15.565  0.00  0.00    +0.000 Br
ENDBRANCH  20  22
ENDBRANCH  17  20
ENDBRANCH   1  17
TORSDOF 4
ENDMDL
MODEL 7
REMARK VINA RESULT:      -7.0      1.706      2.608
REMARK  Name = 
REMARK  4 active torsions:
REMARK  status: ('A' for Active; 'I' for Inactive)
REMARK    1  A    between atoms: S_2  and  N_4
REMARK    2  A    between atoms: S_2  and  C_21
REMARK    3  A    between atoms: N_4  and  C_5
REMARK    4  A    between atoms: C_10  and  C_11
REMARK                            x       y       z     vdW  Elec       q    Type
REMARK                         _______ _______ _______ _____ _____    ______ ____
ROOT
ATOM      1  C   UNL     1       1.961   4.843  19.255  0.00  0.00    +0.000 A 
ATOM      2  C   UNL     1       1.088   4.556  20.315  0.00  0.00    +0.000 A 
ATOM      3  C   UNL     1       1.224   3.390  21.065  0.00  0.00    +0.000 A 
ATOM      4  C   UNL     1       2.278   2.530  20.804  0.00  0.00    +0.000 A 
ATOM      5  C   UNL     1       3.199   2.849  19.804  0.00  0.00    +0.000 A 
ATOM      6  C   UNL     1       3.045   3.986  18.985  0.00  0.00    +0.000 A 
ENDROOT
BRANCH   6   7
ATOM      7  C   UNL     1       4.036   4.272  17.934  0.00  0.00    +0.000 A 
ATOM      8  N   UNL     1       3.914   3.946  16.659  0.00  0.00    +0.000 NA
ATOM      9  N   UNL     1       4.990   4.439  15.970  0.00  0.00    +0.000 NA
ATOM     10  C   UNL     1       5.776   5.062  16.821  0.00  0.00    +0.000 A 
ATOM     11  N   UNL     1       5.234   4.952  18.081  0.00  0.00    +0.000 N 
ATOM     12  C   UNL     1       5.783   5.481  19.313  0.00  0.00    +0.000 C 
ATOM     13  C   UNL     1       7.301   5.454  19.420  0.00  0.00    +0.000 C 
ATOM     14  C   UNL     1       7.986   6.598  18.676  0.00  0.00    +0.000 C 
ATOM     15  C   UNL     1       7.370   6.967  17.327  0.00  0.00    +0.000 C 
ATOM     16  C   UNL     1       7.046   5.757  16.458  0.00  0.00    +0.000 C 
ENDBRANCH   6   7
BRANCH   1  17
ATOM     17  N   UNL     1       1.709   6.025  18.505  0.00  0.00    +0.000 N 
ATOM     18  H   UNL     1       1.049   6.021  17.729  0.00  0.00    +0.000 HD
BRANCH  17  20
ATOM     19  O   UNL     1       3.184   7.340  20.104  0.00  0.00    +0.000 OA
ATOM     20  S   UNL     1       2.574   7.431  18.788  0.00  0.00    +0.000 S 
ATOM     21  O   UNL     1       3.367   7.728  17.613  0.00  0.00    +0.000 OA
BRANCH  20  22
ATOM     22  C   UNL     1       1.292   8.666  18.890  0.00  0.00    +0.000 A 
ATOM     23  C   UNL     1       0.762   9.148  17.681  0.00  0.00    +0.000 A 
ATOM     24  C   UNL     1      -0.362   9.970  17.687  0.00  0.00    +0.000 A 
ATOM     25  C   UNL     1      -0.966  10.310  18.895  0.00  0.00    +0.000 A 
ATOM     26  C   UNL     1      -0.412   9.875  20.100  0.00  0.00    +0.000 A 
ATOM     27  C   UNL     1       0.735   9.070  20.109  0.00  0.00    +0.000 A 
ATOM     28 BR   UNL     1       1.388   8.566  21.821  0.00  0.00    +0.000 Br
ENDBRANCH  20  22
ENDBRANCH  17  20
ENDBRANCH   1  17
TORSDOF 4
ENDMDL
MODEL 8
REMARK VINA RESULT:      -6.9      1.189      1.652
REMARK  Name = 
REMARK  4 active torsions:
REMARK  status: ('A' for Active; 'I' for Inactive)
REMARK    1  A    between atoms: S_2  and  N_4
REMARK    2  A    between atoms: S_2  and  C_21
REMARK    3  A    between atoms: N_4  and  C_5
REMARK    4  A    between atoms: C_10  and  C_11
REMARK                            x       y       z     vdW  Elec       q    Type
REMARK                         _______ _______ _______ _____ _____    ______ ____
ROOT
ATOM      1  C   UNL     1       2.799   5.145  20.127  0.00  0.00    +0.000 A 
ATOM      2  C   UNL     1       1.635   4.727  20.790  0.00  0.00    +0.000 A 
ATOM      3  C   UNL     1       1.381   3.378  21.019  0.00  0.00    +0.000 A 
ATOM      4  C   UNL     1       2.323   2.433  20.647  0.00  0.00    +0.000 A 
ATOM      5  C   UNL     1       3.521   2.846  20.061  0.00  0.00    +0.000 A 
ATOM      6  C   UNL     1       3.773   4.199  19.754  0.00  0.00    +0.000 A 
ENDROOT
BRANCH   6   7
ATOM      7  C   UNL     1       5.046   4.583  19.123  0.00  0.00    +0.000 A 
ATOM      8  N   UNL     1       6.120   5.009  19.765  0.00  0.00    +0.000 NA
ATOM      9  N   UNL     1       7.133   5.196  18.862  0.00  0.00    +0.000 NA
ATOM     10  C   UNL     1       6.680   4.890  17.665  0.00  0.00    +0.000 A 
ATOM     11  N   UNL     1       5.356   4.533  17.774  0.00  0.00    +0.000 N 
ATOM     12  C   UNL     1       4.471   4.137  16.697  0.00  0.00    +0.000 C 
ATOM     13  C   UNL     1       4.684   4.858  15.373  0.00  0.00    +0.000 C 
ATOM     14  C   UNL     1       5.850   4.304  14.558  0.00  0.00    +0.000 C 
ATOM     15  C   UNL     1       7.086   3.906  15.364  0.00  0.00    +0.000 C 
ATOM     16  C   UNL     1       7.487   4.941  16.409  0.00  0.00    +0.000 C 
ENDBRANCH   6   7
BRANCH   1  17
ATOM     17  N   UNL     1       2.945   6.538  19.882  0.00  0.00    +0.000 N 
ATOM     18  H   UNL     1       3.230   7.172  20.628  0.00  0.00    +0.000 HD
BRANCH  17  20
ATOM     19  O   UNL     1       3.753   7.370  17.620  0.00  0.00    +0.000 OA
ATOM     20  S   UNL     1       2.538   7.205  18.401  0.00  0.00    +0.000 S 
ATOM     21  O   UNL     1       1.397   6.488  17.870  0.00  0.00    +0.000 OA
BRANCH  20  22
ATOM     22  C   UNL     1       1.978   8.837  18.848  0.00  0.00    +0.000 A 
ATOM     23  C   UNL     1       2.285   9.889  17.968  0.00  0.00    +0.000 A 
ATOM     24  C   UNL     1       1.722  11.149  18.157  0.00  0.00    +0.000 A 
ATOM     25  C   UNL     1       0.849  11.365  19.221  0.00  0.00    +0.000 A 
ATOM     26  C   UNL     1       0.583  10.337  20.126  0.00  0.00    +0.000 A 
ATOM     27  C   UNL     1       1.164   9.072  19.962  0.00  0.00    +0.000 A 
ATOM     28 BR   UNL     1       0.726   7.774  21.280  0.00  0.00    +0.000 Br
ENDBRANCH  20  22
ENDBRANCH  17  20
ENDBRANCH   1  17
TORSDOF 4
ENDMDL
MODEL 9
REMARK VINA RESULT:      -6.9      4.117      6.174
REMARK  Name = 
REMARK  4 active torsions:
REMARK  status: ('A' for Active; 'I' for Inactive)
REMARK    1  A    between atoms: S_2  and  N_4
REMARK    2  A    between atoms: S_2  and  C_21
REMARK    3  A    between atoms: N_4  and  C_5
REMARK    4  A    between atoms: C_10  and  C_11
REMARK                            x       y       z     vdW  Elec       q    Type
REMARK                         _______ _______ _______ _____ _____    ______ ____
ROOT
ATOM      1  C   UNL     1      -0.416  10.129  20.545  0.00  0.00    +0.000 A 
ATOM      2  C   UNL     1      -1.045  10.599  21.707  0.00  0.00    +0.000 A 
ATOM      3  C   UNL     1      -0.600  10.220  22.971  0.00  0.00    +0.000 A 
ATOM      4  C   UNL     1       0.524   9.419  23.086  0.00  0.00    +0.000 A 
ATOM      5  C   UNL     1       1.206   9.014  21.937  0.00  0.00    +0.000 A 
ATOM      6  C   UNL     1       0.736   9.326  20.644  0.00  0.00    +0.000 A 
ENDROOT
BRANCH   6   7
ATOM      7  C   UNL     1       1.482   8.864  19.462  0.00  0.00    +0.000 A 
ATOM      8  N   UNL     1       1.704   9.577  18.372  0.00  0.00    +0.000 NA
ATOM      9  N   UNL     1       2.495   8.852  17.521  0.00  0.00    +0.000 NA
ATOM     10  C   UNL     1       2.755   7.692  18.085  0.00  0.00    +0.000 A 
ATOM     11  N   UNL     1       2.106   7.639  19.297  0.00  0.00    +0.000 N 
ATOM     12  C   UNL     1       2.111   6.536  20.238  0.00  0.00    +0.000 C 
ATOM     13  C   UNL     1       2.126   5.146  19.620  0.00  0.00    +0.000 C 
ATOM     14  C   UNL     1       3.509   4.698  19.157  0.00  0.00    +0.000 C 
ATOM     15  C   UNL     1       4.367   5.781  18.504  0.00  0.00    +0.000 C 
ATOM     16  C   UNL     1       3.607   6.623  17.485  0.00  0.00    +0.000 C 
ENDBRANCH   6   7
BRANCH   1  17
ATOM     17  N   UNL     1      -0.977  10.519  19.297  0.00  0.00    +0.000 N 
ATOM     18  H   UNL     1      -0.999   9.873  18.509  0.00  0.00    +0.000 HD
BRANCH  17  20
ATOM     19  O   UNL     1      -1.337  12.841  20.268  0.00  0.00    +0.000 OA
ATOM     20  S   UNL     1      -1.506  12.086  19.037  0.00  0.00    +0.000 S 
ATOM     21  O   UNL     1      -0.951  12.559  17.785  0.00  0.00    +0.000 OA
BRANCH  20  22
ATOM     22  C   UNL     1      -3.259  11.872  18.793  0.00  0.00    +0.000 A 
ATOM     23  C   UNL     1      -4.119  12.441  19.747  0.00  0.00    +0.000 A 
ATOM     24  C   UNL     1      -5.494  12.473  19.522  0.00  0.00    +0.000 A 
ATOM     25  C   UNL     1      -6.016  11.944  18.344  0.00  0.00    +0.000 A 
ATOM     26  C   UNL     1      -5.169  11.332  17.418  0.00  0.00    +0.000 A 
ATOM     27  C   UNL     1      -3.788  11.270  17.645  0.00  0.00    +0.000 A 
ATOM     28 BR   UNL     1      -2.761  10.393  16.307  0.00  0.00    +0.000 Br
ENDBRANCH  20  22
ENDBRANCH  17  20
ENDBRANCH   1  17
TORSDOF 4
ENDMDL
