MODEL 1
REMARK VINA RESULT:      -7.9      0.000      0.000
REMARK  Name = 
REMARK  3 active torsions:
REMARK  status: ('A' for Active; 'I' for Inactive)
REMARK    1  A    between atoms: C_2  and  C_22
REMARK    2  A    between atoms: N_3  and  C_4
REMARK    3  A    between atoms: C_7  and  C_8
REMARK                            x       y       z     vdW  Elec       q    Type
REMARK                         _______ _______ _______ _____ _____    ______ ____
ROOT
ATOM      1  C   UNL     1      -1.037  11.411  22.361  0.00  0.00    +0.000 A 
ATOM      2  C   UNL     1      -0.417  10.336  23.002  0.00  0.00    +0.000 A 
ATOM      3  C   UNL     1       0.297   9.369  22.277  0.00  0.00    +0.000 A 
ATOM      4  C   UNL     1       0.426   9.469  20.885  0.00  0.00    +0.000 A 
ATOM      5  C   UNL     1      -0.264  10.496  20.230  0.00  0.00    +0.000 A 
ATOM      6  C   UNL     1      -0.996  11.455  20.962  0.00  0.00    +0.000 A 
ENDROOT
BRANCH   4   7
ATOM      7  C   UNL     1       1.284   8.514  20.084  0.00  0.00    +0.000 C 
ATOM      8  O   UNL     1       1.677   8.862  18.978  0.00  0.00    +0.000 OA
ATOM      9  N   UNL     1       1.562   7.332  20.743  0.00  0.00    +0.000 N 
ATOM     10  C   UNL     1       2.258   6.263  20.220  0.00  0.00    +0.000 A 
ATOM     11  N   UNL     1       2.864   6.090  19.066  0.00  0.00    +0.000 NA
ATOM     12  C   UNL     1       3.285   4.770  19.051  0.00  0.00    +0.000 A 
ATOM     13  C   UNL     1       3.958   4.024  18.069  0.00  0.00    +0.000 A 
ATOM     14  C   UNL     1       4.179   2.652  18.291  0.00  0.00    +0.000 A 
ATOM     15  C   UNL     1       3.754   2.037  19.471  0.00  0.00    +0.000 A 
ATOM     16  C   UNL     1       3.130   2.773  20.482  0.00  0.00    +0.000 A 
ATOM     17  C   UNL     1       2.923   4.130  20.230  0.00  0.00    +0.000 A 
ATOM     18  N   UNL     1       2.359   5.123  20.980  0.00  0.00    +0.000 N 
ATOM     19  H   UNL     1       1.229   7.227  21.689  0.00  0.00    +0.000 HD
ATOM     20  H   UNL     1       2.006   5.013  21.916  0.00  0.00    +0.000 HD
ENDBRANCH   4   7
BRANCH   1  23
ATOM     21  O   UNL     1      -0.019  14.079  23.047  0.00  0.00    +0.000 OA
ATOM     22  C   UNL     1      -1.143  13.699  23.355  0.00  0.00    +0.000 C 
ATOM     23  N   UNL     1      -1.696  12.458  23.060  0.00  0.00    +0.000 N 
ATOM     24  H   UNL     1      -2.693  12.351  23.197  0.00  0.00    +0.000 HD
BRANCH  22  25
ATOM     25  C   UNL     1      -2.034  14.680  24.043  0.00  0.00    +0.000 A 
ATOM     26  C   UNL     1      -3.410  14.619  23.775  0.00  0.00    +0.000 A 
ATOM     27  C   UNL     1      -4.286  15.551  24.340  0.00  0.00    +0.000 A 
ATOM     28  C   UNL     1      -3.787  16.555  25.165  0.00  0.00    +0.000 A 
ATOM     29  C   UNL     1      -2.418  16.629  25.430  0.00  0.00    +0.000 A 
ATOM     30  C   UNL     1      -1.539  15.692  24.871  0.00  0.00    +0.000 A 
ENDBRANCH  22  25
ENDBRANCH   1  23
TORSDOF 3
ENDMDL
MODEL 2
REMARK VINA RESULT:      -7.9      1.737      2.537
REMARK  Name = 
REMARK  3 active torsions:
REMARK  status: ('A' for Active; 'I' for Inactive)
REMARK    1  A    between atoms: C_2  and  C_22
REMARK    2  A    between atoms: N_3  and  C_4
REMARK    3  A    between atoms: C_7  and  C_8
REMARK                            x       y       z     vdW  Elec       q    Type
REMARK                         _______ _______ _______ _____ _____    ______ ____
ROOT
ATOM      1  C   UNL     1      -0.797  11.366  22.342  0.00  0.00    +0.000 A 
ATOM      2  C   UNL     1      -0.564  10.250  23.149  0.00  0.00    +0.000 A 
ATOM      3  C   UNL     1       0.035   9.091  22.631  0.00  0.00    +0.000 A 
ATOM      4  C   UNL     1       0.437   9.029  21.290  0.00  0.00    +0.000 A 
ATOM      5  C   UNL     1       0.130  10.113  20.459  0.00  0.00    +0.000 A 
ATOM      6  C   UNL     1      -0.490  11.269  20.979  0.00  0.00    +0.000 A 
ENDROOT
BRANCH   4   7
ATOM      7  C   UNL     1       1.192   7.845  20.728  0.00  0.00    +0.000 C 
ATOM      8  O   UNL     1       1.163   6.784  21.340  0.00  0.00    +0.000 OA
ATOM      9  N   UNL     1       1.818   8.105  19.524  0.00  0.00    +0.000 N 
ATOM     10  C   UNL     1       2.627   7.231  18.832  0.00  0.00    +0.000 A 
ATOM     11  N   UNL     1       2.966   5.981  19.059  0.00  0.00    +0.000 NA
ATOM     12  C   UNL     1       3.903   5.659  18.091  0.00  0.00    +0.000 A 
ATOM     13  C   UNL     1       4.628   4.476  17.860  0.00  0.00    +0.000 A 
ATOM     14  C   UNL     1       5.599   4.463  16.842  0.00  0.00    +0.000 A 
ATOM     15  C   UNL     1       5.835   5.595  16.059  0.00  0.00    +0.000 A 
ATOM     16  C   UNL     1       5.089   6.763  16.237  0.00  0.00    +0.000 A 
ATOM     17  C   UNL     1       4.136   6.746  17.257  0.00  0.00    +0.000 A 
ATOM     18  N   UNL     1       3.250   7.689  17.696  0.00  0.00    +0.000 N 
ATOM     19  H   UNL     1       1.681   9.012  19.106  0.00  0.00    +0.000 HD
ATOM     20  H   UNL     1       3.130   8.602  17.293  0.00  0.00    +0.000 HD
ENDBRANCH   4   7
BRANCH   1  23
ATOM     21  O   UNL     1      -3.378  11.853  23.656  0.00  0.00    +0.000 OA
ATOM     22  C   UNL     1      -2.563  12.743  23.447  0.00  0.00    +0.000 C 
ATOM     23  N   UNL     1      -1.322  12.589  22.840  0.00  0.00    +0.000 N 
ATOM     24  H   UNL     1      -0.672  13.363  22.911  0.00  0.00    +0.000 HD
BRANCH  22  25
ATOM     25  C   UNL     1      -2.892  14.107  23.957  0.00  0.00    +0.000 A 
ATOM     26  C   UNL     1      -1.912  14.787  24.697  0.00  0.00    +0.000 A 
ATOM     27  C   UNL     1      -2.183  16.040  25.254  0.00  0.00    +0.000 A 
ATOM     28  C   UNL     1      -3.441  16.613  25.083  0.00  0.00    +0.000 A 
ATOM     29  C   UNL     1      -4.425  15.940  24.357  0.00  0.00    +0.000 A 
ATOM     30  C   UNL     1      -4.153  14.687  23.791  0.00  0.00    +0.000 A 
ENDBRANCH  22  25
ENDBRANCH   1  23
TORSDOF 3
ENDMDL
MODEL 3
REMARK VINA RESULT:      -7.9      1.758      2.545
REMARK  Name = 
REMARK  3 active torsions:
REMARK  status: ('A' for Active; 'I' for Inactive)
REMARK    1  A    between atoms: C_2  and  C_22
REMARK    2  A    between atoms: N_3  and  C_4
REMARK    3  A    between atoms: C_7  and  C_8
REMARK                            x       y       z     vdW  Elec       q    Type
REMARK                         _______ _______ _______ _____ _____    ______ ____
ROOT
ATOM      1  C   UNL     1      -0.689  11.653  22.520  0.00  0.00    +0.000 A 
ATOM      2  C   UNL     1       0.070  11.755  21.352  0.00  0.00    +0.000 A 
ATOM      3  C   UNL     1       0.706  10.634  20.796  0.00  0.00    +0.000 A 
ATOM      4  C   UNL     1       0.578   9.371  21.390  0.00  0.00    +0.000 A 
ATOM      5  C   UNL     1      -0.111   9.279  22.605  0.00  0.00    +0.000 A 
ATOM      6  C   UNL     1      -0.733  10.413  23.169  0.00  0.00    +0.000 A 
ENDROOT
BRANCH   4   7
ATOM      7  C   UNL     1       1.149   8.121  20.756  0.00  0.00    +0.000 C 
ATOM      8  O   UNL     1       0.945   7.041  21.295  0.00  0.00    +0.000 OA
ATOM      9  N   UNL     1       1.829   8.357  19.577  0.00  0.00    +0.000 N 
ATOM     10  C   UNL     1       2.505   7.414  18.834  0.00  0.00    +0.000 A 
ATOM     11  N   UNL     1       2.641   6.114  18.980  0.00  0.00    +0.000 NA
ATOM     12  C   UNL     1       3.534   5.712  18.000  0.00  0.00    +0.000 A 
ATOM     13  C   UNL     1       4.069   4.449  17.696  0.00  0.00    +0.000 A 
ATOM     14  C   UNL     1       5.045   4.349  16.688  0.00  0.00    +0.000 A 
ATOM     15  C   UNL     1       5.469   5.478  15.983  0.00  0.00    +0.000 A 
ATOM     16  C   UNL     1       4.910   6.735  16.233  0.00  0.00    +0.000 A 
ATOM     17  C   UNL     1       3.948   6.801  17.242  0.00  0.00    +0.000 A 
ATOM     18  N   UNL     1       3.212   7.841  17.735  0.00  0.00    +0.000 N 
ATOM     19  H   UNL     1       1.842   9.300  19.219  0.00  0.00    +0.000 HD
ATOM     20  H   UNL     1       3.242   8.786  17.393  0.00  0.00    +0.000 HD
ENDBRANCH   4   7
BRANCH   1  23
ATOM     21  O   UNL     1      -3.501  12.378  22.083  0.00  0.00    +0.000 OA
ATOM     22  C   UNL     1      -2.755  13.024  22.810  0.00  0.00    +0.000 C 
ATOM     23  N   UNL     1      -1.420  12.740  23.071  0.00  0.00    +0.000 N 
ATOM     24  H   UNL     1      -0.982  13.235  23.838  0.00  0.00    +0.000 HD
BRANCH  22  25
ATOM     25  C   UNL     1      -3.348  14.180  23.546  0.00  0.00    +0.000 A 
ATOM     26  C   UNL     1      -4.676  14.530  23.259  0.00  0.00    +0.000 A 
ATOM     27  C   UNL     1      -5.266  15.641  23.870  0.00  0.00    +0.000 A 
ATOM     28  C   UNL     1      -4.525  16.413  24.760  0.00  0.00    +0.000 A 
ATOM     29  C   UNL     1      -3.201  16.078  25.044  0.00  0.00    +0.000 A 
ATOM     30  C   UNL     1      -2.609  14.961  24.440  0.00  0.00    +0.000 A 
ENDBRANCH  22  25
ENDBRANCH   1  23
TORSDOF 3
ENDMDL
MODEL 4
REMARK VINA RESULT:      -7.8      3.803     11.179
REMARK  Name = 
REMARK  3 active torsions:
REMARK  status: ('A' for Active; 'I' for Inactive)
REMARK    1  A    between atoms: C_2  and  C_22
REMARK    2  A    between atoms: N_3  and  C_4
REMARK    3  A    between atoms: C_7  and  C_8
REMARK                            x       y       z     vdW  Elec       q    Type
REMARK                         _______ _______ _______ _____ _____    ______ ____
ROOT
ATOM      1  C   UNL     1       2.307   8.299  18.508  0.00  0.00    +0.000 A 
ATOM      2  C   UNL     1       1.587   9.025  17.557  0.00  0.00    +0.000 A 
ATOM      3  C   UNL     1       0.472   9.796  17.921  0.00  0.00    +0.000 A 
ATOM      4  C   UNL     1       0.062   9.876  19.259  0.00  0.00    +0.000 A 
ATOM      5  C   UNL     1       0.729   9.084  20.202  0.00  0.00    +0.000 A 
ATOM      6  C   UNL     1       1.838   8.297  19.828  0.00  0.00    +0.000 A 
ENDROOT
BRANCH   4   7
ATOM      7  C   UNL     1      -1.059  10.789  19.706  0.00  0.00    +0.000 C 
ATOM      8  O   UNL     1      -1.005  11.284  20.824  0.00  0.00    +0.000 OA
ATOM      9  N   UNL     1      -2.029  10.988  18.743  0.00  0.00    +0.000 N 
ATOM     10  C   UNL     1      -3.190  11.712  18.907  0.00  0.00    +0.000 A 
ATOM     11  N   UNL     1      -3.650  12.416  19.918  0.00  0.00    +0.000 NA
ATOM     12  C   UNL     1      -4.926  12.817  19.554  0.00  0.00    +0.000 A 
ATOM     13  C   UNL     1      -5.895  13.564  20.246  0.00  0.00    +0.000 A 
ATOM     14  C   UNL     1      -7.160  13.743  19.659  0.00  0.00    +0.000 A 
ATOM     15  C   UNL     1      -7.454  13.205  18.404  0.00  0.00    +0.000 A 
ATOM     16  C   UNL     1      -6.488  12.505  17.677  0.00  0.00    +0.000 A 
ATOM     17  C   UNL     1      -5.243  12.341  18.288  0.00  0.00    +0.000 A 
ATOM     18  N   UNL     1      -4.095  11.727  17.873  0.00  0.00    +0.000 N 
ATOM     19  H   UNL     1      -1.890  10.570  17.836  0.00  0.00    +0.000 HD
ATOM     20  H   UNL     1      -3.963  11.290  16.977  0.00  0.00    +0.000 HD
ENDBRANCH   4   7
BRANCH   1  23
ATOM     21  O   UNL     1       2.601   5.437  17.920  0.00  0.00    +0.000 OA
ATOM     22  C   UNL     1       3.552   6.211  17.940  0.00  0.00    +0.000 C 
ATOM     23  N   UNL     1       3.490   7.575  18.202  0.00  0.00    +0.000 N 
ATOM     24  H   UNL     1       4.314   8.125  17.991  0.00  0.00    +0.000 HD
BRANCH  22  25
ATOM     25  C   UNL     1       4.891   5.661  17.575  0.00  0.00    +0.000 A 
ATOM     26  C   UNL     1       5.001   4.938  16.377  0.00  0.00    +0.000 A 
ATOM     27  C   UNL     1       6.214   4.346  16.014  0.00  0.00    +0.000 A 
ATOM     28  C   UNL     1       7.318   4.463  16.853  0.00  0.00    +0.000 A 
ATOM     29  C   UNL     1       7.216   5.172  18.051  0.00  0.00    +0.000 A 
ATOM     30  C   UNL     1       6.004   5.773  18.415  0.00  0.00    +0.000 A 
ENDBRANCH  22  25
ENDBRANCH   1  23
TORSDOF 3
ENDMDL
MODEL 5
REMARK VINA RESULT:      -7.8      1.421      1.613
REMARK  Name = 
REMARK  3 active torsions:
REMARK  status: ('A' for Active; 'I' for Inactive)
REMARK    1  A    between atoms: C_2  and  C_22
REMARK    2  A    between atoms: N_3  and  C_4
REMARK    3  A    between atoms: C_7  and  C_8
REMARK                            x       y       z     vdW  Elec       q    Type
REMARK                         _______ _______ _______ _____ _____    ______ ____
ROOT
ATOM      1  C   UNL     1      -1.386  12.158  21.442  0.00  0.00    +0.000 A 
ATOM      2  C   UNL     1      -0.380  11.423  22.074  0.00  0.00    +0.000 A 
ATOM      3  C   UNL     1       0.402  10.499  21.363  0.00  0.00    +0.000 A 
ATOM      4  C   UNL     1       0.208  10.303  19.989  0.00  0.00    +0.000 A 
ATOM      5  C   UNL     1      -0.854  10.974  19.370  0.00  0.00    +0.000 A 
ATOM      6  C   UNL     1      -1.649  11.888  20.093  0.00  0.00    +0.000 A 
ENDROOT
BRANCH   4   7
ATOM      7  C   UNL     1       1.108   9.405  19.168  0.00  0.00    +0.000 C 
ATOM      8  O   UNL     1       1.359   9.721  18.013  0.00  0.00    +0.000 OA
ATOM      9  N   UNL     1       1.585   8.311  19.864  0.00  0.00    +0.000 N 
ATOM     10  C   UNL     1       2.361   7.300  19.341  0.00  0.00    +0.000 A 
ATOM     11  N   UNL     1       2.883   7.122  18.147  0.00  0.00    +0.000 NA
ATOM     12  C   UNL     1       3.462   5.864  18.168  0.00  0.00    +0.000 A 
ATOM     13  C   UNL     1       4.138   5.138  17.172  0.00  0.00    +0.000 A 
ATOM     14  C   UNL     1       4.545   3.821  17.450  0.00  0.00    +0.000 A 
ATOM     15  C   UNL     1       4.301   3.240  18.697  0.00  0.00    +0.000 A 
ATOM     16  C   UNL     1       3.679   3.963  19.719  0.00  0.00    +0.000 A 
ATOM     17  C   UNL     1       3.283   5.267  19.410  0.00  0.00    +0.000 A 
ATOM     18  N   UNL     1       2.667   6.234  20.152  0.00  0.00    +0.000 N 
ATOM     19  H   UNL     1       1.348   8.231  20.841  0.00  0.00    +0.000 HD
ATOM     20  H   UNL     1       2.410   6.146  21.120  0.00  0.00    +0.000 HD
ENDBRANCH   4   7
BRANCH   1  23
ATOM     21  O   UNL     1      -3.323  11.857  23.628  0.00  0.00    +0.000 OA
ATOM     22  C   UNL     1      -3.052  12.942  23.127  0.00  0.00    +0.000 C 
ATOM     23  N   UNL     1      -2.144  13.164  22.099  0.00  0.00    +0.000 N 
ATOM     24  H   UNL     1      -1.872  14.123  21.920  0.00  0.00    +0.000 HD
BRANCH  22  25
ATOM     25  C   UNL     1      -3.696  14.151  23.723  0.00  0.00    +0.000 A 
ATOM     26  C   UNL     1      -5.002  14.466  23.320  0.00  0.00    +0.000 A 
ATOM     27  C   UNL     1      -5.634  15.619  23.794  0.00  0.00    +0.000 A 
ATOM     28  C   UNL     1      -4.956  16.469  24.664  0.00  0.00    +0.000 A 
ATOM     29  C   UNL     1      -3.652  16.169  25.063  0.00  0.00    +0.000 A 
ATOM     30  C   UNL     1      -3.019  15.009  24.595  0.00  0.00    +0.000 A 
ENDBRANCH  22  25
ENDBRANCH   1  23
TORSDOF 3
ENDMDL
MODEL 6
REMARK VINA RESULT:      -7.7      1.756      2.417
REMARK  Name = 
REMARK  3 active torsions:
REMARK  status: ('A' for Active; 'I' for Inactive)
REMARK    1  A    between atoms: C_2  and  C_22
REMARK    2  A    between atoms: N_3  and  C_4
REMARK    3  A    between atoms: C_7  and  C_8
REMARK                            x       y       z     vdW  Elec       q    Type
REMARK                         _______ _______ _______ _____ _____    ______ ____
ROOT
ATOM      1  C   UNL     1      -0.497  11.151  22.426  0.00  0.00    +0.000 A 
ATOM      2  C   UNL     1      -0.540   9.907  23.059  0.00  0.00    +0.000 A 
ATOM      3  C   UNL     1       0.013   8.765  22.458  0.00  0.00    +0.000 A 
ATOM      4  C   UNL     1       0.644   8.847  21.210  0.00  0.00    +0.000 A 
ATOM      5  C   UNL     1       0.615  10.073  20.534  0.00  0.00    +0.000 A 
ATOM      6  C   UNL     1       0.042  11.214  21.135  0.00  0.00    +0.000 A 
ENDROOT
BRANCH   4   7
ATOM      7  C   UNL     1       1.354   7.665  20.586  0.00  0.00    +0.000 C 
ATOM      8  O   UNL     1       1.283   6.576  21.140  0.00  0.00    +0.000 OA
ATOM      9  N   UNL     1       1.991   7.964  19.398  0.00  0.00    +0.000 N 
ATOM     10  C   UNL     1       2.768   7.097  18.660  0.00  0.00    +0.000 A 
ATOM     11  N   UNL     1       3.057   5.825  18.820  0.00  0.00    +0.000 NA
ATOM     12  C   UNL     1       3.984   5.518  17.837  0.00  0.00    +0.000 A 
ATOM     13  C   UNL     1       4.663   4.322  17.544  0.00  0.00    +0.000 A 
ATOM     14  C   UNL     1       5.635   4.324  16.528  0.00  0.00    +0.000 A 
ATOM     15  C   UNL     1       5.917   5.486  15.805  0.00  0.00    +0.000 A 
ATOM     16  C   UNL     1       5.216   6.671  16.045  0.00  0.00    +0.000 A 
ATOM     17  C   UNL     1       4.260   6.638  17.062  0.00  0.00    +0.000 A 
ATOM     18  N   UNL     1       3.411   7.589  17.550  0.00  0.00    +0.000 N 
ATOM     19  H   UNL     1       1.891   8.897  19.028  0.00  0.00    +0.000 HD
ATOM     20  H   UNL     1       3.327   8.527  17.195  0.00  0.00    +0.000 HD
ENDBRANCH   4   7
BRANCH   1  23
ATOM     21  O   UNL     1      -3.153  12.387  22.224  0.00  0.00    +0.000 OA
ATOM     22  C   UNL     1      -2.242  12.877  22.882  0.00  0.00    +0.000 C 
ATOM     23  N   UNL     1      -0.965  12.348  23.031  0.00  0.00    +0.000 N 
ATOM     24  H   UNL     1      -0.381  12.746  23.756  0.00  0.00    +0.000 HD
BRANCH  22  25
ATOM     25  C   UNL     1      -2.547  14.115  23.660  0.00  0.00    +0.000 A 
ATOM     26  C   UNL     1      -3.888  14.516  23.757  0.00  0.00    +0.000 A 
ATOM     27  C   UNL     1      -4.230  15.699  24.418  0.00  0.00    +0.000 A 
ATOM     28  C   UNL     1      -3.230  16.492  24.974  0.00  0.00    +0.000 A 
ATOM     29  C   UNL     1      -1.892  16.106  24.874  0.00  0.00    +0.000 A 
ATOM     30  C   UNL     1      -1.547  14.917  24.218  0.00  0.00    +0.000 A 
ENDBRANCH  22  25
ENDBRANCH   1  23
TORSDOF 3
ENDMDL
MODEL 7
REMARK VINA RESULT:      -7.7      2.287     11.180
REMARK  Name = 
REMARK  3 active torsions:
REMARK  status: ('A' for Active; 'I' for Inactive)
REMARK    1  A    between atoms: C_2  and  C_22
REMARK    2  A    between atoms: N_3  and  C_4
REMARK    3  A    between atoms: C_7  and  C_8
REMARK                            x       y       z     vdW  Elec       q    Type
REMARK                         _______ _______ _______ _____ _____    ______ ____
ROOT
ATOM      1  C   UNL     1       2.105   8.132  19.174  0.00  0.00    +0.000 A 
ATOM      2  C   UNL     1       1.435   9.246  18.662  0.00  0.00    +0.000 A 
ATOM      3  C   UNL     1       0.599  10.030  19.473  0.00  0.00    +0.000 A 
ATOM      4  C   UNL     1       0.431   9.727  20.831  0.00  0.00    +0.000 A 
ATOM      5  C   UNL     1       1.032   8.565  21.328  0.00  0.00    +0.000 A 
ATOM      6  C   UNL     1       1.857   7.770  20.504  0.00  0.00    +0.000 A 
ENDROOT
BRANCH   4   7
ATOM      7  C   UNL     1      -0.366  10.615  21.762  0.00  0.00    +0.000 C 
ATOM      8  O   UNL     1      -0.141  10.560  22.964  0.00  0.00    +0.000 OA
ATOM      9  N   UNL     1      -1.260  11.442  21.110  0.00  0.00    +0.000 N 
ATOM     10  C   UNL     1      -2.156  12.295  21.716  0.00  0.00    +0.000 A 
ATOM     11  N   UNL     1      -2.366  12.597  22.979  0.00  0.00    +0.000 NA
ATOM     12  C   UNL     1      -3.479  13.422  22.994  0.00  0.00    +0.000 A 
ATOM     13  C   UNL     1      -4.171  14.024  24.059  0.00  0.00    +0.000 A 
ATOM     14  C   UNL     1      -5.345  14.748  23.783  0.00  0.00    +0.000 A 
ATOM     15  C   UNL     1      -5.814  14.886  22.474  0.00  0.00    +0.000 A 
ATOM     16  C   UNL     1      -5.112  14.340  21.396  0.00  0.00    +0.000 A 
ATOM     17  C   UNL     1      -3.953  13.624  21.703  0.00  0.00    +0.000 A 
ATOM     18  N   UNL     1      -3.044  12.976  20.917  0.00  0.00    +0.000 N 
ATOM     19  H   UNL     1      -1.271  11.427  20.102  0.00  0.00    +0.000 HD
ATOM     20  H   UNL     1      -3.068  12.941  19.912  0.00  0.00    +0.000 HD
ENDBRANCH   4   7
BRANCH   1  23
ATOM     21  O   UNL     1       1.972   5.282  18.482  0.00  0.00    +0.000 OA
ATOM     22  C   UNL     1       2.898   6.006  18.134  0.00  0.00    +0.000 C 
ATOM     23  N   UNL     1       3.026   7.361  18.415  0.00  0.00    +0.000 N 
ATOM     24  H   UNL     1       3.730   7.876  17.903  0.00  0.00    +0.000 HD
BRANCH  22  25
ATOM     25  C   UNL     1       3.949   5.403  17.262  0.00  0.00    +0.000 A 
ATOM     26  C   UNL     1       4.770   6.270  16.526  0.00  0.00    +0.000 A 
ATOM     27  C   UNL     1       5.730   5.764  15.645  0.00  0.00    +0.000 A 
ATOM     28  C   UNL     1       5.864   4.387  15.488  0.00  0.00    +0.000 A 
ATOM     29  C   UNL     1       5.045   3.516  16.209  0.00  0.00    +0.000 A 
ATOM     30  C   UNL     1       4.087   4.021  17.098  0.00  0.00    +0.000 A 
ENDBRANCH  22  25
ENDBRANCH   1  23
TORSDOF 3
ENDMDL
MODEL 8
REMARK VINA RESULT:      -7.7      3.020     10.989
REMARK  Name = 
REMARK  3 active torsions:
REMARK  status: ('A' for Active; 'I' for Inactive)
REMARK    1  A    between atoms: C_2  and  C_22
REMARK    2  A    between atoms: N_3  and  C_4
REMARK    3  A    between atoms: C_7  and  C_8
REMARK                            x       y       z     vdW  Elec       q    Type
REMARK                         _______ _______ _______ _____ _____    ______ ____
ROOT
ATOM      1  C   UNL     1       1.082   9.943  18.209  0.00  0.00    +0.000 A 
ATOM      2  C   UNL     1       1.595  11.169  18.641  0.00  0.00    +0.000 A 
ATOM      3  C   UNL     1       0.753  12.173  19.144  0.00  0.00    +0.000 A 
ATOM      4  C   UNL     1      -0.629  11.965  19.247  0.00  0.00    +0.000 A 
ATOM      5  C   UNL     1      -1.156  10.771  18.738  0.00  0.00    +0.000 A 
ATOM      6  C   UNL     1      -0.308   9.772  18.217  0.00  0.00    +0.000 A 
ENDROOT
BRANCH   4   7
ATOM      7  C   UNL     1      -1.551  12.976  19.893  0.00  0.00    +0.000 C 
ATOM      8  O   UNL     1      -1.236  14.159  19.870  0.00  0.00    +0.000 OA
ATOM      9  N   UNL     1      -2.701  12.422  20.419  0.00  0.00    +0.000 N 
ATOM     10  C   UNL     1      -3.673  13.100  21.123  0.00  0.00    +0.000 A 
ATOM     11  N   UNL     1      -3.813  14.373  21.421  0.00  0.00    +0.000 NA
ATOM     12  C   UNL     1      -4.919  14.449  22.253  0.00  0.00    +0.000 A 
ATOM     13  C   UNL     1      -5.519  15.545  22.898  0.00  0.00    +0.000 A 
ATOM     14  C   UNL     1      -6.596  15.311  23.772  0.00  0.00    +0.000 A 
ATOM     15  C   UNL     1      -7.078  14.018  23.990  0.00  0.00    +0.000 A 
ATOM     16  C   UNL     1      -6.530  12.922  23.318  0.00  0.00    +0.000 A 
ATOM     17  C   UNL     1      -5.461  13.187  22.460  0.00  0.00    +0.000 A 
ATOM     18  N   UNL     1      -4.708  12.374  21.661  0.00  0.00    +0.000 N 
ATOM     19  H   UNL     1      -2.854  11.434  20.288  0.00  0.00    +0.000 HD
ATOM     20  H   UNL     1      -4.846  11.384  21.548  0.00  0.00    +0.000 HD
ENDBRANCH   4   7
BRANCH   1  23
ATOM     21  O   UNL     1       2.093   7.666  19.764  0.00  0.00    +0.000 OA
ATOM     22  C   UNL     1       2.348   7.823  18.575  0.00  0.00    +0.000 C 
ATOM     23  N   UNL     1       1.901   8.867  17.774  0.00  0.00    +0.000 N 
ATOM     24  H   UNL     1       2.021   8.767  16.774  0.00  0.00    +0.000 HD
BRANCH  22  25
ATOM     25  C   UNL     1       3.148   6.758  17.900  0.00  0.00    +0.000 A 
ATOM     26  C   UNL     1       2.699   5.433  18.005  0.00  0.00    +0.000 A 
ATOM     27  C   UNL     1       3.439   4.386  17.447  0.00  0.00    +0.000 A 
ATOM     28  C   UNL     1       4.637   4.659  16.793  0.00  0.00    +0.000 A 
ATOM     29  C   UNL     1       5.096   5.973  16.692  0.00  0.00    +0.000 A 
ATOM     30  C   UNL     1       4.353   7.026  17.243  0.00  0.00    +0.000 A 
ENDBRANCH  22  25
ENDBRANCH   1  23
TORSDOF 3
ENDMDL
MODEL 9
REMARK VINA RESULT:      -7.7      1.014      1.389
REMARK  Name = 
REMARK  3 active torsions:
REMARK  status: ('A' for Active; 'I' for Inactive)
REMARK    1  A    between atoms: C_2  and  C_22
REMARK    2  A    between atoms: N_3  and  C_4
REMARK    3  A    between atoms: C_7  and  C_8
REMARK                            x       y       z     vdW  Elec       q    Type
REMARK                         _______ _______ _______ _____ _____    ______ ____
ROOT
ATOM      1  C   UNL     1      -0.928  11.865  21.970  0.00  0.00    +0.000 A 
ATOM      2  C   UNL     1      -0.462  10.747  22.665  0.00  0.00    +0.000 A 
ATOM      3  C   UNL     1       0.222   9.714  22.005  0.00  0.00    +0.000 A 
ATOM      4  C   UNL     1       0.475   9.786  20.629  0.00  0.00    +0.000 A 
ATOM      5  C   UNL     1      -0.064  10.863  19.915  0.00  0.00    +0.000 A 
ATOM      6  C   UNL     1      -0.766  11.891  20.579  0.00  0.00    +0.000 A 
ENDROOT
BRANCH   4   7
ATOM      7  C   UNL     1       1.310   8.751  19.907  0.00  0.00    +0.000 C 
ATOM      8  O   UNL     1       1.730   9.010  18.787  0.00  0.00    +0.000 OA
ATOM      9  N   UNL     1       1.535   7.606  20.647  0.00  0.00    +0.000 N 
ATOM     10  C   UNL     1       2.199   6.481  20.207  0.00  0.00    +0.000 A 
ATOM     11  N   UNL     1       2.814   6.211  19.077  0.00  0.00    +0.000 NA
ATOM     12  C   UNL     1       3.188   4.879  19.156  0.00  0.00    +0.000 A 
ATOM     13  C   UNL     1       3.848   4.045  18.236  0.00  0.00    +0.000 A 
ATOM     14  C   UNL     1       4.015   2.685  18.552  0.00  0.00    +0.000 A 
ATOM     15  C   UNL     1       3.552   2.165  19.763  0.00  0.00    +0.000 A 
ATOM     16  C   UNL     1       2.941   2.988  20.713  0.00  0.00    +0.000 A 
ATOM     17  C   UNL     1       2.786   4.332  20.369  0.00  0.00    +0.000 A 
ATOM     18  N   UNL     1       2.249   5.391  21.043  0.00  0.00    +0.000 N 
ATOM     19  H   UNL     1       1.185   7.576  21.592  0.00  0.00    +0.000 HD
ATOM     20  H   UNL     1       1.878   5.356  21.977  0.00  0.00    +0.000 HD
ENDBRANCH   4   7
BRANCH   1  23
ATOM     21  O   UNL     1      -3.770  12.264  22.596  0.00  0.00    +0.000 OA
ATOM     22  C   UNL     1      -2.909  13.095  22.864  0.00  0.00    +0.000 C 
ATOM     23  N   UNL     1      -1.548  12.974  22.607  0.00  0.00    +0.000 N 
ATOM     24  H   UNL     1      -0.931  13.639  23.055  0.00  0.00    +0.000 HD
BRANCH  22  25
ATOM     25  C   UNL     1      -3.343  14.317  23.603  0.00  0.00    +0.000 A 
ATOM     26  C   UNL     1      -2.429  14.911  24.486  0.00  0.00    +0.000 A 
ATOM     27  C   UNL     1      -2.798  16.020  25.252  0.00  0.00    +0.000 A 
ATOM     28  C   UNL     1      -4.089  16.531  25.148  0.00  0.00    +0.000 A 
ATOM     29  C   UNL     1      -5.009  15.941  24.280  0.00  0.00    +0.000 A 
ATOM     30  C   UNL     1      -4.639  14.834  23.505  0.00  0.00    +0.000 A 
ENDBRANCH  22  25
ENDBRANCH   1  23
TORSDOF 3
ENDMDL
