MODEL 1
REMARK VINA RESULT:      -8.7      0.000      0.000
REMARK  Name = 
REMARK  2 active torsions:
REMARK  status: ('A' for Active; 'I' for Inactive)
REMARK    1  A    between atoms: C_5  and  N_6
REMARK    2  A    between atoms: N_11  and  C_12
REMARK                            x       y       z     vdW  Elec       q    Type
REMARK                         _______ _______ _______ _____ _____    ______ ____
ROOT
ATOM      1  N   UNL     1      -0.622  11.007  22.574  0.00  0.00    +0.000 N 
ATOM      2  N   UNL     1      -0.218  10.139  23.553  0.00  0.00    +0.000 NA
ATOM      3  C   UNL     1       0.541   9.246  22.914  0.00  0.00    +0.000 A 
ATOM      4  C   UNL     1       0.668   9.507  21.539  0.00  0.00    +0.000 A 
ATOM      5  C   UNL     1       1.298   8.923  20.422  0.00  0.00    +0.000 A 
ATOM      6  N   UNL     1       2.025   7.731  20.538  0.00  0.00    +0.000 N 
ATOM      7  N   UNL     1       1.142   9.546  19.230  0.00  0.00    +0.000 NA
ATOM      8  C   UNL     1       0.409  10.668  19.160  0.00  0.00    +0.000 A 
ATOM      9  N   UNL     1      -0.236  11.283  20.154  0.00  0.00    +0.000 NA
ATOM     10  C   UNL     1      -0.082  10.656  21.337  0.00  0.00    +0.000 A 
ATOM     11  H   UNL     1       2.056   7.370  21.480  0.00  0.00    +0.000 HD
ENDROOT
BRANCH   6  12
ATOM     12  C   UNL     1       2.436   6.793  19.570  0.00  0.00    +0.000 A 
ATOM     13  C   UNL     1       2.055   5.447  19.552  0.00  0.00    +0.000 A 
ATOM     14  C   UNL     1       2.560   4.545  18.596  0.00  0.00    +0.000 A 
ATOM     15  C   UNL     1       3.477   4.949  17.620  0.00  0.00    +0.000 A 
ATOM     16  C   UNL     1       3.851   6.348  17.635  0.00  0.00    +0.000 A 
ATOM     17  C   UNL     1       3.325   7.234  18.580  0.00  0.00    +0.000 A 
ATOM     18  O   UNL     1       4.782   6.989  16.751  0.00  0.00    +0.000 OA
ATOM     19  C   UNL     1       5.141   5.912  16.011  0.00  0.00    +0.000 C 
ATOM     20  C   UNL     1       5.654   4.890  15.105  0.00  0.00    +0.000 C 
ATOM     21  C   UNL     1       4.816   3.689  15.684  0.00  0.00    +0.000 C 
ATOM     22  O   UNL     1       3.855   3.887  16.804  0.00  0.00    +0.000 OA
ENDBRANCH   6  12
BRANCH   1  27
ATOM     23  F   UNL     1      -3.962  15.297  23.775  0.00  0.00    +0.000 F 
ATOM     24  C   UNL     1      -3.158  14.263  23.496  0.00  0.00    +0.000 A 
ATOM     25  C   UNL     1      -1.848  14.497  23.098  0.00  0.00    +0.000 A 
ATOM     26  C   UNL     1      -1.009  13.418  22.803  0.00  0.00    +0.000 A 
ATOM     27  C   UNL     1      -1.487  12.099  22.897  0.00  0.00    +0.000 A 
ATOM     28  C   UNL     1      -2.814  11.888  23.308  0.00  0.00    +0.000 A 
ATOM     29  C   UNL     1      -3.646  12.969  23.606  0.00  0.00    +0.000 A 
ENDBRANCH   1  27
TORSDOF 2
ENDMDL
MODEL 2
REMARK VINA RESULT:      -8.4      1.423      2.308
REMARK  Name = 
REMARK  2 active torsions:
REMARK  status: ('A' for Active; 'I' for Inactive)
REMARK    1  A    between atoms: C_5  and  N_6
REMARK    2  A    between atoms: N_11  and  C_12
REMARK                            x       y       z     vdW  Elec       q    Type
REMARK                         _______ _______ _______ _____ _____    ______ ____
ROOT
ATOM      1  N   UNL     1      -1.104  11.411  22.445  0.00  0.00    +0.000 N 
ATOM      2  N   UNL     1      -0.917  10.562  23.503  0.00  0.00    +0.000 NA
ATOM      3  C   UNL     1      -0.117   9.606  23.027  0.00  0.00    +0.000 A 
ATOM      4  C   UNL     1       0.249   9.806  21.685  0.00  0.00    +0.000 A 
ATOM      5  C   UNL     1       1.019   9.147  20.706  0.00  0.00    +0.000 A 
ATOM      6  N   UNL     1       1.647   7.923  20.977  0.00  0.00    +0.000 N 
ATOM      7  N   UNL     1       1.098   9.729  19.487  0.00  0.00    +0.000 NA
ATOM      8  C   UNL     1       0.453  10.885  19.262  0.00  0.00    +0.000 A 
ATOM      9  N   UNL     1      -0.310  11.571  20.116  0.00  0.00    +0.000 NA
ATOM     10  C   UNL     1      -0.389  10.983  21.326  0.00  0.00    +0.000 A 
ATOM     11  H   UNL     1       1.501   7.598  21.922  0.00  0.00    +0.000 HD
ENDROOT
BRANCH   6  12
ATOM     12  C   UNL     1       2.156   6.928  20.119  0.00  0.00    +0.000 A 
ATOM     13  C   UNL     1       2.559   7.146  18.797  0.00  0.00    +0.000 A 
ATOM     14  C   UNL     1       2.991   6.092  17.970  0.00  0.00    +0.000 A 
ATOM     15  C   UNL     1       3.032   4.771  18.427  0.00  0.00    +0.000 A 
ATOM     16  C   UNL     1       2.631   4.558  19.802  0.00  0.00    +0.000 A 
ATOM     17  C   UNL     1       2.221   5.619  20.615  0.00  0.00    +0.000 A 
ATOM     18  O   UNL     1       2.572   3.298  20.486  0.00  0.00    +0.000 OA
ATOM     19  C   UNL     1       2.965   2.492  19.471  0.00  0.00    +0.000 C 
ATOM     20  C   UNL     1       3.368   1.462  18.519  0.00  0.00    +0.000 C 
ATOM     21  C   UNL     1       3.638   2.426  17.302  0.00  0.00    +0.000 C 
ATOM     22  O   UNL     1       3.466   3.899  17.433  0.00  0.00    +0.000 OA
ENDBRANCH   6  12
BRANCH   1  27
ATOM     23  F   UNL     1      -4.438  15.834  23.009  0.00  0.00    +0.000 F 
ATOM     24  C   UNL     1      -3.631  14.775  22.867  0.00  0.00    +0.000 A 
ATOM     25  C   UNL     1      -4.071  13.664  22.158  0.00  0.00    +0.000 A 
ATOM     26  C   UNL     1      -3.228  12.557  22.012  0.00  0.00    +0.000 A 
ATOM     27  C   UNL     1      -1.945  12.559  22.587  0.00  0.00    +0.000 A 
ATOM     28  C   UNL     1      -1.522  13.697  23.293  0.00  0.00    +0.000 A 
ATOM     29  C   UNL     1      -2.364  14.801  23.432  0.00  0.00    +0.000 A 
ENDBRANCH   1  27
TORSDOF 2
ENDMDL
MODEL 3
REMARK VINA RESULT:      -8.3      4.777     10.199
REMARK  Name = 
REMARK  2 active torsions:
REMARK  status: ('A' for Active; 'I' for Inactive)
REMARK    1  A    between atoms: C_5  and  N_6
REMARK    2  A    between atoms: N_11  and  C_12
REMARK                            x       y       z     vdW  Elec       q    Type
REMARK                         _______ _______ _______ _____ _____    ______ ____
ROOT
ATOM      1  N   UNL     1       2.229   7.945  18.368  0.00  0.00    +0.000 N 
ATOM      2  N   UNL     1       2.146   8.927  17.417  0.00  0.00    +0.000 NA
ATOM      3  C   UNL     1       1.521   9.934  18.030  0.00  0.00    +0.000 A 
ATOM      4  C   UNL     1       1.202   9.656  19.370  0.00  0.00    +0.000 A 
ATOM      5  C   UNL     1       0.559  10.304  20.443  0.00  0.00    +0.000 A 
ATOM      6  N   UNL     1       0.004  11.582  20.295  0.00  0.00    +0.000 N 
ATOM      7  N   UNL     1       0.474   9.625  21.612  0.00  0.00    +0.000 NA
ATOM      8  C   UNL     1       0.991   8.390  21.700  0.00  0.00    +0.000 A 
ATOM      9  N   UNL     1       1.599   7.691  20.738  0.00  0.00    +0.000 NA
ATOM     10  C   UNL     1       1.677   8.370  19.576  0.00  0.00    +0.000 A 
ATOM     11  H   UNL     1       0.132  11.970  19.372  0.00  0.00    +0.000 HD
ENDROOT
BRANCH   6  12
ATOM     12  C   UNL     1      -0.953  12.276  21.061  0.00  0.00    +0.000 A 
ATOM     13  C   UNL     1      -2.303  12.410  20.718  0.00  0.00    +0.000 A 
ATOM     14  C   UNL     1      -3.193  13.179  21.492  0.00  0.00    +0.000 A 
ATOM     15  C   UNL     1      -2.768  13.857  22.640  0.00  0.00    +0.000 A 
ATOM     16  C   UNL     1      -1.374  13.697  22.997  0.00  0.00    +0.000 A 
ATOM     17  C   UNL     1      -0.508  12.914  22.226  0.00  0.00    +0.000 A 
ATOM     18  O   UNL     1      -0.706  14.304  24.112  0.00  0.00    +0.000 OA
ATOM     19  C   UNL     1      -1.747  15.008  24.620  0.00  0.00    +0.000 C 
ATOM     20  C   UNL     1      -2.729  15.830  25.319  0.00  0.00    +0.000 C 
ATOM     21  C   UNL     1      -3.950  15.503  24.378  0.00  0.00    +0.000 C 
ATOM     22  O   UNL     1      -3.809  14.570  23.227  0.00  0.00    +0.000 OA
ENDBRANCH   6  12
BRANCH   1  27
ATOM     23  F   UNL     1       4.500   3.025  17.090  0.00  0.00    +0.000 F 
ATOM     24  C   UNL     1       3.959   4.209  17.406  0.00  0.00    +0.000 A 
ATOM     25  C   UNL     1       2.637   4.271  17.827  0.00  0.00    +0.000 A 
ATOM     26  C   UNL     1       2.070   5.508  18.154  0.00  0.00    +0.000 A 
ATOM     27  C   UNL     1       2.828   6.687  18.048  0.00  0.00    +0.000 A 
ATOM     28  C   UNL     1       4.166   6.596  17.627  0.00  0.00    +0.000 A 
ATOM     29  C   UNL     1       4.727   5.360  17.306  0.00  0.00    +0.000 A 
ENDBRANCH   1  27
TORSDOF 2
ENDMDL
MODEL 4
REMARK VINA RESULT:      -8.2      4.774     10.131
REMARK  Name = 
REMARK  2 active torsions:
REMARK  status: ('A' for Active; 'I' for Inactive)
REMARK    1  A    between atoms: C_5  and  N_6
REMARK    2  A    between atoms: N_11  and  C_12
REMARK                            x       y       z     vdW  Elec       q    Type
REMARK                         _______ _______ _______ _____ _____    ______ ____
ROOT
ATOM      1  N   UNL     1       2.271   7.972  18.333  0.00  0.00    +0.000 N 
ATOM      2  N   UNL     1       2.183   8.963  17.393  0.00  0.00    +0.000 NA
ATOM      3  C   UNL     1       1.564   9.965  18.022  0.00  0.00    +0.000 A 
ATOM      4  C   UNL     1       1.254   9.673  19.361  0.00  0.00    +0.000 A 
ATOM      5  C   UNL     1       0.620  10.310  20.445  0.00  0.00    +0.000 A 
ATOM      6  N   UNL     1       0.066  11.591  20.315  0.00  0.00    +0.000 N 
ATOM      7  N   UNL     1       0.541   9.619  21.608  0.00  0.00    +0.000 NA
ATOM      8  C   UNL     1       1.057   8.382  21.678  0.00  0.00    +0.000 A 
ATOM      9  N   UNL     1       1.658   7.693  20.705  0.00  0.00    +0.000 NA
ATOM     10  C   UNL     1       1.728   8.384  19.550  0.00  0.00    +0.000 A 
ATOM     11  H   UNL     1       0.189  11.988  19.395  0.00  0.00    +0.000 HD
ENDROOT
BRANCH   6  12
ATOM     12  C   UNL     1      -0.885  12.278  21.095  0.00  0.00    +0.000 A 
ATOM     13  C   UNL     1      -0.600  12.951  22.288  0.00  0.00    +0.000 A 
ATOM     14  C   UNL     1      -1.610  13.558  23.057  0.00  0.00    +0.000 A 
ATOM     15  C   UNL     1      -2.954  13.510  22.672  0.00  0.00    +0.000 A 
ATOM     16  C   UNL     1      -3.237  12.827  21.427  0.00  0.00    +0.000 A 
ATOM     17  C   UNL     1      -2.218  12.246  20.665  0.00  0.00    +0.000 A 
ATOM     18  O   UNL     1      -4.531  12.633  20.838  0.00  0.00    +0.000 OA
ATOM     19  C   UNL     1      -5.284  13.240  21.787  0.00  0.00    +0.000 C 
ATOM     20  C   UNL     1      -6.264  13.844  22.684  0.00  0.00    +0.000 C 
ATOM     21  C   UNL     1      -5.238  14.359  23.762  0.00  0.00    +0.000 C 
ATOM     22  O   UNL     1      -3.774  14.153  23.595  0.00  0.00    +0.000 OA
ENDBRANCH   6  12
BRANCH   1  27
ATOM     23  F   UNL     1       4.525   3.062  16.986  0.00  0.00    +0.000 F 
ATOM     24  C   UNL     1       3.988   4.243  17.319  0.00  0.00    +0.000 A 
ATOM     25  C   UNL     1       2.663   4.305  17.729  0.00  0.00    +0.000 A 
ATOM     26  C   UNL     1       2.100   5.539  18.073  0.00  0.00    +0.000 A 
ATOM     27  C   UNL     1       2.866   6.716  17.996  0.00  0.00    +0.000 A 
ATOM     28  C   UNL     1       4.207   6.625  17.586  0.00  0.00    +0.000 A 
ATOM     29  C   UNL     1       4.764   5.391  17.247  0.00  0.00    +0.000 A 
ENDBRANCH   1  27
TORSDOF 2
ENDMDL
MODEL 5
REMARK VINA RESULT:      -8.2      1.071      1.112
REMARK  Name = 
REMARK  2 active torsions:
REMARK  status: ('A' for Active; 'I' for Inactive)
REMARK    1  A    between atoms: C_5  and  N_6
REMARK    2  A    between atoms: N_11  and  C_12
REMARK                            x       y       z     vdW  Elec       q    Type
REMARK                         _______ _______ _______ _____ _____    ______ ____
ROOT
ATOM      1  N   UNL     1      -0.496  10.610  21.722  0.00  0.00    +0.000 N 
ATOM      2  N   UNL     1       0.111   9.941  22.750  0.00  0.00    +0.000 NA
ATOM      3  C   UNL     1       0.966   9.111  22.149  0.00  0.00    +0.000 A 
ATOM      4  C   UNL     1       0.957   9.223  20.748  0.00  0.00    +0.000 A 
ATOM      5  C   UNL     1       1.602   8.619  19.651  0.00  0.00    +0.000 A 
ATOM      6  N   UNL     1       2.525   7.580  19.831  0.00  0.00    +0.000 N 
ATOM      7  N   UNL     1       1.266   9.063  18.416  0.00  0.00    +0.000 NA
ATOM      8  C   UNL     1       0.352  10.037  18.289  0.00  0.00    +0.000 A 
ATOM      9  N   UNL     1      -0.321  10.655  19.263  0.00  0.00    +0.000 NA
ATOM     10  C   UNL     1       0.013  10.205  20.488  0.00  0.00    +0.000 A 
ATOM     11  H   UNL     1       2.677   7.343  20.800  0.00  0.00    +0.000 HD
ENDROOT
BRANCH   6  12
ATOM     12  C   UNL     1       3.023   6.612  18.937  0.00  0.00    +0.000 A 
ATOM     13  C   UNL     1       2.795   5.235  19.045  0.00  0.00    +0.000 A 
ATOM     14  C   UNL     1       3.383   4.314  18.158  0.00  0.00    +0.000 A 
ATOM     15  C   UNL     1       4.234   4.728  17.129  0.00  0.00    +0.000 A 
ATOM     16  C   UNL     1       4.450   6.156  17.013  0.00  0.00    +0.000 A 
ATOM     17  C   UNL     1       3.843   7.058  17.892  0.00  0.00    +0.000 A 
ATOM     18  O   UNL     1       5.290   6.815  16.055  0.00  0.00    +0.000 OA
ATOM     19  C   UNL     1       5.756   5.723  15.402  0.00  0.00    +0.000 C 
ATOM     20  C   UNL     1       6.366   4.687  14.575  0.00  0.00    +0.000 C 
ATOM     21  C   UNL     1       5.677   3.457  15.275  0.00  0.00    +0.000 C 
ATOM     22  O   UNL     1       4.717   3.647  16.397  0.00  0.00    +0.000 OA
ENDBRANCH   6  12
BRANCH   1  27
ATOM     23  F   UNL     1      -4.468  14.379  22.730  0.00  0.00    +0.000 F 
ATOM     24  C   UNL     1      -3.507  13.478  22.493  0.00  0.00    +0.000 A 
ATOM     25  C   UNL     1      -2.884  13.446  21.252  0.00  0.00    +0.000 A 
ATOM     26  C   UNL     1      -1.882  12.502  21.003  0.00  0.00    +0.000 A 
ATOM     27  C   UNL     1      -1.510  11.581  21.998  0.00  0.00    +0.000 A 
ATOM     28  C   UNL     1      -2.150  11.639  23.248  0.00  0.00    +0.000 A 
ATOM     29  C   UNL     1      -3.146  12.585  23.492  0.00  0.00    +0.000 A 
ENDBRANCH   1  27
TORSDOF 2
ENDMDL
MODEL 6
REMARK VINA RESULT:      -8.1      0.982      1.012
REMARK  Name = 
REMARK  2 active torsions:
REMARK  status: ('A' for Active; 'I' for Inactive)
REMARK    1  A    between atoms: C_5  and  N_6
REMARK    2  A    between atoms: N_11  and  C_12
REMARK                            x       y       z     vdW  Elec       q    Type
REMARK                         _______ _______ _______ _____ _____    ______ ____
ROOT
ATOM      1  N   UNL     1      -1.332  11.592  22.297  0.00  0.00    +0.000 N 
ATOM      2  N   UNL     1      -1.064  10.841  23.410  0.00  0.00    +0.000 NA
ATOM      3  C   UNL     1      -0.250   9.877  22.974  0.00  0.00    +0.000 A 
ATOM      4  C   UNL     1       0.045   9.977  21.603  0.00  0.00    +0.000 A 
ATOM      5  C   UNL     1       0.793   9.266  20.645  0.00  0.00    +0.000 A 
ATOM      6  N   UNL     1       1.480   8.092  20.982  0.00  0.00    +0.000 N 
ATOM      7  N   UNL     1       0.793   9.749  19.379  0.00  0.00    +0.000 NA
ATOM      8  C   UNL     1       0.095  10.859  19.094  0.00  0.00    +0.000 A 
ATOM      9  N   UNL     1      -0.654  11.587  19.927  0.00  0.00    +0.000 NA
ATOM     10  C   UNL     1      -0.654  11.099  21.183  0.00  0.00    +0.000 A 
ATOM     11  H   UNL     1       1.390   7.841  21.956  0.00  0.00    +0.000 HD
ENDROOT
BRANCH   6  12
ATOM     12  C   UNL     1       1.986   7.047  20.184  0.00  0.00    +0.000 A 
ATOM     13  C   UNL     1       1.804   5.685  20.445  0.00  0.00    +0.000 A 
ATOM     14  C   UNL     1       2.399   4.690  19.646  0.00  0.00    +0.000 A 
ATOM     15  C   UNL     1       3.212   5.015  18.555  0.00  0.00    +0.000 A 
ATOM     16  C   UNL     1       3.380   6.427  18.281  0.00  0.00    +0.000 A 
ATOM     17  C   UNL     1       2.766   7.402  19.075  0.00  0.00    +0.000 A 
ATOM     18  O   UNL     1       4.175   7.003  17.235  0.00  0.00    +0.000 OA
ATOM     19  C   UNL     1       4.659   5.861  16.690  0.00  0.00    +0.000 C 
ATOM     20  C   UNL     1       5.281   4.760  15.962  0.00  0.00    +0.000 C 
ATOM     21  C   UNL     1       4.647   3.593  16.810  0.00  0.00    +0.000 C 
ATOM     22  O   UNL     1       3.709   3.875  17.930  0.00  0.00    +0.000 OA
ENDBRANCH   6  12
BRANCH   1  27
ATOM     23  F   UNL     1      -4.693  16.019  22.618  0.00  0.00    +0.000 F 
ATOM     24  C   UNL     1      -3.889  14.951  22.549  0.00  0.00    +0.000 A 
ATOM     25  C   UNL     1      -2.542  15.081  22.864  0.00  0.00    +0.000 A 
ATOM     26  C   UNL     1      -1.701  13.966  22.789  0.00  0.00    +0.000 A 
ATOM     27  C   UNL     1      -2.209  12.718  22.387  0.00  0.00    +0.000 A 
ATOM     28  C   UNL     1      -3.576  12.611  22.081  0.00  0.00    +0.000 A 
ATOM     29  C   UNL     1      -4.412  13.726  22.162  0.00  0.00    +0.000 A 
ENDBRANCH   1  27
TORSDOF 2
ENDMDL
MODEL 7
REMARK VINA RESULT:      -8.1      1.596      2.703
REMARK  Name = 
REMARK  2 active torsions:
REMARK  status: ('A' for Active; 'I' for Inactive)
REMARK    1  A    between atoms: C_5  and  N_6
REMARK    2  A    between atoms: N_11  and  C_12
REMARK                            x       y       z     vdW  Elec       q    Type
REMARK                         _______ _______ _______ _____ _____    ______ ____
ROOT
ATOM      1  N   UNL     1      -1.360  12.460  21.899  0.00  0.00    +0.000 N 
ATOM      2  N   UNL     1      -1.477  12.806  20.579  0.00  0.00    +0.000 NA
ATOM      3  C   UNL     1      -0.848  11.831  19.921  0.00  0.00    +0.000 A 
ATOM      4  C   UNL     1      -0.331  10.834  20.766  0.00  0.00    +0.000 A 
ATOM      5  C   UNL     1       0.404   9.640  20.639  0.00  0.00    +0.000 A 
ATOM      6  N   UNL     1       0.843   9.184  19.388  0.00  0.00    +0.000 N 
ATOM      7  N   UNL     1       0.696   8.969  21.779  0.00  0.00    +0.000 NA
ATOM      8  C   UNL     1       0.284   9.459  22.959  0.00  0.00    +0.000 A 
ATOM      9  N   UNL     1      -0.398  10.586  23.179  0.00  0.00    +0.000 NA
ATOM     10  C   UNL     1      -0.681  11.251  22.042  0.00  0.00    +0.000 A 
ATOM     11  H   UNL     1       0.563   9.782  18.624  0.00  0.00    +0.000 HD
ENDROOT
BRANCH   6  12
ATOM     12  C   UNL     1       1.844   8.259  19.032  0.00  0.00    +0.000 A 
ATOM     13  C   UNL     1       2.704   8.397  17.938  0.00  0.00    +0.000 A 
ATOM     14  C   UNL     1       3.636   7.399  17.595  0.00  0.00    +0.000 A 
ATOM     15  C   UNL     1       3.741   6.212  18.327  0.00  0.00    +0.000 A 
ATOM     16  C   UNL     1       2.859   6.086  19.469  0.00  0.00    +0.000 A 
ATOM     17  C   UNL     1       1.952   7.096  19.806  0.00  0.00    +0.000 A 
ATOM     18  O   UNL     1       2.771   4.961  20.356  0.00  0.00    +0.000 OA
ATOM     19  C   UNL     1       3.696   4.163  19.771  0.00  0.00    +0.000 C 
ATOM     20  C   UNL     1       4.648   3.162  19.299  0.00  0.00    +0.000 C 
ATOM     21  C   UNL     1       5.201   3.990  18.079  0.00  0.00    +0.000 C 
ATOM     22  O   UNL     1       4.707   5.365  17.793  0.00  0.00    +0.000 OA
ENDBRANCH   6  12
BRANCH   1  27
ATOM     23  F   UNL     1      -3.450  15.816  25.819  0.00  0.00    +0.000 F 
ATOM     24  C   UNL     1      -2.947  15.001  24.883  0.00  0.00    +0.000 A 
ATOM     25  C   UNL     1      -1.605  15.092  24.539  0.00  0.00    +0.000 A 
ATOM     26  C   UNL     1      -1.081  14.244  23.558  0.00  0.00    +0.000 A 
ATOM     27  C   UNL     1      -1.907  13.307  22.913  0.00  0.00    +0.000 A 
ATOM     28  C   UNL     1      -3.260  13.230  23.284  0.00  0.00    +0.000 A 
ATOM     29  C   UNL     1      -3.777  14.076  24.266  0.00  0.00    +0.000 A 
ENDBRANCH   1  27
TORSDOF 2
ENDMDL
MODEL 8
REMARK VINA RESULT:      -8.1      4.669      9.866
REMARK  Name = 
REMARK  2 active torsions:
REMARK  status: ('A' for Active; 'I' for Inactive)
REMARK    1  A    between atoms: C_5  and  N_6
REMARK    2  A    between atoms: N_11  and  C_12
REMARK                            x       y       z     vdW  Elec       q    Type
REMARK                         _______ _______ _______ _____ _____    ______ ____
ROOT
ATOM      1  N   UNL     1       3.701   6.216  18.456  0.00  0.00    +0.000 N 
ATOM      2  N   UNL     1       3.437   5.497  19.590  0.00  0.00    +0.000 NA
ATOM      3  C   UNL     1       2.508   6.210  20.229  0.00  0.00    +0.000 A 
ATOM      4  C   UNL     1       2.132   7.377  19.541  0.00  0.00    +0.000 A 
ATOM      5  C   UNL     1       1.257   8.463  19.734  0.00  0.00    +0.000 A 
ATOM      6  N   UNL     1       0.486   8.579  20.898  0.00  0.00    +0.000 N 
ATOM      7  N   UNL     1       1.218   9.405  18.762  0.00  0.00    +0.000 NA
ATOM      8  C   UNL     1       1.999   9.271  17.678  0.00  0.00    +0.000 A 
ATOM      9  N   UNL     1       2.868   8.291  17.417  0.00  0.00    +0.000 NA
ATOM     10  C   UNL     1       2.905   7.360  18.390  0.00  0.00    +0.000 A 
ATOM     11  H   UNL     1       0.616   7.812  21.543  0.00  0.00    +0.000 HD
ENDROOT
BRANCH   6  12
ATOM     12  C   UNL     1      -0.171   9.684  21.475  0.00  0.00    +0.000 A 
ATOM     13  C   UNL     1      -0.506   9.795  22.829  0.00  0.00    +0.000 A 
ATOM     14  C   UNL     1      -1.228  10.896  23.327  0.00  0.00    +0.000 A 
ATOM     15  C   UNL     1      -1.655  11.932  22.491  0.00  0.00    +0.000 A 
ATOM     16  C   UNL     1      -1.287  11.818  21.094  0.00  0.00    +0.000 A 
ATOM     17  C   UNL     1      -0.554  10.726  20.619  0.00  0.00    +0.000 A 
ATOM     18  O   UNL     1      -1.624  12.740  20.048  0.00  0.00    +0.000 OA
ATOM     19  C   UNL     1      -2.342  13.628  20.777  0.00  0.00    +0.000 C 
ATOM     20  C   UNL     1      -3.138  14.694  21.377  0.00  0.00    +0.000 C 
ATOM     21  C   UNL     1      -3.107  14.143  22.852  0.00  0.00    +0.000 C 
ATOM     22  O   UNL     1      -2.369  12.897  23.195  0.00  0.00    +0.000 OA
ENDBRANCH   6  12
BRANCH   1  27
ATOM     23  F   UNL     1       7.589   4.430  14.893  0.00  0.00    +0.000 F 
ATOM     24  C   UNL     1       6.648   4.863  15.742  0.00  0.00    +0.000 A 
ATOM     25  C   UNL     1       6.902   5.968  16.544  0.00  0.00    +0.000 A 
ATOM     26  C   UNL     1       5.921   6.419  17.434  0.00  0.00    +0.000 A 
ATOM     27  C   UNL     1       4.686   5.754  17.527  0.00  0.00    +0.000 A 
ATOM     28  C   UNL     1       4.451   4.643  16.700  0.00  0.00    +0.000 A 
ATOM     29  C   UNL     1       5.432   4.200  15.811  0.00  0.00    +0.000 A 
ENDBRANCH   1  27
TORSDOF 2
ENDMDL
MODEL 9
REMARK VINA RESULT:      -8.0      1.221      2.121
REMARK  Name = 
REMARK  2 active torsions:
REMARK  status: ('A' for Active; 'I' for Inactive)
REMARK    1  A    between atoms: C_5  and  N_6
REMARK    2  A    between atoms: N_11  and  C_12
REMARK                            x       y       z     vdW  Elec       q    Type
REMARK                         _______ _______ _______ _____ _____    ______ ____
ROOT
ATOM      1  N   UNL     1      -0.741  11.878  21.396  0.00  0.00    +0.000 N 
ATOM      2  N   UNL     1      -0.956  12.033  20.053  0.00  0.00    +0.000 NA
ATOM      3  C   UNL     1      -0.340  10.989  19.493  0.00  0.00    +0.000 A 
ATOM      4  C   UNL     1       0.264  10.134  20.430  0.00  0.00    +0.000 A 
ATOM      5  C   UNL     1       1.028   8.950  20.418  0.00  0.00    +0.000 A 
ATOM      6  N   UNL     1       1.397   8.334  19.215  0.00  0.00    +0.000 N 
ATOM      7  N   UNL     1       1.417   8.454  21.617  0.00  0.00    +0.000 NA
ATOM      8  C   UNL     1       1.068   9.095  22.743  0.00  0.00    +0.000 A 
ATOM      9  N   UNL     1       0.366  10.225  22.853  0.00  0.00    +0.000 NA
ATOM     10  C   UNL     1      -0.014  10.717  21.657  0.00  0.00    +0.000 A 
ATOM     11  H   UNL     1       1.047   8.812  18.397  0.00  0.00    +0.000 HD
ENDROOT
BRANCH   6  12
ATOM     12  C   UNL     1       2.401   7.391  18.921  0.00  0.00    +0.000 A 
ATOM     13  C   UNL     1       2.761   6.325  19.752  0.00  0.00    +0.000 A 
ATOM     14  C   UNL     1       3.825   5.460  19.432  0.00  0.00    +0.000 A 
ATOM     15  C   UNL     1       4.582   5.629  18.269  0.00  0.00    +0.000 A 
ATOM     16  C   UNL     1       4.191   6.724  17.405  0.00  0.00    +0.000 A 
ATOM     17  C   UNL     1       3.120   7.563  17.730  0.00  0.00    +0.000 A 
ATOM     18  O   UNL     1       4.824   7.105  16.175  0.00  0.00    +0.000 OA
ATOM     19  C   UNL     1       5.810   6.178  16.152  0.00  0.00    +0.000 C 
ATOM     20  C   UNL     1       6.931   5.268  15.941  0.00  0.00    +0.000 C 
ATOM     21  C   UNL     1       6.718   4.401  17.238  0.00  0.00    +0.000 C 
ATOM     22  O   UNL     1       5.593   4.677  18.173  0.00  0.00    +0.000 OA
ENDBRANCH   6  12
BRANCH   1  27
ATOM     23  F   UNL     1      -2.735  15.591  25.034  0.00  0.00    +0.000 F 
ATOM     24  C   UNL     1      -2.258  14.705  24.151  0.00  0.00    +0.000 A 
ATOM     25  C   UNL     1      -2.998  13.570  23.845  0.00  0.00    +0.000 A 
ATOM     26  C   UNL     1      -2.498  12.642  22.926  0.00  0.00    +0.000 A 
ATOM     27  C   UNL     1      -1.246  12.846  22.319  0.00  0.00    +0.000 A 
ATOM     28  C   UNL     1      -0.520  14.005  22.641  0.00  0.00    +0.000 A 
ATOM     29  C   UNL     1      -1.025  14.930  23.555  0.00  0.00    +0.000 A 
ENDBRANCH   1  27
TORSDOF 2
ENDMDL
