MODEL 1
REMARK VINA RESULT:      -8.8      0.000      0.000
REMARK  Name = 
REMARK  4 active torsions:
REMARK  status: ('A' for Active; 'I' for Inactive)
REMARK    1  A    between atoms: N_1  and  C_2
REMARK    2  A    between atoms: C_7  and  C_8
REMARK    3  A    between atoms: N_10  and  C_11
REMARK    4  A    between atoms: C_18  and  O_19
REMARK                            x       y       z     vdW  Elec       q    Type
REMARK                         _______ _______ _______ _____ _____    ______ ____
ROOT
ATOM      1  C   UNL     1       2.355   7.044  19.461  0.00  0.00    +0.000 C 
ATOM      2  O   UNL     1       1.789   6.608  20.460  0.00  0.00    +0.000 OA
ATOM      3  N   UNL     1       2.101   8.297  18.924  0.00  0.00    +0.000 N 
ATOM      4  H   UNL     1       2.304   8.415  17.941  0.00  0.00    +0.000 HD
ENDROOT
BRANCH   3   5
ATOM      5  C   UNL     1       1.127   9.172  19.462  0.00  0.00    +0.000 A 
ATOM      6  C   UNL     1       0.465  10.019  18.582  0.00  0.00    +0.000 A 
ATOM      7  C   UNL     1      -0.521  10.889  19.054  0.00  0.00    +0.000 A 
ATOM      8  C   UNL     1      -0.812  11.017  20.401  0.00  0.00    +0.000 A 
ATOM      9  N   UNL     1      -1.723  11.939  20.752  0.00  0.00    +0.000 NA
ATOM     10  C   UNL     1      -1.958  12.135  22.064  0.00  0.00    +0.000 A 
ATOM     11  C   UNL     1      -1.330  11.429  23.065  0.00  0.00    +0.000 A 
ATOM     12  C   UNL     1      -0.424  10.445  22.688  0.00  0.00    +0.000 A 
ATOM     13  C   UNL     1      -0.122  10.200  21.327  0.00  0.00    +0.000 A 
ATOM     14  C   UNL     1       0.823   9.246  20.828  0.00  0.00    +0.000 A 
BRANCH  12  15
ATOM     15  O   UNL     1       0.154   9.767  23.728  0.00  0.00    +0.000 OA
ATOM     16  H   UNL     1      -0.525   9.236  24.172  0.00  0.00    +0.000 HD
ENDBRANCH  12  15
ENDBRANCH   3   5
BRANCH   1  22
ATOM     17  C   UNL     1       6.121   4.973  15.048  0.00  0.00    +0.000 C 
ATOM     18  C   UNL     1       5.953   3.916  16.175  0.00  0.00    +0.000 C 
ATOM     19  C   UNL     1       5.038   4.581  17.157  0.00  0.00    +0.000 A 
ATOM     20  C   UNL     1       4.532   4.064  18.346  0.00  0.00    +0.000 A 
ATOM     21  C   UNL     1       3.670   4.848  19.128  0.00  0.00    +0.000 A 
ATOM     22  C   UNL     1       3.315   6.151  18.719  0.00  0.00    +0.000 A 
ATOM     23  C   UNL     1       3.850   6.655  17.520  0.00  0.00    +0.000 A 
ATOM     24  C   UNL     1       4.696   5.864  16.753  0.00  0.00    +0.000 A 
ATOM     25  C   UNL     1       5.314   6.232  15.444  0.00  0.00    +0.000 C 
BRANCH  17  26
ATOM     26  N   UNL     1       7.525   5.304  14.770  0.00  0.00    +0.000 NA
ATOM     27  H   UNL     1       7.598   5.797  13.882  0.00  0.00    +0.000 HD
ATOM     28  H   UNL     1       8.062   4.442  14.664  0.00  0.00    +0.000 HD
ENDBRANCH  17  26
ENDBRANCH   1  22
TORSDOF 4
ENDMDL
MODEL 2
REMARK VINA RESULT:      -8.5      1.449      1.960
REMARK  Name = 
REMARK  4 active torsions:
REMARK  status: ('A' for Active; 'I' for Inactive)
REMARK    1  A    between atoms: N_1  and  C_2
REMARK    2  A    between atoms: C_7  and  C_8
REMARK    3  A    between atoms: N_10  and  C_11
REMARK    4  A    between atoms: C_18  and  O_19
REMARK                            x       y       z     vdW  Elec       q    Type
REMARK                         _______ _______ _______ _____ _____    ______ ____
ROOT
ATOM      1  C   UNL     1       2.096   6.642  19.878  0.00  0.00    +0.000 C 
ATOM      2  O   UNL     1       1.478   6.040  20.753  0.00  0.00    +0.000 OA
ATOM      3  N   UNL     1       2.052   8.019  19.721  0.00  0.00    +0.000 N 
ATOM      4  H   UNL     1       2.258   8.374  18.798  0.00  0.00    +0.000 HD
ENDROOT
BRANCH   3   5
ATOM      5  C   UNL     1       1.251   8.853  20.538  0.00  0.00    +0.000 A 
ATOM      6  C   UNL     1       1.247   8.606  21.905  0.00  0.00    +0.000 A 
ATOM      7  C   UNL     1       0.492   9.410  22.761  0.00  0.00    +0.000 A 
ATOM      8  C   UNL     1      -0.346  10.407  22.293  0.00  0.00    +0.000 A 
ATOM      9  N   UNL     1      -1.086  11.068  23.197  0.00  0.00    +0.000 NA
ATOM     10  C   UNL     1      -1.968  11.985  22.752  0.00  0.00    +0.000 A 
ATOM     11  C   UNL     1      -2.139  12.295  21.421  0.00  0.00    +0.000 A 
ATOM     12  C   UNL     1      -1.334  11.637  20.498  0.00  0.00    +0.000 A 
ATOM     13  C   UNL     1      -0.399  10.653  20.901  0.00  0.00    +0.000 A 
ATOM     14  C   UNL     1       0.446   9.885  20.036  0.00  0.00    +0.000 A 
BRANCH  12  15
ATOM     15  O   UNL     1      -1.540  12.001  19.194  0.00  0.00    +0.000 OA
ATOM     16  H   UNL     1      -1.911  11.246  18.713  0.00  0.00    +0.000 HD
ENDBRANCH  12  15
ENDBRANCH   3   5
BRANCH   1  22
ATOM     17  C   UNL     1       5.818   5.360  15.139  0.00  0.00    +0.000 C 
ATOM     18  C   UNL     1       5.173   4.064  15.705  0.00  0.00    +0.000 C 
ATOM     19  C   UNL     1       4.329   4.549  16.844  0.00  0.00    +0.000 A 
ATOM     20  C   UNL     1       3.506   3.804  17.683  0.00  0.00    +0.000 A 
ATOM     21  C   UNL     1       2.779   4.454  18.692  0.00  0.00    +0.000 A 
ATOM     22  C   UNL     1       2.878   5.851  18.862  0.00  0.00    +0.000 A 
ATOM     23  C   UNL     1       3.726   6.580  18.010  0.00  0.00    +0.000 A 
ATOM     24  C   UNL     1       4.433   5.924  17.010  0.00  0.00    +0.000 A 
ATOM     25  C   UNL     1       5.341   6.551  16.004  0.00  0.00    +0.000 C 
BRANCH  17  26
ATOM     26  N   UNL     1       7.284   5.297  15.078  0.00  0.00    +0.000 NA
ATOM     27  H   UNL     1       7.624   5.845  14.290  0.00  0.00    +0.000 HD
ATOM     28  H   UNL     1       7.575   4.334  14.904  0.00  0.00    +0.000 HD
ENDBRANCH  17  26
ENDBRANCH   1  22
TORSDOF 4
ENDMDL
MODEL 3
REMARK VINA RESULT:      -8.5      1.902      8.939
REMARK  Name = 
REMARK  4 active torsions:
REMARK  status: ('A' for Active; 'I' for Inactive)
REMARK    1  A    between atoms: N_1  and  C_2
REMARK    2  A    between atoms: C_7  and  C_8
REMARK    3  A    between atoms: N_10  and  C_11
REMARK    4  A    between atoms: C_18  and  O_19
REMARK                            x       y       z     vdW  Elec       q    Type
REMARK                         _______ _______ _______ _____ _____    ______ ____
ROOT
ATOM      1  C   UNL     1       1.790   8.260  19.283  0.00  0.00    +0.000 C 
ATOM      2  O   UNL     1       1.685   8.645  18.121  0.00  0.00    +0.000 OA
ATOM      3  N   UNL     1       2.530   7.149  19.656  0.00  0.00    +0.000 N 
ATOM      4  H   UNL     1       2.261   6.699  20.520  0.00  0.00    +0.000 HD
ENDROOT
BRANCH   3   5
ATOM      5  C   UNL     1       3.201   6.330  18.716  0.00  0.00    +0.000 A 
ATOM      6  C   UNL     1       2.648   5.088  18.434  0.00  0.00    +0.000 A 
ATOM      7  C   UNL     1       3.255   4.246  17.498  0.00  0.00    +0.000 A 
ATOM      8  C   UNL     1       4.460   4.559  16.893  0.00  0.00    +0.000 A 
ATOM      9  N   UNL     1       4.994   3.645  16.068  0.00  0.00    +0.000 NA
ATOM     10  C   UNL     1       6.205   3.897  15.535  0.00  0.00    +0.000 A 
ATOM     11  C   UNL     1       6.919   5.050  15.775  0.00  0.00    +0.000 A 
ATOM     12  C   UNL     1       6.335   6.010  16.593  0.00  0.00    +0.000 A 
ATOM     13  C   UNL     1       5.071   5.799  17.195  0.00  0.00    +0.000 A 
ATOM     14  C   UNL     1       4.398   6.696  18.086  0.00  0.00    +0.000 A 
BRANCH  12  15
ATOM     15  O   UNL     1       7.086   7.140  16.779  0.00  0.00    +0.000 OA
ATOM     16  H   UNL     1       7.965   6.998  16.396  0.00  0.00    +0.000 HD
ENDBRANCH  12  15
ENDBRANCH   3   5
BRANCH   1  22
ATOM     17  C   UNL     1      -1.878  12.378  22.030  0.00  0.00    +0.000 C 
ATOM     18  C   UNL     1      -1.266  11.398  23.070  0.00  0.00    +0.000 C 
ATOM     19  C   UNL     1      -0.432  10.469  22.243  0.00  0.00    +0.000 A 
ATOM     20  C   UNL     1       0.363   9.412  22.675  0.00  0.00    +0.000 A 
ATOM     21  C   UNL     1       1.085   8.662  21.733  0.00  0.00    +0.000 A 
ATOM     22  C   UNL     1       1.011   8.970  20.359  0.00  0.00    +0.000 A 
ATOM     23  C   UNL     1       0.190  10.035  19.947  0.00  0.00    +0.000 A 
ATOM     24  C   UNL     1      -0.513  10.774  20.891  0.00  0.00    +0.000 A 
ATOM     25  C   UNL     1      -1.392  11.951  20.624  0.00  0.00    +0.000 C 
BRANCH  17  26
ATOM     26  N   UNL     1      -3.343  12.446  22.092  0.00  0.00    +0.000 NA
ATOM     27  H   UNL     1      -3.675  12.033  22.962  0.00  0.00    +0.000 HD
ATOM     28  H   UNL     1      -3.741  11.883  21.339  0.00  0.00    +0.000 HD
ENDBRANCH  17  26
ENDBRANCH   1  22
TORSDOF 4
ENDMDL
MODEL 4
REMARK VINA RESULT:      -8.4      7.501      9.097
REMARK  Name = 
REMARK  4 active torsions:
REMARK  status: ('A' for Active; 'I' for Inactive)
REMARK    1  A    between atoms: N_1  and  C_2
REMARK    2  A    between atoms: C_7  and  C_8
REMARK    3  A    between atoms: N_10  and  C_11
REMARK    4  A    between atoms: C_18  and  O_19
REMARK                            x       y       z     vdW  Elec       q    Type
REMARK                         _______ _______ _______ _____ _____    ______ ____
ROOT
ATOM      1  C   UNL     1       8.418   9.336  18.270  0.00  0.00    +0.000 C 
ATOM      2  O   UNL     1       7.925  10.193  17.540  0.00  0.00    +0.000 OA
ATOM      3  N   UNL     1       9.429   9.597  19.182  0.00  0.00    +0.000 N 
ATOM      4  H   UNL     1      10.012   8.815  19.443  0.00  0.00    +0.000 HD
ENDROOT
BRANCH   3   5
ATOM      5  C   UNL     1      10.015  10.879  19.322  0.00  0.00    +0.000 A 
ATOM      6  C   UNL     1       9.819  11.549  20.523  0.00  0.00    +0.000 A 
ATOM      7  C   UNL     1      10.391  12.807  20.725  0.00  0.00    +0.000 A 
ATOM      8  C   UNL     1      11.084  13.474  19.730  0.00  0.00    +0.000 A 
ATOM      9  N   UNL     1      11.526  14.711  20.006  0.00  0.00    +0.000 NA
ATOM     10  C   UNL     1      12.129  15.407  19.022  0.00  0.00    +0.000 A 
ATOM     11  C   UNL     1      12.333  14.913  17.753  0.00  0.00    +0.000 A 
ATOM     12  C   UNL     1      11.913  13.614  17.493  0.00  0.00    +0.000 A 
ATOM     13  C   UNL     1      11.261  12.836  18.480  0.00  0.00    +0.000 A 
ATOM     14  C   UNL     1      10.749  11.509  18.308  0.00  0.00    +0.000 A 
BRANCH  12  15
ATOM     15  O   UNL     1      12.160  13.175  16.219  0.00  0.00    +0.000 OA
ATOM     16  H   UNL     1      12.912  13.668  15.858  0.00  0.00    +0.000 HD
ENDBRANCH  12  15
ENDBRANCH   3   5
BRANCH   1  22
ATOM     17  C   UNL     1       5.573   4.356  16.022  0.00  0.00    +0.000 C 
ATOM     18  C   UNL     1       6.330   4.016  17.336  0.00  0.00    +0.000 C 
ATOM     19  C   UNL     1       6.969   5.313  17.727  0.00  0.00    +0.000 A 
ATOM     20  C   UNL     1       7.745   5.584  18.850  0.00  0.00    +0.000 A 
ATOM     21  C   UNL     1       8.246   6.881  19.046  0.00  0.00    +0.000 A 
ATOM     22  C   UNL     1       7.971   7.905  18.117  0.00  0.00    +0.000 A 
ATOM     23  C   UNL     1       7.196   7.602  16.984  0.00  0.00    +0.000 A 
ATOM     24  C   UNL     1       6.700   6.317  16.807  0.00  0.00    +0.000 A 
ATOM     25  C   UNL     1       5.835   5.843  15.686  0.00  0.00    +0.000 C 
BRANCH  17  26
ATOM     26  N   UNL     1       5.941   3.482  14.900  0.00  0.00    +0.000 NA
ATOM     27  H   UNL     1       6.888   3.693  14.590  0.00  0.00    +0.000 HD
ATOM     28  H   UNL     1       5.330   3.675  14.105  0.00  0.00    +0.000 HD
ENDBRANCH  17  26
ENDBRANCH   1  22
TORSDOF 4
ENDMDL
MODEL 5
REMARK VINA RESULT:      -8.3      2.017      8.925
REMARK  Name = 
REMARK  4 active torsions:
REMARK  status: ('A' for Active; 'I' for Inactive)
REMARK    1  A    between atoms: N_1  and  C_2
REMARK    2  A    between atoms: C_7  and  C_8
REMARK    3  A    between atoms: N_10  and  C_11
REMARK    4  A    between atoms: C_18  and  O_19
REMARK                            x       y       z     vdW  Elec       q    Type
REMARK                         _______ _______ _______ _____ _____    ______ ____
ROOT
ATOM      1  C   UNL     1       1.803   8.741  18.521  0.00  0.00    +0.000 C 
ATOM      2  O   UNL     1       2.040   9.120  17.376  0.00  0.00    +0.000 OA
ATOM      3  N   UNL     1       2.276   7.547  19.044  0.00  0.00    +0.000 N 
ATOM      4  H   UNL     1       1.745   7.149  19.806  0.00  0.00    +0.000 HD
ENDROOT
BRANCH   3   5
ATOM      5  C   UNL     1       3.044   6.633  18.282  0.00  0.00    +0.000 A 
ATOM      6  C   UNL     1       2.527   5.359  18.093  0.00  0.00    +0.000 A 
ATOM      7  C   UNL     1       3.231   4.422  17.332  0.00  0.00    +0.000 A 
ATOM      8  C   UNL     1       4.492   4.680  16.823  0.00  0.00    +0.000 A 
ATOM      9  N   UNL     1       5.112   3.683  16.172  0.00  0.00    +0.000 NA
ATOM     10  C   UNL     1       6.373   3.889  15.743  0.00  0.00    +0.000 A 
ATOM     11  C   UNL     1       7.054   5.073  15.918  0.00  0.00    +0.000 A 
ATOM     12  C   UNL     1       6.385   6.114  16.551  0.00  0.00    +0.000 A 
ATOM     13  C   UNL     1       5.065   5.955  17.038  0.00  0.00    +0.000 A 
ATOM     14  C   UNL     1       4.300   6.941  17.742  0.00  0.00    +0.000 A 
BRANCH  12  15
ATOM     15  O   UNL     1       7.109   7.269  16.679  0.00  0.00    +0.000 OA
ATOM     16  H   UNL     1       8.040   7.078  16.484  0.00  0.00    +0.000 HD
ENDBRANCH  12  15
ENDBRANCH   3   5
BRANCH   1  22
ATOM     17  C   UNL     1      -2.098  13.183  20.252  0.00  0.00    +0.000 C 
ATOM     18  C   UNL     1      -1.716  12.279  21.457  0.00  0.00    +0.000 C 
ATOM     19  C   UNL     1      -0.794  11.259  20.864  0.00  0.00    +0.000 A 
ATOM     20  C   UNL     1      -0.131  10.221  21.510  0.00  0.00    +0.000 A 
ATOM     21  C   UNL     1       0.709   9.372  20.772  0.00  0.00    +0.000 A 
ATOM     22  C   UNL     1       0.883   9.564  19.385  0.00  0.00    +0.000 A 
ATOM     23  C   UNL     1       0.191  10.612  18.753  0.00  0.00    +0.000 A 
ATOM     24  C   UNL     1      -0.630  11.449  19.498  0.00  0.00    +0.000 A 
ATOM     25  C   UNL     1      -1.399  12.623  18.990  0.00  0.00    +0.000 C 
BRANCH  17  26
ATOM     26  N   UNL     1      -3.549  13.298  20.052  0.00  0.00    +0.000 NA
ATOM     27  H   UNL     1      -3.880  12.540  19.459  0.00  0.00    +0.000 HD
ATOM     28  H   UNL     1      -3.755  14.164  19.552  0.00  0.00    +0.000 HD
ENDBRANCH  17  26
ENDBRANCH   1  22
TORSDOF 4
ENDMDL
MODEL 6
REMARK VINA RESULT:      -8.2      1.928      2.572
REMARK  Name = 
REMARK  4 active torsions:
REMARK  status: ('A' for Active; 'I' for Inactive)
REMARK    1  A    between atoms: N_1  and  C_2
REMARK    2  A    between atoms: C_7  and  C_8
REMARK    3  A    between atoms: N_10  and  C_11
REMARK    4  A    between atoms: C_18  and  O_19
REMARK                            x       y       z     vdW  Elec       q    Type
REMARK                         _______ _______ _______ _____ _____    ______ ____
ROOT
ATOM      1  C   UNL     1       2.222   7.741  19.174  0.00  0.00    +0.000 C 
ATOM      2  O   UNL     1       1.706   7.522  20.268  0.00  0.00    +0.000 OA
ATOM      3  N   UNL     1       1.840   8.785  18.345  0.00  0.00    +0.000 N 
ATOM      4  H   UNL     1       2.027   8.667  17.359  0.00  0.00    +0.000 HD
ENDROOT
BRANCH   3   5
ATOM      5  C   UNL     1       0.785   9.671  18.672  0.00  0.00    +0.000 A 
ATOM      6  C   UNL     1       0.962  10.506  19.767  0.00  0.00    +0.000 A 
ATOM      7  C   UNL     1      -0.037  11.416  20.123  0.00  0.00    +0.000 A 
ATOM      8  C   UNL     1      -1.261  11.461  19.478  0.00  0.00    +0.000 A 
ATOM      9  N   UNL     1      -2.177  12.320  19.951  0.00  0.00    +0.000 NA
ATOM     10  C   UNL     1      -3.402  12.319  19.389  0.00  0.00    +0.000 A 
ATOM     11  C   UNL     1      -3.761  11.498  18.344  0.00  0.00    +0.000 A 
ATOM     12  C   UNL     1      -2.789  10.646  17.831  0.00  0.00    +0.000 A 
ATOM     13  C   UNL     1      -1.488  10.590  18.387  0.00  0.00    +0.000 A 
ATOM     14  C   UNL     1      -0.427   9.723  17.970  0.00  0.00    +0.000 A 
BRANCH  12  15
ATOM     15  O   UNL     1      -3.201   9.869  16.782  0.00  0.00    +0.000 OA
ATOM     16  H   UNL     1      -4.167   9.787  16.814  0.00  0.00    +0.000 HD
ENDBRANCH  12  15
ENDBRANCH   3   5
BRANCH   1  22
ATOM     17  C   UNL     1       6.213   5.030  15.344  0.00  0.00    +0.000 C 
ATOM     18  C   UNL     1       6.116   4.253  16.686  0.00  0.00    +0.000 C 
ATOM     19  C   UNL     1       5.135   5.047  17.492  0.00  0.00    +0.000 A 
ATOM     20  C   UNL     1       4.656   4.779  18.771  0.00  0.00    +0.000 A 
ATOM     21  C   UNL     1       3.720   5.648  19.354  0.00  0.00    +0.000 A 
ATOM     22  C   UNL     1       3.264   6.785  18.655  0.00  0.00    +0.000 A 
ATOM     23  C   UNL     1       3.772   7.041  17.370  0.00  0.00    +0.000 A 
ATOM     24  C   UNL     1       4.693   6.168  16.803  0.00  0.00    +0.000 A 
ATOM     25  C   UNL     1       5.297   6.274  15.442  0.00  0.00    +0.000 C 
BRANCH  17  26
ATOM     26  N   UNL     1       7.588   5.406  14.990  0.00  0.00    +0.000 NA
ATOM     27  H   UNL     1       8.080   5.743  15.816  0.00  0.00    +0.000 HD
ATOM     28  H   UNL     1       7.568   6.184  14.331  0.00  0.00    +0.000 HD
ENDBRANCH  17  26
ENDBRANCH   1  22
TORSDOF 4
ENDMDL
MODEL 7
REMARK VINA RESULT:      -8.1      1.762      2.211
REMARK  Name = 
REMARK  4 active torsions:
REMARK  status: ('A' for Active; 'I' for Inactive)
REMARK    1  A    between atoms: N_1  and  C_2
REMARK    2  A    between atoms: C_7  and  C_8
REMARK    3  A    between atoms: N_10  and  C_11
REMARK    4  A    between atoms: C_18  and  O_19
REMARK                            x       y       z     vdW  Elec       q    Type
REMARK                         _______ _______ _______ _____ _____    ______ ____
ROOT
ATOM      1  C   UNL     1       2.059   7.994  18.816  0.00  0.00    +0.000 C 
ATOM      2  O   UNL     1       2.048   9.070  18.223  0.00  0.00    +0.000 OA
ATOM      3  N   UNL     1       1.462   7.795  20.051  0.00  0.00    +0.000 N 
ATOM      4  H   UNL     1       1.831   7.041  20.614  0.00  0.00    +0.000 HD
ENDROOT
BRANCH   3   5
ATOM      5  C   UNL     1       0.817   8.837  20.761  0.00  0.00    +0.000 A 
ATOM      6  C   UNL     1       0.894   8.816  22.147  0.00  0.00    +0.000 A 
ATOM      7  C   UNL     1       0.295   9.830  22.899  0.00  0.00    +0.000 A 
ATOM      8  C   UNL     1      -0.469  10.828  22.319  0.00  0.00    +0.000 A 
ATOM      9  N   UNL     1      -1.063  11.707  23.141  0.00  0.00    +0.000 NA
ATOM     10  C   UNL     1      -1.878  12.635  22.600  0.00  0.00    +0.000 A 
ATOM     11  C   UNL     1      -2.120  12.742  21.249  0.00  0.00    +0.000 A 
ATOM     12  C   UNL     1      -1.461  11.856  20.404  0.00  0.00    +0.000 A 
ATOM     13  C   UNL     1      -0.604  10.850  20.912  0.00  0.00    +0.000 A 
ATOM     14  C   UNL     1       0.087   9.860  20.140  0.00  0.00    +0.000 A 
BRANCH  12  15
ATOM     15  O   UNL     1      -1.730  12.025  19.072  0.00  0.00    +0.000 OA
ATOM     16  H   UNL     1      -0.931  12.352  18.630  0.00  0.00    +0.000 HD
ENDBRANCH  12  15
ENDBRANCH   3   5
BRANCH   1  22
ATOM     17  C   UNL     1       6.440   4.896  15.789  0.00  0.00    +0.000 C 
ATOM     18  C   UNL     1       5.309   3.940  16.260  0.00  0.00    +0.000 C 
ATOM     19  C   UNL     1       4.355   4.840  16.982  0.00  0.00    +0.000 A 
ATOM     20  C   UNL     1       3.144   4.506  17.582  0.00  0.00    +0.000 A 
ATOM     21  C   UNL     1       2.381   5.508  18.203  0.00  0.00    +0.000 A 
ATOM     22  C   UNL     1       2.832   6.844  18.224  0.00  0.00    +0.000 A 
ATOM     23  C   UNL     1       4.065   7.154  17.623  0.00  0.00    +0.000 A 
ATOM     24  C   UNL     1       4.805   6.154  17.005  0.00  0.00    +0.000 A 
ATOM     25  C   UNL     1       6.106   6.321  16.292  0.00  0.00    +0.000 C 
BRANCH  17  26
ATOM     26  N   UNL     1       7.776   4.474  16.230  0.00  0.00    +0.000 NA
ATOM     27  H   UNL     1       7.968   4.840  17.160  0.00  0.00    +0.000 HD
ATOM     28  H   UNL     1       8.480   4.878  15.612  0.00  0.00    +0.000 HD
ENDBRANCH  17  26
ENDBRANCH   1  22
TORSDOF 4
ENDMDL
MODEL 8
REMARK VINA RESULT:      -8.1      1.574      2.105
REMARK  Name = 
REMARK  4 active torsions:
REMARK  status: ('A' for Active; 'I' for Inactive)
REMARK    1  A    between atoms: N_1  and  C_2
REMARK    2  A    between atoms: C_7  and  C_8
REMARK    3  A    between atoms: N_10  and  C_11
REMARK    4  A    between atoms: C_18  and  O_19
REMARK                            x       y       z     vdW  Elec       q    Type
REMARK                         _______ _______ _______ _____ _____    ______ ____
ROOT
ATOM      1  C   UNL     1       2.219   7.090  19.459  0.00  0.00    +0.000 C 
ATOM      2  O   UNL     1       1.670   6.652  20.467  0.00  0.00    +0.000 OA
ATOM      3  N   UNL     1       2.019   8.374  18.977  0.00  0.00    +0.000 N 
ATOM      4  H   UNL     1       2.187   8.516  17.990  0.00  0.00    +0.000 HD
ENDROOT
BRANCH   3   5
ATOM      5  C   UNL     1       1.125   9.286  19.588  0.00  0.00    +0.000 A 
ATOM      6  C   UNL     1       0.969   9.210  20.966  0.00  0.00    +0.000 A 
ATOM      7  C   UNL     1       0.116  10.098  21.625  0.00  0.00    +0.000 A 
ATOM      8  C   UNL     1      -0.670  11.013  20.946  0.00  0.00    +0.000 A 
ATOM      9  N   UNL     1      -1.511  11.766  21.672  0.00  0.00    +0.000 NA
ATOM     10  C   UNL     1      -2.343  12.602  21.020  0.00  0.00    +0.000 A 
ATOM     11  C   UNL     1      -2.365  12.741  19.650  0.00  0.00    +0.000 A 
ATOM     12  C   UNL     1      -1.456  11.991  18.912  0.00  0.00    +0.000 A 
ATOM     13  C   UNL     1      -0.566  11.084  19.537  0.00  0.00    +0.000 A 
ATOM     14  C   UNL     1       0.376  10.232  18.874  0.00  0.00    +0.000 A 
BRANCH  12  15
ATOM     15  O   UNL     1      -1.516  12.186  17.558  0.00  0.00    +0.000 OA
ATOM     16  H   UNL     1      -2.352  12.626  17.341  0.00  0.00    +0.000 HD
ENDBRANCH  12  15
ENDBRANCH   3   5
BRANCH   1  22
ATOM     17  C   UNL     1       5.999   5.098  15.020  0.00  0.00    +0.000 C 
ATOM     18  C   UNL     1       5.561   3.928  15.944  0.00  0.00    +0.000 C 
ATOM     19  C   UNL     1       4.677   4.582  16.961  0.00  0.00    +0.000 A 
ATOM     20  C   UNL     1       3.989   3.985  18.012  0.00  0.00    +0.000 A 
ATOM     21  C   UNL     1       3.193   4.778  18.855  0.00  0.00    +0.000 A 
ATOM     22  C   UNL     1       3.089   6.168  18.644  0.00  0.00    +0.000 A 
ATOM     23  C   UNL     1       3.805   6.749  17.583  0.00  0.00    +0.000 A 
ATOM     24  C   UNL     1       4.581   5.951  16.752  0.00  0.00    +0.000 A 
ATOM     25  C   UNL     1       5.368   6.402  15.566  0.00  0.00    +0.000 C 
BRANCH  17  26
ATOM     26  N   UNL     1       7.457   5.222  14.894  0.00  0.00    +0.000 NA
ATOM     27  H   UNL     1       7.835   4.407  14.415  0.00  0.00    +0.000 HD
ATOM     28  H   UNL     1       7.878   5.229  15.823  0.00  0.00    +0.000 HD
ENDBRANCH  17  26
ENDBRANCH   1  22
TORSDOF 4
ENDMDL
MODEL 9
REMARK VINA RESULT:      -8.1      2.102      8.934
REMARK  Name = 
REMARK  4 active torsions:
REMARK  status: ('A' for Active; 'I' for Inactive)
REMARK    1  A    between atoms: N_1  and  C_2
REMARK    2  A    between atoms: C_7  and  C_8
REMARK    3  A    between atoms: N_10  and  C_11
REMARK    4  A    between atoms: C_18  and  O_19
REMARK                            x       y       z     vdW  Elec       q    Type
REMARK                         _______ _______ _______ _____ _____    ______ ____
ROOT
ATOM      1  C   UNL     1       1.598   9.093  18.263  0.00  0.00    +0.000 C 
ATOM      2  O   UNL     1       2.015   9.422  17.154  0.00  0.00    +0.000 OA
ATOM      3  N   UNL     1       1.940   7.902  18.885  0.00  0.00    +0.000 N 
ATOM      4  H   UNL     1       1.288   7.550  19.572  0.00  0.00    +0.000 HD
ENDROOT
BRANCH   3   5
ATOM      5  C   UNL     1       2.774   6.935  18.274  0.00  0.00    +0.000 A 
ATOM      6  C   UNL     1       2.298   5.634  18.190  0.00  0.00    +0.000 A 
ATOM      7  C   UNL     1       3.069   4.643  17.577  0.00  0.00    +0.000 A 
ATOM      8  C   UNL     1       4.354   4.881  17.122  0.00  0.00    +0.000 A 
ATOM      9  N   UNL     1       5.035   3.839  16.620  0.00  0.00    +0.000 NA
ATOM     10  C   UNL     1       6.316   4.033  16.249  0.00  0.00    +0.000 A 
ATOM     11  C   UNL     1       6.960   5.247  16.338  0.00  0.00    +0.000 A 
ATOM     12  C   UNL     1       6.230   6.330  16.815  0.00  0.00    +0.000 A 
ATOM     13  C   UNL     1       4.885   6.187  17.235  0.00  0.00    +0.000 A 
ATOM     14  C   UNL     1       4.056   7.220  17.781  0.00  0.00    +0.000 A 
BRANCH  12  15
ATOM     15  O   UNL     1       6.920   7.512  16.863  0.00  0.00    +0.000 OA
ATOM     16  H   UNL     1       7.299   7.689  15.989  0.00  0.00    +0.000 HD
ENDBRANCH  12  15
ENDBRANCH   3   5
BRANCH   1  22
ATOM     17  C   UNL     1      -1.631  11.779  22.769  0.00  0.00    +0.000 C 
ATOM     18  C   UNL     1      -2.164  12.207  21.374  0.00  0.00    +0.000 C 
ATOM     19  C   UNL     1      -1.268  11.490  20.411  0.00  0.00    +0.000 A 
ATOM     20  C   UNL     1      -1.321  11.495  19.020  0.00  0.00    +0.000 A 
ATOM     21  C   UNL     1      -0.390  10.738  18.291  0.00  0.00    +0.000 A 
ATOM     22  C   UNL     1       0.595   9.977  18.956  0.00  0.00    +0.000 A 
ATOM     23  C   UNL     1       0.636  10.000  20.361  0.00  0.00    +0.000 A 
ATOM     24  C   UNL     1      -0.297  10.747  21.069  0.00  0.00    +0.000 A 
ATOM     25  C   UNL     1      -0.415  10.846  22.554  0.00  0.00    +0.000 C 
BRANCH  17  26
ATOM     26  N   UNL     1      -1.286  12.917  23.631  0.00  0.00    +0.000 NA
ATOM     27  H   UNL     1      -0.542  12.654  24.275  0.00  0.00    +0.000 HD
ATOM     28  H   UNL     1      -2.091  13.162  24.208  0.00  0.00    +0.000 HD
ENDBRANCH  17  26
ENDBRANCH   1  22
TORSDOF 4
ENDMDL
