MODEL 1
REMARK VINA RESULT:      -8.2      0.000      0.000
REMARK  Name = 
REMARK  5 active torsions:
REMARK  status: ('A' for Active; 'I' for Inactive)
REMARK    1  A    between atoms: C_2  and  C_16
REMARK    2  A    between atoms: N_3  and  C_4
REMARK    3  A    between atoms: C_9  and  C_10
REMARK    4  A    between atoms: C_10  and  O_12
REMARK    5  A    between atoms: N_19  and  C_20
REMARK                            x       y       z     vdW  Elec       q    Type
REMARK                         _______ _______ _______ _____ _____    ______ ____
ROOT
ATOM      1  O   UNL     1       1.462   9.106  18.496  0.00  0.00    +0.000 OA
ATOM      2  C   UNL     1       1.560   8.599  19.608  0.00  0.00    +0.000 C 
ATOM      3  N   UNL     1       2.169   7.381  19.878  0.00  0.00    +0.000 N 
ATOM      4  H   UNL     1       2.028   7.024  20.818  0.00  0.00    +0.000 HD
ENDROOT
BRANCH   3   5
ATOM      5  C   UNL     1       2.760   6.549  18.892  0.00  0.00    +0.000 A 
ATOM      6  C   UNL     1       2.431   5.188  18.773  0.00  0.00    +0.000 A 
ATOM      7  C   UNL     1       3.081   4.330  17.878  0.00  0.00    +0.000 A 
ATOM      8  C   UNL     1       4.072   4.899  17.097  0.00  0.00    +0.000 A 
ATOM      9  O   UNL     1       4.845   4.228  16.199  0.00  0.00    +0.000 OA
ATOM     10  C   UNL     1       5.707   5.140  15.652  0.00  0.00    +0.000 A 
ATOM     11  C   UNL     1       5.467   6.392  16.194  0.00  0.00    +0.000 A 
ATOM     12  C   UNL     1       4.414   6.246  17.136  0.00  0.00    +0.000 A 
ATOM     13  C   UNL     1       3.727   7.098  18.030  0.00  0.00    +0.000 A 
BRANCH  10  14
ATOM     14  C   UNL     1       6.669   4.692  14.675  0.00  0.00    +0.000 C 
ATOM     15  O   UNL     1       7.677   5.292  14.334  0.00  0.00    +0.000 OA
BRANCH  14  16
ATOM     16  O   UNL     1       6.326   3.482  14.158  0.00  0.00    +0.000 OA
ATOM     17  H   UNL     1       6.412   2.784  14.841  0.00  0.00    +0.000 HD
ENDBRANCH  14  16
ENDBRANCH  10  14
ENDBRANCH   3   5
BRANCH   2  18
ATOM     18  C   UNL     1       0.951   9.288  20.758  0.00  0.00    +0.000 A 
ATOM     19  C   UNL     1       0.899   8.715  22.051  0.00  0.00    +0.000 A 
ATOM     20  C   UNL     1       0.248   9.628  22.827  0.00  0.00    +0.000 A 
ATOM     21  N   UNL     1      -0.095  10.684  22.013  0.00  0.00    +0.000 N 
ATOM     22  N   UNL     1       0.382  10.511  20.737  0.00  0.00    +0.000 NA
BRANCH  21  23
ATOM     23  C   UNL     1      -0.841  11.833  22.403  0.00  0.00    +0.000 A 
ATOM     24  C   UNL     1      -2.068  11.692  23.075  0.00  0.00    +0.000 A 
ATOM     25  C   UNL     1      -2.785  12.816  23.487  0.00  0.00    +0.000 A 
ATOM     26  C   UNL     1      -2.292  14.088  23.222  0.00  0.00    +0.000 A 
ATOM     27  C   UNL     1      -1.086  14.240  22.535  0.00  0.00    +0.000 A 
ATOM     28  C   UNL     1      -0.359  13.118  22.124  0.00  0.00    +0.000 A 
ENDBRANCH  21  23
ENDBRANCH   2  18
TORSDOF 5
ENDMDL
MODEL 2
REMARK VINA RESULT:      -8.1      0.802      1.083
REMARK  Name = 
REMARK  5 active torsions:
REMARK  status: ('A' for Active; 'I' for Inactive)
REMARK    1  A    between atoms: C_2  and  C_16
REMARK    2  A    between atoms: N_3  and  C_4
REMARK    3  A    between atoms: C_9  and  C_10
REMARK    4  A    between atoms: C_10  and  O_12
REMARK    5  A    between atoms: N_19  and  C_20
REMARK                            x       y       z     vdW  Elec       q    Type
REMARK                         _______ _______ _______ _____ _____    ______ ____
ROOT
ATOM      1  O   UNL     1       1.656   8.874  18.381  0.00  0.00    +0.000 OA
ATOM      2  C   UNL     1       1.684   8.421  19.521  0.00  0.00    +0.000 C 
ATOM      3  N   UNL     1       2.305   7.237  19.894  0.00  0.00    +0.000 N 
ATOM      4  H   UNL     1       2.102   6.919  20.837  0.00  0.00    +0.000 HD
ENDROOT
BRANCH   3   5
ATOM      5  C   UNL     1       2.994   6.381  18.997  0.00  0.00    +0.000 A 
ATOM      6  C   UNL     1       3.089   4.996  19.214  0.00  0.00    +0.000 A 
ATOM      7  C   UNL     1       3.852   4.154  18.397  0.00  0.00    +0.000 A 
ATOM      8  C   UNL     1       4.514   4.761  17.343  0.00  0.00    +0.000 A 
ATOM      9  O   UNL     1       5.336   4.126  16.464  0.00  0.00    +0.000 OA
ATOM     10  C   UNL     1       5.799   5.074  15.592  0.00  0.00    +0.000 A 
ATOM     11  C   UNL     1       5.255   6.307  15.913  0.00  0.00    +0.000 A 
ATOM     12  C   UNL     1       4.426   6.117  17.049  0.00  0.00    +0.000 A 
ATOM     13  C   UNL     1       3.628   6.943  17.874  0.00  0.00    +0.000 A 
BRANCH  10  14
ATOM     14  C   UNL     1       6.722   4.678  14.556  0.00  0.00    +0.000 C 
ATOM     15  O   UNL     1       7.677   5.328  14.161  0.00  0.00    +0.000 OA
BRANCH  14  16
ATOM     16  O   UNL     1       6.407   3.456  14.050  0.00  0.00    +0.000 OA
ATOM     17  H   UNL     1       5.461   3.255  14.211  0.00  0.00    +0.000 HD
ENDBRANCH  14  16
ENDBRANCH  10  14
ENDBRANCH   3   5
BRANCH   2  18
ATOM     18  C   UNL     1       0.967   9.141  20.586  0.00  0.00    +0.000 A 
ATOM     19  C   UNL     1       1.129   8.831  21.958  0.00  0.00    +0.000 A 
ATOM     20  C   UNL     1       0.296   9.683  22.623  0.00  0.00    +0.000 A 
ATOM     21  N   UNL     1      -0.351  10.443  21.676  0.00  0.00    +0.000 N 
ATOM     22  N   UNL     1       0.095  10.154  20.409  0.00  0.00    +0.000 NA
BRANCH  21  23
ATOM     23  C   UNL     1      -1.356  11.420  21.930  0.00  0.00    +0.000 A 
ATOM     24  C   UNL     1      -1.819  12.254  20.897  0.00  0.00    +0.000 A 
ATOM     25  C   UNL     1      -2.826  13.189  21.137  0.00  0.00    +0.000 A 
ATOM     26  C   UNL     1      -3.371  13.310  22.410  0.00  0.00    +0.000 A 
ATOM     27  C   UNL     1      -2.903  12.503  23.448  0.00  0.00    +0.000 A 
ATOM     28  C   UNL     1      -1.898  11.559  23.215  0.00  0.00    +0.000 A 
ENDBRANCH  21  23
ENDBRANCH   2  18
TORSDOF 5
ENDMDL
MODEL 3
REMARK VINA RESULT:      -7.9      3.062      3.313
REMARK  Name = 
REMARK  5 active torsions:
REMARK  status: ('A' for Active; 'I' for Inactive)
REMARK    1  A    between atoms: C_2  and  C_16
REMARK    2  A    between atoms: N_3  and  C_4
REMARK    3  A    between atoms: C_9  and  C_10
REMARK    4  A    between atoms: C_10  and  O_12
REMARK    5  A    between atoms: N_19  and  C_20
REMARK                            x       y       z     vdW  Elec       q    Type
REMARK                         _______ _______ _______ _____ _____    ______ ____
ROOT
ATOM      1  O   UNL     1       2.030   9.787  17.371  0.00  0.00    +0.000 OA
ATOM      2  C   UNL     1       1.347   9.514  18.352  0.00  0.00    +0.000 C 
ATOM      3  N   UNL     1       1.493   8.376  19.134  0.00  0.00    +0.000 N 
ATOM      4  H   UNL     1       0.751   8.216  19.809  0.00  0.00    +0.000 HD
ENDROOT
BRANCH   3   5
ATOM      5  C   UNL     1       2.458   7.364  18.897  0.00  0.00    +0.000 A 
ATOM      6  C   UNL     1       2.571   6.234  19.725  0.00  0.00    +0.000 A 
ATOM      7  C   UNL     1       3.584   5.282  19.568  0.00  0.00    +0.000 A 
ATOM      8  C   UNL     1       4.479   5.506  18.536  0.00  0.00    +0.000 A 
ATOM      9  O   UNL     1       5.554   4.723  18.247  0.00  0.00    +0.000 OA
ATOM     10  C   UNL     1       6.187   5.292  17.175  0.00  0.00    +0.000 A 
ATOM     11  C   UNL     1       5.501   6.428  16.777  0.00  0.00    +0.000 A 
ATOM     12  C   UNL     1       4.397   6.579  17.657  0.00  0.00    +0.000 A 
ATOM     13  C   UNL     1       3.349   7.515  17.819  0.00  0.00    +0.000 A 
BRANCH  10  14
ATOM     14  C   UNL     1       7.388   4.675  16.665  0.00  0.00    +0.000 C 
ATOM     15  O   UNL     1       7.753   4.672  15.500  0.00  0.00    +0.000 OA
BRANCH  14  16
ATOM     16  O   UNL     1       8.100   4.079  17.658  0.00  0.00    +0.000 OA
ATOM     17  H   UNL     1       8.956   3.750  17.312  0.00  0.00    +0.000 HD
ENDBRANCH  14  16
ENDBRANCH  10  14
ENDBRANCH   3   5
BRANCH   2  18
ATOM     18  C   UNL     1       0.246  10.419  18.723  0.00  0.00    +0.000 A 
ATOM     19  C   UNL     1       0.368  11.388  19.747  0.00  0.00    +0.000 A 
ATOM     20  C   UNL     1      -0.848  12.003  19.811  0.00  0.00    +0.000 A 
ATOM     21  N   UNL     1      -1.661  11.398  18.879  0.00  0.00    +0.000 N 
ATOM     22  N   UNL     1      -0.979  10.448  18.159  0.00  0.00    +0.000 NA
BRANCH  21  23
ATOM     23  C   UNL     1      -3.036  11.692  18.652  0.00  0.00    +0.000 A 
ATOM     24  C   UNL     1      -3.788  12.381  19.621  0.00  0.00    +0.000 A 
ATOM     25  C   UNL     1      -5.126  12.698  19.386  0.00  0.00    +0.000 A 
ATOM     26  C   UNL     1      -5.730  12.320  18.193  0.00  0.00    +0.000 A 
ATOM     27  C   UNL     1      -4.999  11.615  17.235  0.00  0.00    +0.000 A 
ATOM     28  C   UNL     1      -3.655  11.299  17.459  0.00  0.00    +0.000 A 
ENDBRANCH  21  23
ENDBRANCH   2  18
TORSDOF 5
ENDMDL
MODEL 4
REMARK VINA RESULT:      -7.8      7.075      8.746
REMARK  Name = 
REMARK  5 active torsions:
REMARK  status: ('A' for Active; 'I' for Inactive)
REMARK    1  A    between atoms: C_2  and  C_16
REMARK    2  A    between atoms: N_3  and  C_4
REMARK    3  A    between atoms: C_9  and  C_10
REMARK    4  A    between atoms: C_10  and  O_12
REMARK    5  A    between atoms: N_19  and  C_20
REMARK                            x       y       z     vdW  Elec       q    Type
REMARK                         _______ _______ _______ _____ _____    ______ ____
ROOT
ATOM      1  O   UNL     1       7.088   9.159  17.125  0.00  0.00    +0.000 OA
ATOM      2  C   UNL     1       7.958   8.833  17.926  0.00  0.00    +0.000 C 
ATOM      3  N   UNL     1       8.162   7.545  18.403  0.00  0.00    +0.000 N 
ATOM      4  H   UNL     1       8.814   7.468  19.177  0.00  0.00    +0.000 HD
ENDROOT
BRANCH   3   5
ATOM      5  C   UNL     1       7.380   6.423  18.027  0.00  0.00    +0.000 A 
ATOM      6  C   UNL     1       7.249   6.023  16.686  0.00  0.00    +0.000 A 
ATOM      7  C   UNL     1       6.399   4.985  16.288  0.00  0.00    +0.000 A 
ATOM      8  C   UNL     1       5.689   4.356  17.296  0.00  0.00    +0.000 A 
ATOM      9  O   UNL     1       4.784   3.356  17.111  0.00  0.00    +0.000 OA
ATOM     10  C   UNL     1       4.298   3.023  18.347  0.00  0.00    +0.000 A 
ATOM     11  C   UNL     1       4.909   3.803  19.314  0.00  0.00    +0.000 A 
ATOM     12  C   UNL     1       5.808   4.674  18.644  0.00  0.00    +0.000 A 
ATOM     13  C   UNL     1       6.692   5.710  19.025  0.00  0.00    +0.000 A 
BRANCH  10  14
ATOM     14  C   UNL     1       3.291   1.994  18.446  0.00  0.00    +0.000 C 
ATOM     15  O   UNL     1       2.094   2.176  18.609  0.00  0.00    +0.000 OA
BRANCH  14  16
ATOM     16  O   UNL     1       3.834   0.754  18.328  0.00  0.00    +0.000 OA
ATOM     17  H   UNL     1       4.638   0.787  17.769  0.00  0.00    +0.000 HD
ENDBRANCH  14  16
ENDBRANCH  10  14
ENDBRANCH   3   5
BRANCH   2  18
ATOM     18  C   UNL     1       8.836   9.877  18.481  0.00  0.00    +0.000 A 
ATOM     19  C   UNL     1       9.165   9.945  19.857  0.00  0.00    +0.000 A 
ATOM     20  C   UNL     1       9.964  11.043  19.985  0.00  0.00    +0.000 A 
ATOM     21  N   UNL     1      10.076  11.613  18.737  0.00  0.00    +0.000 N 
ATOM     22  N   UNL     1       9.424  10.870  17.784  0.00  0.00    +0.000 NA
BRANCH  21  23
ATOM     23  C   UNL     1      10.774  12.816  18.427  0.00  0.00    +0.000 A 
ATOM     24  C   UNL     1      11.670  12.861  17.344  0.00  0.00    +0.000 A 
ATOM     25  C   UNL     1      12.330  14.047  17.019  0.00  0.00    +0.000 A 
ATOM     26  C   UNL     1      12.113  15.192  17.776  0.00  0.00    +0.000 A 
ATOM     27  C   UNL     1      11.242  15.152  18.867  0.00  0.00    +0.000 A 
ATOM     28  C   UNL     1      10.573  13.969  19.196  0.00  0.00    +0.000 A 
ENDBRANCH  21  23
ENDBRANCH   2  18
TORSDOF 5
ENDMDL
MODEL 5
REMARK VINA RESULT:      -7.7      1.443      1.861
REMARK  Name = 
REMARK  5 active torsions:
REMARK  status: ('A' for Active; 'I' for Inactive)
REMARK    1  A    between atoms: C_2  and  C_16
REMARK    2  A    between atoms: N_3  and  C_4
REMARK    3  A    between atoms: C_9  and  C_10
REMARK    4  A    between atoms: C_10  and  O_12
REMARK    5  A    between atoms: N_19  and  C_20
REMARK                            x       y       z     vdW  Elec       q    Type
REMARK                         _______ _______ _______ _____ _____    ______ ____
ROOT
ATOM      1  O   UNL     1       0.680   9.602  17.701  0.00  0.00    +0.000 OA
ATOM      2  C   UNL     1       1.005   9.599  18.883  0.00  0.00    +0.000 C 
ATOM      3  N   UNL     1       1.854   8.674  19.475  0.00  0.00    +0.000 N 
ATOM      4  H   UNL     1       1.897   8.710  20.488  0.00  0.00    +0.000 HD
ENDROOT
BRANCH   3   5
ATOM      5  C   UNL     1       2.461   7.594  18.784  0.00  0.00    +0.000 A 
ATOM      6  C   UNL     1       2.207   6.254  19.125  0.00  0.00    +0.000 A 
ATOM      7  C   UNL     1       2.877   5.182  18.525  0.00  0.00    +0.000 A 
ATOM      8  C   UNL     1       3.811   5.510  17.557  0.00  0.00    +0.000 A 
ATOM      9  O   UNL     1       4.593   4.618  16.889  0.00  0.00    +0.000 OA
ATOM     10  C   UNL     1       5.385   5.340  16.038  0.00  0.00    +0.000 A 
ATOM     11  C   UNL     1       5.091   6.688  16.158  0.00  0.00    +0.000 A 
ATOM     12  C   UNL     1       4.077   6.809  17.144  0.00  0.00    +0.000 A 
ATOM     13  C   UNL     1       3.370   7.875  17.747  0.00  0.00    +0.000 A 
BRANCH  10  14
ATOM     14  C   UNL     1       6.342   4.641  15.215  0.00  0.00    +0.000 C 
ATOM     15  O   UNL     1       6.149   3.587  14.629  0.00  0.00    +0.000 OA
BRANCH  14  16
ATOM     16  O   UNL     1       7.525   5.308  15.151  0.00  0.00    +0.000 OA
ATOM     17  H   UNL     1       7.732   5.545  14.223  0.00  0.00    +0.000 HD
ENDBRANCH  14  16
ENDBRANCH  10  14
ENDBRANCH   3   5
BRANCH   2  18
ATOM     18  C   UNL     1       0.425  10.613  19.780  0.00  0.00    +0.000 A 
ATOM     19  C   UNL     1       1.205  11.622  20.396  0.00  0.00    +0.000 A 
ATOM     20  C   UNL     1       0.332  12.340  21.158  0.00  0.00    +0.000 A 
ATOM     21  N   UNL     1      -0.908  11.758  21.017  0.00  0.00    +0.000 N 
ATOM     22  N   UNL     1      -0.875  10.716  20.123  0.00  0.00    +0.000 NA
BRANCH  21  23
ATOM     23  C   UNL     1      -2.100  12.155  21.688  0.00  0.00    +0.000 A 
ATOM     24  C   UNL     1      -3.160  12.740  20.973  0.00  0.00    +0.000 A 
ATOM     25  C   UNL     1      -4.341  13.100  21.623  0.00  0.00    +0.000 A 
ATOM     26  C   UNL     1      -4.471  12.892  22.991  0.00  0.00    +0.000 A 
ATOM     27  C   UNL     1      -3.416  12.334  23.715  0.00  0.00    +0.000 A 
ATOM     28  C   UNL     1      -2.231  11.965  23.070  0.00  0.00    +0.000 A 
ENDBRANCH  21  23
ENDBRANCH   2  18
TORSDOF 5
ENDMDL
MODEL 6
REMARK VINA RESULT:      -7.6      2.417      3.380
REMARK  Name = 
REMARK  5 active torsions:
REMARK  status: ('A' for Active; 'I' for Inactive)
REMARK    1  A    between atoms: C_2  and  C_16
REMARK    2  A    between atoms: N_3  and  C_4
REMARK    3  A    between atoms: C_9  and  C_10
REMARK    4  A    between atoms: C_10  and  O_12
REMARK    5  A    between atoms: N_19  and  C_20
REMARK                            x       y       z     vdW  Elec       q    Type
REMARK                         _______ _______ _______ _____ _____    ______ ____
ROOT
ATOM      1  O   UNL     1       1.570   8.986  22.122  0.00  0.00    +0.000 OA
ATOM      2  C   UNL     1       1.024   9.484  21.143  0.00  0.00    +0.000 C 
ATOM      3  N   UNL     1       1.154   9.026  19.838  0.00  0.00    +0.000 N 
ATOM      4  H   UNL     1       0.773   9.638  19.124  0.00  0.00    +0.000 HD
ENDROOT
BRANCH   3   5
ATOM      5  C   UNL     1       1.948   7.913  19.459  0.00  0.00    +0.000 A 
ATOM      6  C   UNL     1       2.733   7.921  18.294  0.00  0.00    +0.000 A 
ATOM      7  C   UNL     1       3.437   6.796  17.850  0.00  0.00    +0.000 A 
ATOM      8  C   UNL     1       3.329   5.659  18.634  0.00  0.00    +0.000 A 
ATOM      9  O   UNL     1       3.902   4.457  18.354  0.00  0.00    +0.000 OA
ATOM     10  C   UNL     1       3.544   3.599  19.358  0.00  0.00    +0.000 A 
ATOM     11  C   UNL     1       2.757   4.266  20.282  0.00  0.00    +0.000 A 
ATOM     12  C   UNL     1       2.607   5.600  19.819  0.00  0.00    +0.000 A 
ATOM     13  C   UNL     1       1.923   6.757  20.260  0.00  0.00    +0.000 A 
BRANCH  10  14
ATOM     14  C   UNL     1       3.997   2.231  19.302  0.00  0.00    +0.000 C 
ATOM     15  O   UNL     1       3.495   1.336  18.639  0.00  0.00    +0.000 OA
BRANCH  14  16
ATOM     16  O   UNL     1       5.088   2.035  20.090  0.00  0.00    +0.000 OA
ATOM     17  H   UNL     1       5.302   2.855  20.583  0.00  0.00    +0.000 HD
ENDBRANCH  14  16
ENDBRANCH  10  14
ENDBRANCH   3   5
BRANCH   2  18
ATOM     18  C   UNL     1       0.202  10.691  21.327  0.00  0.00    +0.000 A 
ATOM     19  C   UNL     1       0.012  11.648  20.301  0.00  0.00    +0.000 A 
ATOM     20  C   UNL     1      -0.774  12.618  20.851  0.00  0.00    +0.000 A 
ATOM     21  N   UNL     1      -1.012  12.258  22.158  0.00  0.00    +0.000 N 
ATOM     22  N   UNL     1      -0.455  11.037  22.453  0.00  0.00    +0.000 NA
BRANCH  21  23
ATOM     23  C   UNL     1      -1.740  13.019  23.117  0.00  0.00    +0.000 A 
ATOM     24  C   UNL     1      -3.014  12.601  23.541  0.00  0.00    +0.000 A 
ATOM     25  C   UNL     1      -3.716  13.328  24.503  0.00  0.00    +0.000 A 
ATOM     26  C   UNL     1      -3.161  14.483  25.041  0.00  0.00    +0.000 A 
ATOM     27  C   UNL     1      -1.907  14.919  24.611  0.00  0.00    +0.000 A 
ATOM     28  C   UNL     1      -1.194  14.193  23.650  0.00  0.00    +0.000 A 
ENDBRANCH  21  23
ENDBRANCH   2  18
TORSDOF 5
ENDMDL
MODEL 7
REMARK VINA RESULT:      -7.6      2.550      3.643
REMARK  Name = 
REMARK  5 active torsions:
REMARK  status: ('A' for Active; 'I' for Inactive)
REMARK    1  A    between atoms: C_2  and  C_16
REMARK    2  A    between atoms: N_3  and  C_4
REMARK    3  A    between atoms: C_9  and  C_10
REMARK    4  A    between atoms: C_10  and  O_12
REMARK    5  A    between atoms: N_19  and  C_20
REMARK                            x       y       z     vdW  Elec       q    Type
REMARK                         _______ _______ _______ _____ _____    ______ ____
ROOT
ATOM      1  O   UNL     1       1.745   9.483  22.172  0.00  0.00    +0.000 OA
ATOM      2  C   UNL     1       0.986   9.813  21.266  0.00  0.00    +0.000 C 
ATOM      3  N   UNL     1       0.916   9.203  20.021  0.00  0.00    +0.000 N 
ATOM      4  H   UNL     1       0.356   9.691  19.330  0.00  0.00    +0.000 HD
ENDROOT
BRANCH   3   5
ATOM      5  C   UNL     1       1.725   8.107  19.624  0.00  0.00    +0.000 A 
ATOM      6  C   UNL     1       2.490   8.135  18.446  0.00  0.00    +0.000 A 
ATOM      7  C   UNL     1       3.208   7.025  17.986  0.00  0.00    +0.000 A 
ATOM      8  C   UNL     1       3.134   5.883  18.766  0.00  0.00    +0.000 A 
ATOM      9  O   UNL     1       3.725   4.693  18.470  0.00  0.00    +0.000 OA
ATOM     10  C   UNL     1       3.398   3.824  19.476  0.00  0.00    +0.000 A 
ATOM     11  C   UNL     1       2.614   4.472  20.415  0.00  0.00    +0.000 A 
ATOM     12  C   UNL     1       2.432   5.805  19.962  0.00  0.00    +0.000 A 
ATOM     13  C   UNL     1       1.733   6.946  20.420  0.00  0.00    +0.000 A 
BRANCH  10  14
ATOM     14  C   UNL     1       3.876   2.464  19.405  0.00  0.00    +0.000 C 
ATOM     15  O   UNL     1       3.291   1.525  18.889  0.00  0.00    +0.000 OA
BRANCH  14  16
ATOM     16  O   UNL     1       5.097   2.335  19.991  0.00  0.00    +0.000 OA
ATOM     17  H   UNL     1       5.478   3.218  20.179  0.00  0.00    +0.000 HD
ENDBRANCH  14  16
ENDBRANCH  10  14
ENDBRANCH   3   5
BRANCH   2  18
ATOM     18  C   UNL     1       0.106  10.976  21.468  0.00  0.00    +0.000 A 
ATOM     19  C   UNL     1      -0.305  11.816  20.405  0.00  0.00    +0.000 A 
ATOM     20  C   UNL     1      -1.078  12.780  20.982  0.00  0.00    +0.000 A 
ATOM     21  N   UNL     1      -1.096  12.532  22.336  0.00  0.00    +0.000 N 
ATOM     22  N   UNL     1      -0.408  11.384  22.646  0.00  0.00    +0.000 NA
BRANCH  21  23
ATOM     23  C   UNL     1      -1.738  13.332  23.324  0.00  0.00    +0.000 A 
ATOM     24  C   UNL     1      -1.092  14.463  23.857  0.00  0.00    +0.000 A 
ATOM     25  C   UNL     1      -1.732  15.266  24.801  0.00  0.00    +0.000 A 
ATOM     26  C   UNL     1      -3.014  14.943  25.232  0.00  0.00    +0.000 A 
ATOM     27  C   UNL     1      -3.655  13.811  24.727  0.00  0.00    +0.000 A 
ATOM     28  C   UNL     1      -3.022  13.003  23.776  0.00  0.00    +0.000 A 
ENDBRANCH  21  23
ENDBRANCH   2  18
TORSDOF 5
ENDMDL
MODEL 8
REMARK VINA RESULT:      -7.6      1.710      2.035
REMARK  Name = 
REMARK  5 active torsions:
REMARK  status: ('A' for Active; 'I' for Inactive)
REMARK    1  A    between atoms: C_2  and  C_16
REMARK    2  A    between atoms: N_3  and  C_4
REMARK    3  A    between atoms: C_9  and  C_10
REMARK    4  A    between atoms: C_10  and  O_12
REMARK    5  A    between atoms: N_19  and  C_20
REMARK                            x       y       z     vdW  Elec       q    Type
REMARK                         _______ _______ _______ _____ _____    ______ ____
ROOT
ATOM      1  O   UNL     1       2.041   9.973  17.656  0.00  0.00    +0.000 OA
ATOM      2  C   UNL     1       1.328   9.551  18.560  0.00  0.00    +0.000 C 
ATOM      3  N   UNL     1       1.478   8.321  19.187  0.00  0.00    +0.000 N 
ATOM      4  H   UNL     1       0.716   8.051  19.801  0.00  0.00    +0.000 HD
ENDROOT
BRANCH   3   5
ATOM      5  C   UNL     1       2.483   7.376  18.857  0.00  0.00    +0.000 A 
ATOM      6  C   UNL     1       2.806   6.306  19.708  0.00  0.00    +0.000 A 
ATOM      7  C   UNL     1       3.865   5.428  19.448  0.00  0.00    +0.000 A 
ATOM      8  C   UNL     1       4.584   5.664  18.289  0.00  0.00    +0.000 A 
ATOM      9  O   UNL     1       5.670   4.952  17.881  0.00  0.00    +0.000 OA
ATOM     10  C   UNL     1       6.096   5.508  16.706  0.00  0.00    +0.000 A 
ATOM     11  C   UNL     1       5.267   6.564  16.362  0.00  0.00    +0.000 A 
ATOM     12  C   UNL     1       4.288   6.677  17.385  0.00  0.00    +0.000 A 
ATOM     13  C   UNL     1       3.198   7.536  17.656  0.00  0.00    +0.000 A 
BRANCH  10  14
ATOM     14  C   UNL     1       7.261   4.960  16.055  0.00  0.00    +0.000 C 
ATOM     15  O   UNL     1       7.618   5.190  14.910  0.00  0.00    +0.000 OA
BRANCH  14  16
ATOM     16  O   UNL     1       7.950   4.132  16.885  0.00  0.00    +0.000 OA
ATOM     17  H   UNL     1       8.528   4.653  17.481  0.00  0.00    +0.000 HD
ENDBRANCH  14  16
ENDBRANCH  10  14
ENDBRANCH   3   5
BRANCH   2  18
ATOM     18  C   UNL     1       0.186  10.369  19.002  0.00  0.00    +0.000 A 
ATOM     19  C   UNL     1      -0.973  10.551  18.210  0.00  0.00    +0.000 A 
ATOM     20  C   UNL     1      -1.782  11.376  18.935  0.00  0.00    +0.000 A 
ATOM     21  N   UNL     1      -1.111  11.689  20.095  0.00  0.00    +0.000 N 
ATOM     22  N   UNL     1       0.091  11.028  20.175  0.00  0.00    +0.000 NA
BRANCH  21  23
ATOM     23  C   UNL     1      -1.567  12.575  21.113  0.00  0.00    +0.000 A 
ATOM     24  C   UNL     1      -2.680  13.406  20.889  0.00  0.00    +0.000 A 
ATOM     25  C   UNL     1      -3.148  14.250  21.896  0.00  0.00    +0.000 A 
ATOM     26  C   UNL     1      -2.506  14.284  23.129  0.00  0.00    +0.000 A 
ATOM     27  C   UNL     1      -1.387  13.480  23.353  0.00  0.00    +0.000 A 
ATOM     28  C   UNL     1      -0.914  12.626  22.351  0.00  0.00    +0.000 A 
ENDBRANCH  21  23
ENDBRANCH   2  18
TORSDOF 5
ENDMDL
MODEL 9
REMARK VINA RESULT:      -7.5      6.854      8.664
REMARK  Name = 
REMARK  5 active torsions:
REMARK  status: ('A' for Active; 'I' for Inactive)
REMARK    1  A    between atoms: C_2  and  C_16
REMARK    2  A    between atoms: N_3  and  C_4
REMARK    3  A    between atoms: C_9  and  C_10
REMARK    4  A    between atoms: C_10  and  O_12
REMARK    5  A    between atoms: N_19  and  C_20
REMARK                            x       y       z     vdW  Elec       q    Type
REMARK                         _______ _______ _______ _____ _____    ______ ____
ROOT
ATOM      1  O   UNL     1       6.802   8.857  17.103  0.00  0.00    +0.000 OA
ATOM      2  C   UNL     1       7.760   8.554  17.807  0.00  0.00    +0.000 C 
ATOM      3  N   UNL     1       8.020   7.281  18.295  0.00  0.00    +0.000 N 
ATOM      4  H   UNL     1       8.757   7.226  18.991  0.00  0.00    +0.000 HD
ENDROOT
BRANCH   3   5
ATOM      5  C   UNL     1       7.202   6.149  18.047  0.00  0.00    +0.000 A 
ATOM      6  C   UNL     1       7.284   5.420  16.848  0.00  0.00    +0.000 A 
ATOM      7  C   UNL     1       6.412   4.368  16.544  0.00  0.00    +0.000 A 
ATOM      8  C   UNL     1       5.456   4.070  17.500  0.00  0.00    +0.000 A 
ATOM      9  O   UNL     1       4.496   3.114  17.376  0.00  0.00    +0.000 OA
ATOM     10  C   UNL     1       3.748   3.148  18.522  0.00  0.00    +0.000 A 
ATOM     11  C   UNL     1       4.248   4.116  19.377  0.00  0.00    +0.000 A 
ATOM     12  C   UNL     1       5.352   4.723  18.722  0.00  0.00    +0.000 A 
ATOM     13  C   UNL     1       6.259   5.767  19.018  0.00  0.00    +0.000 A 
BRANCH  10  14
ATOM     14  C   UNL     1       2.630   2.245  18.652  0.00  0.00    +0.000 C 
ATOM     15  O   UNL     1       2.084   1.926  19.697  0.00  0.00    +0.000 OA
BRANCH  14  16
ATOM     16  O   UNL     1       2.228   1.773  17.442  0.00  0.00    +0.000 OA
ATOM     17  H   UNL     1       2.972   1.798  16.804  0.00  0.00    +0.000 HD
ENDBRANCH  14  16
ENDBRANCH  10  14
ENDBRANCH   3   5
BRANCH   2  18
ATOM     18  C   UNL     1       8.695   9.612  18.224  0.00  0.00    +0.000 A 
ATOM     19  C   UNL     1       9.306   9.630  19.501  0.00  0.00    +0.000 A 
ATOM     20  C   UNL     1      10.071  10.759  19.522  0.00  0.00    +0.000 A 
ATOM     21  N   UNL     1       9.893  11.394  18.314  0.00  0.00    +0.000 N 
ATOM     22  N   UNL     1       9.083  10.666  17.477  0.00  0.00    +0.000 NA
BRANCH  21  23
ATOM     23  C   UNL     1      10.462  12.644  17.934  0.00  0.00    +0.000 A 
ATOM     24  C   UNL     1       9.751  13.841  18.132  0.00  0.00    +0.000 A 
ATOM     25  C   UNL     1      10.319  15.068  17.790  0.00  0.00    +0.000 A 
ATOM     26  C   UNL     1      11.594  15.113  17.237  0.00  0.00    +0.000 A 
ATOM     27  C   UNL     1      12.299  13.929  17.015  0.00  0.00    +0.000 A 
ATOM     28  C   UNL     1      11.739  12.694  17.360  0.00  0.00    +0.000 A 
ENDBRANCH  21  23
ENDBRANCH   2  18
TORSDOF 5
ENDMDL
