MODEL 1
REMARK VINA RESULT:      -8.2      0.000      0.000
REMARK  Name = 
REMARK  5 active torsions:
REMARK  status: ('A' for Active; 'I' for Inactive)
REMARK    1  A    between atoms: C_1  and  C_2
REMARK    2  A    between atoms: C_2  and  C_3
REMARK    3  A    between atoms: C_8  and  N_9
REMARK    4  A    between atoms: N_9  and  C_10
REMARK    5  A    between atoms: N_18  and  C_19
REMARK                            x       y       z     vdW  Elec       q    Type
REMARK                         _______ _______ _______ _____ _____    ______ ____
ROOT
ATOM      1  C   UNL     1       2.920   6.614  19.280  0.00  0.00    +0.000 A 
ATOM      2  N   UNL     1       3.458   6.729  18.048  0.00  0.00    +0.000 NA
ATOM      3  C   UNL     1       3.179   7.828  17.322  0.00  0.00    +0.000 A 
ATOM      4  N   UNL     1       2.386   8.857  17.654  0.00  0.00    +0.000 NA
ATOM      5  C   UNL     1       1.874   8.716  18.897  0.00  0.00    +0.000 A 
ATOM      6  C   UNL     1       2.129   7.664  19.754  0.00  0.00    +0.000 A 
ATOM      7  C   UNL     1       1.417   7.983  20.927  0.00  0.00    +0.000 A 
ATOM      8  N   UNL     1       0.800   9.164  20.852  0.00  0.00    +0.000 NA
ATOM      9  N   UNL     1       1.042   9.595  19.583  0.00  0.00    +0.000 N 
ENDROOT
BRANCH   9  10
ATOM     10  C   UNL     1       0.457  10.784  19.081  0.00  0.00    +0.000 A 
ATOM     11  C   UNL     1       1.198  11.976  19.036  0.00  0.00    +0.000 A 
ATOM     12  C   UNL     1       0.605  13.154  18.576  0.00  0.00    +0.000 A 
ATOM     13  C   UNL     1      -0.730  13.155  18.177  0.00  0.00    +0.000 A 
ATOM     14  C   UNL     1      -1.465  11.971  18.213  0.00  0.00    +0.000 A 
ATOM     15  C   UNL     1      -0.869  10.787  18.646  0.00  0.00    +0.000 A 
ATOM     16  F   UNL     1      -1.640   9.693  18.716  0.00  0.00    +0.000 F 
ENDBRANCH   9  10
BRANCH   1  17
ATOM     17  N   UNL     1       3.080   5.449  20.030  0.00  0.00    +0.000 N 
ATOM     18  H   UNL     1       3.999   5.513  20.477  0.00  0.00    +0.000 HD
BRANCH  17  26
ATOM     19  C   UNL     1       0.640   3.664  20.286  0.00  0.00    +0.000 C 
ATOM     20  C   UNL     1       2.002   3.137  19.821  0.00  0.00    +0.000 C 
ATOM     21  C   UNL     1       1.734   2.063  18.738  0.00  0.00    +0.000 C 
ATOM     22  C   UNL     1       2.773   2.518  20.992  0.00  0.00    +0.000 C 
ATOM     23  N   UNL     1       4.129   2.487  20.529  0.00  0.00    +0.000 N 
ATOM     24  C   UNL     1       4.360   3.457  19.570  0.00  0.00    +0.000 C 
ATOM     25  O   UNL     1       5.459   3.755  19.129  0.00  0.00    +0.000 OA
ATOM     26  C   UNL     1       3.027   4.180  19.274  0.00  0.00    +0.000 C 
ATOM     27  H   UNL     1       4.906   2.031  20.993  0.00  0.00    +0.000 HD
ENDBRANCH  17  26
ENDBRANCH   1  17
TORSDOF 3
ENDMDL
MODEL 2
REMARK VINA RESULT:      -8.1      1.002      1.371
REMARK  Name = 
REMARK  5 active torsions:
REMARK  status: ('A' for Active; 'I' for Inactive)
REMARK    1  A    between atoms: C_1  and  C_2
REMARK    2  A    between atoms: C_2  and  C_3
REMARK    3  A    between atoms: C_8  and  N_9
REMARK    4  A    between atoms: N_9  and  C_10
REMARK    5  A    between atoms: N_18  and  C_19
REMARK                            x       y       z     vdW  Elec       q    Type
REMARK                         _______ _______ _______ _____ _____    ______ ____
ROOT
ATOM      1  C   UNL     1       3.089   6.564  19.181  0.00  0.00    +0.000 A 
ATOM      2  N   UNL     1       3.610   6.794  17.957  0.00  0.00    +0.000 NA
ATOM      3  C   UNL     1       3.221   7.895  17.287  0.00  0.00    +0.000 A 
ATOM      4  N   UNL     1       2.330   8.821  17.669  0.00  0.00    +0.000 NA
ATOM      5  C   UNL     1       1.838   8.568  18.902  0.00  0.00    +0.000 A 
ATOM      6  C   UNL     1       2.198   7.504  19.705  0.00  0.00    +0.000 A 
ATOM      7  C   UNL     1       1.461   7.691  20.890  0.00  0.00    +0.000 A 
ATOM      8  N   UNL     1       0.728   8.807  20.873  0.00  0.00    +0.000 NA
ATOM      9  N   UNL     1       0.924   9.323  19.628  0.00  0.00    +0.000 N 
ENDROOT
BRANCH   9  10
ATOM     10  C   UNL     1       0.221  10.471  19.185  0.00  0.00    +0.000 A 
ATOM     11  C   UNL     1      -0.947  10.337  18.418  0.00  0.00    +0.000 A 
ATOM     12  C   UNL     1      -1.616  11.472  17.952  0.00  0.00    +0.000 A 
ATOM     13  C   UNL     1      -1.114  12.741  18.231  0.00  0.00    +0.000 A 
ATOM     14  C   UNL     1       0.041  12.877  18.999  0.00  0.00    +0.000 A 
ATOM     15  C   UNL     1       0.695  11.748  19.489  0.00  0.00    +0.000 A 
ATOM     16  F   UNL     1       1.834  11.937  20.171  0.00  0.00    +0.000 F 
ENDBRANCH   9  10
BRANCH   1  17
ATOM     17  N   UNL     1       3.366   5.385  19.871  0.00  0.00    +0.000 N 
ATOM     18  H   UNL     1       4.303   5.493  20.272  0.00  0.00    +0.000 HD
BRANCH  17  26
ATOM     19  C   UNL     1       1.177   3.335  20.326  0.00  0.00    +0.000 C 
ATOM     20  C   UNL     1       2.520   2.977  19.680  0.00  0.00    +0.000 C 
ATOM     21  C   UNL     1       2.235   1.919  18.585  0.00  0.00    +0.000 C 
ATOM     22  C   UNL     1       3.488   2.405  20.721  0.00  0.00    +0.000 C 
ATOM     23  N   UNL     1       4.773   2.540  20.101  0.00  0.00    +0.000 N 
ATOM     24  C   UNL     1       4.782   3.563  19.169  0.00  0.00    +0.000 C 
ATOM     25  O   UNL     1       5.782   3.994  18.617  0.00  0.00    +0.000 OA
ATOM     26  C   UNL     1       3.355   4.145  19.066  0.00  0.00    +0.000 C 
ATOM     27  H   UNL     1       5.644   2.155  20.447  0.00  0.00    +0.000 HD
ENDBRANCH  17  26
ENDBRANCH   1  17
TORSDOF 3
ENDMDL
MODEL 3
REMARK VINA RESULT:      -7.9      1.022      1.024
REMARK  Name = 
REMARK  5 active torsions:
REMARK  status: ('A' for Active; 'I' for Inactive)
REMARK    1  A    between atoms: C_1  and  C_2
REMARK    2  A    between atoms: C_2  and  C_3
REMARK    3  A    between atoms: C_8  and  N_9
REMARK    4  A    between atoms: N_9  and  C_10
REMARK    5  A    between atoms: N_18  and  C_19
REMARK                            x       y       z     vdW  Elec       q    Type
REMARK                         _______ _______ _______ _____ _____    ______ ____
ROOT
ATOM      1  C   UNL     1       2.688   6.864  19.330  0.00  0.00    +0.000 A 
ATOM      2  N   UNL     1       3.087   7.235  18.095  0.00  0.00    +0.000 NA
ATOM      3  C   UNL     1       2.662   8.417  17.607  0.00  0.00    +0.000 A 
ATOM      4  N   UNL     1       1.844   9.303  18.190  0.00  0.00    +0.000 NA
ATOM      5  C   UNL     1       1.475   8.908  19.429  0.00  0.00    +0.000 A 
ATOM      6  C   UNL     1       1.885   7.748  20.055  0.00  0.00    +0.000 A 
ATOM      7  C   UNL     1       1.280   7.799  21.326  0.00  0.00    +0.000 A 
ATOM      8  N   UNL     1       0.583   8.920  21.522  0.00  0.00    +0.000 NA
ATOM      9  N   UNL     1       0.663   9.583  20.334  0.00  0.00    +0.000 N 
ENDROOT
BRANCH   9  10
ATOM     10  C   UNL     1      -0.047  10.789  20.111  0.00  0.00    +0.000 A 
ATOM     11  C   UNL     1       0.370  11.983  20.720  0.00  0.00    +0.000 A 
ATOM     12  C   UNL     1      -0.355  13.161  20.528  0.00  0.00    +0.000 A 
ATOM     13  C   UNL     1      -1.506  13.152  19.744  0.00  0.00    +0.000 A 
ATOM     14  C   UNL     1      -1.918  11.969  19.130  0.00  0.00    +0.000 A 
ATOM     15  C   UNL     1      -1.182  10.798  19.299  0.00  0.00    +0.000 A 
ATOM     16  F   UNL     1      -1.657   9.679  18.734  0.00  0.00    +0.000 F 
ENDBRANCH   9  10
BRANCH   1  17
ATOM     17  N   UNL     1       3.001   5.605  19.840  0.00  0.00    +0.000 N 
ATOM     18  H   UNL     1       3.886   5.705  20.346  0.00  0.00    +0.000 HD
BRANCH  17  26
ATOM     19  C   UNL     1       1.123   3.223  19.904  0.00  0.00    +0.000 C 
ATOM     20  C   UNL     1       2.503   3.167  19.239  0.00  0.00    +0.000 C 
ATOM     21  C   UNL     1       2.370   2.275  17.980  0.00  0.00    +0.000 C 
ATOM     22  C   UNL     1       3.543   2.572  20.194  0.00  0.00    +0.000 C 
ATOM     23  N   UNL     1       4.795   2.985  19.633  0.00  0.00    +0.000 N 
ATOM     24  C   UNL     1       4.659   4.139  18.882  0.00  0.00    +0.000 C 
ATOM     25  O   UNL     1       5.588   4.791  18.430  0.00  0.00    +0.000 OA
ATOM     26  C   UNL     1       3.164   4.525  18.843  0.00  0.00    +0.000 C 
ATOM     27  H   UNL     1       5.712   2.674  19.932  0.00  0.00    +0.000 HD
ENDBRANCH  17  26
ENDBRANCH   1  17
TORSDOF 3
ENDMDL
MODEL 4
REMARK VINA RESULT:      -7.8      2.280      3.651
REMARK  Name = 
REMARK  5 active torsions:
REMARK  status: ('A' for Active; 'I' for Inactive)
REMARK    1  A    between atoms: C_1  and  C_2
REMARK    2  A    between atoms: C_2  and  C_3
REMARK    3  A    between atoms: C_8  and  N_9
REMARK    4  A    between atoms: N_9  and  C_10
REMARK    5  A    between atoms: N_18  and  C_19
REMARK                            x       y       z     vdW  Elec       q    Type
REMARK                         _______ _______ _______ _____ _____    ______ ____
ROOT
ATOM      1  C   UNL     1       3.248   5.880  18.892  0.00  0.00    +0.000 A 
ATOM      2  N   UNL     1       2.801   5.290  20.021  0.00  0.00    +0.000 NA
ATOM      3  C   UNL     1       1.902   5.947  20.780  0.00  0.00    +0.000 A 
ATOM      4  N   UNL     1       1.386   7.167  20.577  0.00  0.00    +0.000 NA
ATOM      5  C   UNL     1       1.844   7.723  19.434  0.00  0.00    +0.000 A 
ATOM      6  C   UNL     1       2.723   7.129  18.550  0.00  0.00    +0.000 A 
ATOM      7  C   UNL     1       2.862   8.065  17.507  0.00  0.00    +0.000 A 
ATOM      8  N   UNL     1       2.099   9.147  17.677  0.00  0.00    +0.000 NA
ATOM      9  N   UNL     1       1.507   8.957  18.890  0.00  0.00    +0.000 N 
ENDROOT
BRANCH   9  10
ATOM     10  C   UNL     1       0.688   9.954  19.476  0.00  0.00    +0.000 A 
ATOM     11  C   UNL     1       1.056  10.551  20.692  0.00  0.00    +0.000 A 
ATOM     12  C   UNL     1       0.228  11.506  21.286  0.00  0.00    +0.000 A 
ATOM     13  C   UNL     1      -0.978  11.857  20.682  0.00  0.00    +0.000 A 
ATOM     14  C   UNL     1      -1.342  11.272  19.470  0.00  0.00    +0.000 A 
ATOM     15  C   UNL     1      -0.504  10.338  18.861  0.00  0.00    +0.000 A 
ATOM     16  F   UNL     1      -0.933   9.765  17.728  0.00  0.00    +0.000 F 
ENDBRANCH   9  10
BRANCH   1  17
ATOM     17  N   UNL     1       4.261   5.301  18.130  0.00  0.00    +0.000 N 
ATOM     18  H   UNL     1       4.403   4.356  18.501  0.00  0.00    +0.000 HD
BRANCH  17  26
ATOM     19  C   UNL     1       5.412   6.371  15.535  0.00  0.00    +0.000 C 
ATOM     20  C   UNL     1       6.281   6.076  16.763  0.00  0.00    +0.000 C 
ATOM     21  C   UNL     1       7.385   7.161  16.816  0.00  0.00    +0.000 C 
ATOM     22  C   UNL     1       6.919   4.687  16.655  0.00  0.00    +0.000 C 
ATOM     23  N   UNL     1       7.306   4.385  18.002  0.00  0.00    +0.000 N 
ATOM     24  C   UNL     1       6.529   5.070  18.919  0.00  0.00    +0.000 C 
ATOM     25  O   UNL     1       6.538   4.876  20.125  0.00  0.00    +0.000 OA
ATOM     26  C   UNL     1       5.565   5.998  18.148  0.00  0.00    +0.000 C 
ATOM     27  H   UNL     1       7.869   3.595  18.296  0.00  0.00    +0.000 HD
ENDBRANCH  17  26
ENDBRANCH   1  17
TORSDOF 3
ENDMDL
MODEL 5
REMARK VINA RESULT:      -7.8      1.161      2.037
REMARK  Name = 
REMARK  5 active torsions:
REMARK  status: ('A' for Active; 'I' for Inactive)
REMARK    1  A    between atoms: C_1  and  C_2
REMARK    2  A    between atoms: C_2  and  C_3
REMARK    3  A    between atoms: C_8  and  N_9
REMARK    4  A    between atoms: N_9  and  C_10
REMARK    5  A    between atoms: N_18  and  C_19
REMARK                            x       y       z     vdW  Elec       q    Type
REMARK                         _______ _______ _______ _____ _____    ______ ____
ROOT
ATOM      1  C   UNL     1       2.244   6.781  20.048  0.00  0.00    +0.000 A 
ATOM      2  N   UNL     1       1.545   6.831  21.202  0.00  0.00    +0.000 NA
ATOM      3  C   UNL     1       0.799   7.922  21.458  0.00  0.00    +0.000 A 
ATOM      4  N   UNL     1       0.667   9.025  20.709  0.00  0.00    +0.000 NA
ATOM      5  C   UNL     1       1.368   8.937  19.557  0.00  0.00    +0.000 A 
ATOM      6  C   UNL     1       2.125   7.853  19.160  0.00  0.00    +0.000 A 
ATOM      7  C   UNL     1       2.618   8.212  17.890  0.00  0.00    +0.000 A 
ATOM      8  N   UNL     1       2.175   9.402  17.481  0.00  0.00    +0.000 NA
ATOM      9  N   UNL     1       1.442   9.872  18.529  0.00  0.00    +0.000 N 
ENDROOT
BRANCH   9  10
ATOM     10  C   UNL     1       0.884  11.174  18.516  0.00  0.00    +0.000 A 
ATOM     11  C   UNL     1       1.710  12.302  18.644  0.00  0.00    +0.000 A 
ATOM     12  C   UNL     1       1.151  13.582  18.670  0.00  0.00    +0.000 A 
ATOM     13  C   UNL     1      -0.230  13.744  18.586  0.00  0.00    +0.000 A 
ATOM     14  C   UNL     1      -1.051  12.626  18.450  0.00  0.00    +0.000 A 
ATOM     15  C   UNL     1      -0.496  11.348  18.398  0.00  0.00    +0.000 A 
ATOM     16  F   UNL     1      -1.337  10.307  18.326  0.00  0.00    +0.000 F 
ENDBRANCH   9  10
BRANCH   1  17
ATOM     17  N   UNL     1       3.122   5.731  19.782  0.00  0.00    +0.000 N 
ATOM     18  H   UNL     1       3.937   6.142  19.316  0.00  0.00    +0.000 HD
BRANCH  17  26
ATOM     19  C   UNL     1       1.846   3.293  21.059  0.00  0.00    +0.000 C 
ATOM     20  C   UNL     1       2.414   3.276  19.635  0.00  0.00    +0.000 C 
ATOM     21  C   UNL     1       1.489   2.373  18.782  0.00  0.00    +0.000 C 
ATOM     22  C   UNL     1       3.841   2.719  19.627  0.00  0.00    +0.000 C 
ATOM     23  N   UNL     1       4.374   3.167  18.374  0.00  0.00    +0.000 N 
ATOM     24  C   UNL     1       3.735   4.312  17.931  0.00  0.00    +0.000 C 
ATOM     25  O   UNL     1       4.096   4.989  16.982  0.00  0.00    +0.000 OA
ATOM     26  C   UNL     1       2.597   4.651  18.919  0.00  0.00    +0.000 C 
ATOM     27  H   UNL     1       5.259   2.886  17.970  0.00  0.00    +0.000 HD
ENDBRANCH  17  26
ENDBRANCH   1  17
TORSDOF 3
ENDMDL
MODEL 6
REMARK VINA RESULT:      -7.7      2.472      4.023
REMARK  Name = 
REMARK  5 active torsions:
REMARK  status: ('A' for Active; 'I' for Inactive)
REMARK    1  A    between atoms: C_1  and  C_2
REMARK    2  A    between atoms: C_2  and  C_3
REMARK    3  A    between atoms: C_8  and  N_9
REMARK    4  A    between atoms: N_9  and  C_10
REMARK    5  A    between atoms: N_18  and  C_19
REMARK                            x       y       z     vdW  Elec       q    Type
REMARK                         _______ _______ _______ _____ _____    ______ ____
ROOT
ATOM      1  C   UNL     1       3.203   5.489  18.830  0.00  0.00    +0.000 A 
ATOM      2  N   UNL     1       2.838   4.602  19.780  0.00  0.00    +0.000 NA
ATOM      3  C   UNL     1       2.010   5.009  20.760  0.00  0.00    +0.000 A 
ATOM      4  N   UNL     1       1.494   6.232  20.949  0.00  0.00    +0.000 NA
ATOM      5  C   UNL     1       1.868   7.091  19.974  0.00  0.00    +0.000 A 
ATOM      6  C   UNL     1       2.668   6.778  18.893  0.00  0.00    +0.000 A 
ATOM      7  C   UNL     1       2.736   7.970  18.147  0.00  0.00    +0.000 A 
ATOM      8  N   UNL     1       2.002   8.953  18.673  0.00  0.00    +0.000 NA
ATOM      9  N   UNL     1       1.504   8.425  19.826  0.00  0.00    +0.000 N 
ENDROOT
BRANCH   9  10
ATOM     10  C   UNL     1       0.746   9.209  20.731  0.00  0.00    +0.000 A 
ATOM     11  C   UNL     1       0.871   9.015  22.116  0.00  0.00    +0.000 A 
ATOM     12  C   UNL     1       0.094   9.764  23.003  0.00  0.00    +0.000 A 
ATOM     13  C   UNL     1      -0.822  10.694  22.516  0.00  0.00    +0.000 A 
ATOM     14  C   UNL     1      -0.941  10.894  21.142  0.00  0.00    +0.000 A 
ATOM     15  C   UNL     1      -0.148  10.168  20.254  0.00  0.00    +0.000 A 
ATOM     16  F   UNL     1      -0.349  10.360  18.943  0.00  0.00    +0.000 F 
ENDBRANCH   9  10
BRANCH   1  17
ATOM     17  N   UNL     1       4.146   5.157  17.858  0.00  0.00    +0.000 N 
ATOM     18  H   UNL     1       4.315   4.150  17.946  0.00  0.00    +0.000 HD
BRANCH  17  26
ATOM     19  C   UNL     1       5.409   6.315  15.356  0.00  0.00    +0.000 C 
ATOM     20  C   UNL     1       6.225   5.973  16.608  0.00  0.00    +0.000 C 
ATOM     21  C   UNL     1       7.326   7.052  16.748  0.00  0.00    +0.000 C 
ATOM     22  C   UNL     1       6.864   4.587  16.478  0.00  0.00    +0.000 C 
ATOM     23  N   UNL     1       7.191   4.236  17.828  0.00  0.00    +0.000 N 
ATOM     24  C   UNL     1       6.377   4.890  18.735  0.00  0.00    +0.000 C 
ATOM     25  O   UNL     1       6.334   4.653  19.932  0.00  0.00    +0.000 OA
ATOM     26  C   UNL     1       5.449   5.849  17.958  0.00  0.00    +0.000 C 
ATOM     27  H   UNL     1       7.740   3.434  18.118  0.00  0.00    +0.000 HD
ENDBRANCH  17  26
ENDBRANCH   1  17
TORSDOF 3
ENDMDL
MODEL 7
REMARK VINA RESULT:      -7.6      1.862      2.154
REMARK  Name = 
REMARK  5 active torsions:
REMARK  status: ('A' for Active; 'I' for Inactive)
REMARK    1  A    between atoms: C_1  and  C_2
REMARK    2  A    between atoms: C_2  and  C_3
REMARK    3  A    between atoms: C_8  and  N_9
REMARK    4  A    between atoms: N_9  and  C_10
REMARK    5  A    between atoms: N_18  and  C_19
REMARK                            x       y       z     vdW  Elec       q    Type
REMARK                         _______ _______ _______ _____ _____    ______ ____
ROOT
ATOM      1  C   UNL     1       2.834   7.218  19.126  0.00  0.00    +0.000 A 
ATOM      2  N   UNL     1       3.155   7.767  17.935  0.00  0.00    +0.000 NA
ATOM      3  C   UNL     1       2.508   8.881  17.542  0.00  0.00    +0.000 A 
ATOM      4  N   UNL     1       1.529   9.535  18.182  0.00  0.00    +0.000 NA
ATOM      5  C   UNL     1       1.242   8.968  19.375  0.00  0.00    +0.000 A 
ATOM      6  C   UNL     1       1.870   7.860  19.908  0.00  0.00    +0.000 A 
ATOM      7  C   UNL     1       1.263   7.681  21.166  0.00  0.00    +0.000 A 
ATOM      8  N   UNL     1       0.359   8.622  21.443  0.00  0.00    +0.000 NA
ATOM      9  N   UNL     1       0.311   9.389  20.318  0.00  0.00    +0.000 N 
ENDROOT
BRANCH   9  10
ATOM     10  C   UNL     1      -0.623  10.447  20.184  0.00  0.00    +0.000 A 
ATOM     11  C   UNL     1      -1.441  10.532  19.046  0.00  0.00    +0.000 A 
ATOM     12  C   UNL     1      -2.333  11.598  18.901  0.00  0.00    +0.000 A 
ATOM     13  C   UNL     1      -2.401  12.590  19.876  0.00  0.00    +0.000 A 
ATOM     14  C   UNL     1      -1.595  12.503  21.011  0.00  0.00    +0.000 A 
ATOM     15  C   UNL     1      -0.723  11.427  21.172  0.00  0.00    +0.000 A 
ATOM     16  F   UNL     1       0.069  11.427  22.253  0.00  0.00    +0.000 F 
ENDBRANCH   9  10
BRANCH   1  17
ATOM     17  N   UNL     1       3.387   6.005  19.532  0.00  0.00    +0.000 N 
ATOM     18  H   UNL     1       3.995   6.213  20.330  0.00  0.00    +0.000 HD
BRANCH  17  26
ATOM     19  C   UNL     1       2.016   4.076  17.634  0.00  0.00    +0.000 C 
ATOM     20  C   UNL     1       3.516   4.006  17.939  0.00  0.00    +0.000 C 
ATOM     21  C   UNL     1       4.232   3.598  16.628  0.00  0.00    +0.000 C 
ATOM     22  C   UNL     1       3.800   2.972  19.034  0.00  0.00    +0.000 C 
ATOM     23  N   UNL     1       5.105   3.327  19.506  0.00  0.00    +0.000 N 
ATOM     24  C   UNL     1       5.378   4.666  19.288  0.00  0.00    +0.000 C 
ATOM     25  O   UNL     1       6.345   5.263  19.734  0.00  0.00    +0.000 OA
ATOM     26  C   UNL     1       4.192   5.288  18.520  0.00  0.00    +0.000 C 
ATOM     27  H   UNL     1       5.671   2.788  20.152  0.00  0.00    +0.000 HD
ENDBRANCH  17  26
ENDBRANCH   1  17
TORSDOF 3
ENDMDL
MODEL 8
REMARK VINA RESULT:      -7.6      2.603      3.999
REMARK  Name = 
REMARK  5 active torsions:
REMARK  status: ('A' for Active; 'I' for Inactive)
REMARK    1  A    between atoms: C_1  and  C_2
REMARK    2  A    between atoms: C_2  and  C_3
REMARK    3  A    between atoms: C_8  and  N_9
REMARK    4  A    between atoms: N_9  and  C_10
REMARK    5  A    between atoms: N_18  and  C_19
REMARK                            x       y       z     vdW  Elec       q    Type
REMARK                         _______ _______ _______ _____ _____    ______ ____
ROOT
ATOM      1  C   UNL     1       3.358   5.549  18.892  0.00  0.00    +0.000 A 
ATOM      2  N   UNL     1       2.884   4.805  19.914  0.00  0.00    +0.000 NA
ATOM      3  C   UNL     1       1.958   5.344  20.729  0.00  0.00    +0.000 A 
ATOM      4  N   UNL     1       1.437   6.578  20.683  0.00  0.00    +0.000 NA
ATOM      5  C   UNL     1       1.922   7.290  19.642  0.00  0.00    +0.000 A 
ATOM      6  C   UNL     1       2.832   6.830  18.711  0.00  0.00    +0.000 A 
ATOM      7  C   UNL     1       2.992   7.903  17.813  0.00  0.00    +0.000 A 
ATOM      8  N   UNL     1       2.214   8.946  18.109  0.00  0.00    +0.000 NA
ATOM      9  N   UNL     1       1.589   8.587  19.265  0.00  0.00    +0.000 N 
ENDROOT
BRANCH   9  10
ATOM     10  C   UNL     1       0.744   9.488  19.960  0.00  0.00    +0.000 A 
ATOM     11  C   UNL     1      -0.285  10.162  19.283  0.00  0.00    +0.000 A 
ATOM     12  C   UNL     1      -1.091  11.078  19.963  0.00  0.00    +0.000 A 
ATOM     13  C   UNL     1      -0.865  11.339  21.313  0.00  0.00    +0.000 A 
ATOM     14  C   UNL     1       0.150  10.664  21.989  0.00  0.00    +0.000 A 
ATOM     15  C   UNL     1       0.939   9.730  21.320  0.00  0.00    +0.000 A 
ATOM     16  F   UNL     1       1.938   9.156  22.005  0.00  0.00    +0.000 F 
ENDBRANCH   9  10
BRANCH   1  17
ATOM     17  N   UNL     1       4.399   5.087  18.087  0.00  0.00    +0.000 N 
ATOM     18  H   UNL     1       4.622   4.141  18.411  0.00  0.00    +0.000 HD
BRANCH  17  26
ATOM     19  C   UNL     1       5.523   6.184  15.492  0.00  0.00    +0.000 C 
ATOM     20  C   UNL     1       6.384   5.986  16.745  0.00  0.00    +0.000 C 
ATOM     21  C   UNL     1       7.398   7.156  16.795  0.00  0.00    +0.000 C 
ATOM     22  C   UNL     1       7.130   4.649  16.685  0.00  0.00    +0.000 C 
ATOM     23  N   UNL     1       7.507   4.409  18.046  0.00  0.00    +0.000 N 
ATOM     24  C   UNL     1       6.658   5.052  18.930  0.00  0.00    +0.000 C 
ATOM     25  O   UNL     1       6.655   4.887  20.140  0.00  0.00    +0.000 OA
ATOM     26  C   UNL     1       5.643   5.884  18.116  0.00  0.00    +0.000 C 
ATOM     27  H   UNL     1       8.123   3.673  18.372  0.00  0.00    +0.000 HD
ENDBRANCH  17  26
ENDBRANCH   1  17
TORSDOF 3
ENDMDL
MODEL 9
REMARK VINA RESULT:      -7.5      2.206      3.479
REMARK  Name = 
REMARK  5 active torsions:
REMARK  status: ('A' for Active; 'I' for Inactive)
REMARK    1  A    between atoms: C_1  and  C_2
REMARK    2  A    between atoms: C_2  and  C_3
REMARK    3  A    between atoms: C_8  and  N_9
REMARK    4  A    between atoms: N_9  and  C_10
REMARK    5  A    between atoms: N_18  and  C_19
REMARK                            x       y       z     vdW  Elec       q    Type
REMARK                         _______ _______ _______ _____ _____    ______ ____
ROOT
ATOM      1  C   UNL     1       3.084   6.621  18.768  0.00  0.00    +0.000 A 
ATOM      2  N   UNL     1       2.719   5.972  19.894  0.00  0.00    +0.000 NA
ATOM      3  C   UNL     1       1.840   6.565  20.724  0.00  0.00    +0.000 A 
ATOM      4  N   UNL     1       1.271   7.772  20.598  0.00  0.00    +0.000 NA
ATOM      5  C   UNL     1       1.648   8.388  19.455  0.00  0.00    +0.000 A 
ATOM      6  C   UNL     1       2.498   7.862  18.504  0.00  0.00    +0.000 A 
ATOM      7  C   UNL     1       2.549   8.842  17.494  0.00  0.00    +0.000 A 
ATOM      8  N   UNL     1       1.758   9.887  17.747  0.00  0.00    +0.000 NA
ATOM      9  N   UNL     1       1.238   9.629  18.980  0.00  0.00    +0.000 N 
ENDROOT
BRANCH   9  10
ATOM     10  C   UNL     1       0.417  10.572  19.648  0.00  0.00    +0.000 A 
ATOM     11  C   UNL     1       0.923  11.317  20.725  0.00  0.00    +0.000 A 
ATOM     12  C   UNL     1       0.100  12.217  21.405  0.00  0.00    +0.000 A 
ATOM     13  C   UNL     1      -1.233  12.366  21.028  0.00  0.00    +0.000 A 
ATOM     14  C   UNL     1      -1.735  11.634  19.954  0.00  0.00    +0.000 A 
ATOM     15  C   UNL     1      -0.909  10.754  19.256  0.00  0.00    +0.000 A 
ATOM     16  F   UNL     1      -1.461  10.033  18.270  0.00  0.00    +0.000 F 
ENDBRANCH   9  10
BRANCH   1  17
ATOM     17  N   UNL     1       4.075   6.110  17.931  0.00  0.00    +0.000 N 
ATOM     18  H   UNL     1       3.653   5.327  17.421  0.00  0.00    +0.000 HD
BRANCH  17  26
ATOM     19  C   UNL     1       6.726   7.487  17.406  0.00  0.00    +0.000 C 
ATOM     20  C   UNL     1       6.634   6.047  17.923  0.00  0.00    +0.000 C 
ATOM     21  C   UNL     1       7.803   5.840  18.917  0.00  0.00    +0.000 C 
ATOM     22  C   UNL     1       6.746   5.046  16.768  0.00  0.00    +0.000 C 
ATOM     23  N   UNL     1       6.212   3.834  17.315  0.00  0.00    +0.000 N 
ATOM     24  C   UNL     1       5.325   4.090  18.346  0.00  0.00    +0.000 C 
ATOM     25  O   UNL     1       4.611   3.252  18.876  0.00  0.00    +0.000 OA
ATOM     26  C   UNL     1       5.296   5.613  18.601  0.00  0.00    +0.000 C 
ATOM     27  H   UNL     1       6.236   2.922  16.875  0.00  0.00    +0.000 HD
ENDBRANCH  17  26
ENDBRANCH   1  17
TORSDOF 3
ENDMDL
