MODEL 1
REMARK VINA RESULT:      -7.6      0.000      0.000
REMARK  Name = 
REMARK  3 active torsions:
REMARK  status: ('A' for Active; 'I' for Inactive)
REMARK    1  A    between atoms: C_4  and  C_5
REMARK    2  A    between atoms: C_11  and  C_12
REMARK    3  A    between atoms: C_22  and  C_23
REMARK                            x       y       z     vdW  Elec       q    Type
REMARK                         _______ _______ _______ _____ _____    ______ ____
ROOT
ATOM      1  O   UNL     1      -3.827  10.479  17.596  0.00  0.00    +0.000 OA
ATOM      2  C   UNL     1      -2.822  10.938  18.105  0.00  0.00    +0.000 C 
ATOM      3  N   UNL     1      -1.739  10.148  18.399  0.00  0.00    +0.000 N 
ATOM      4  C   UNL     1      -0.509  10.645  18.816  0.00  0.00    +0.000 C 
ATOM      5  C   UNL     1      -0.447  11.944  19.178  0.00  0.00    +0.000 C 
ATOM      6  C   UNL     1      -1.729  12.724  19.368  0.00  0.00    +0.000 C 
ATOM      7  N   UNL     1      -2.688  12.252  18.378  0.00  0.00    +0.000 N 
ATOM      8  H   UNL     1      -1.818   9.176  18.153  0.00  0.00    +0.000 HD
ATOM      9  H   UNL     1      -3.531  12.773  18.231  0.00  0.00    +0.000 HD
ENDROOT
BRANCH   5  10
ATOM     10  C   UNL     1       0.789  12.687  19.436  0.00  0.00    +0.000 A 
ATOM     11  C   UNL     1       1.316  12.688  20.719  0.00  0.00    +0.000 A 
ATOM     12  C   UNL     1       2.548  13.288  20.928  0.00  0.00    +0.000 A 
ATOM     13  C   UNL     1       3.080  14.091  19.923  0.00  0.00    +0.000 A 
ATOM     14  C   UNL     1       4.098  15.019  20.193  0.00  0.00    +0.000 A 
ATOM     15  C   UNL     1       4.553  15.867  19.188  0.00  0.00    +0.000 A 
ATOM     16  C   UNL     1       4.075  15.710  17.893  0.00  0.00    +0.000 A 
ATOM     17  C   UNL     1       3.077  14.765  17.625  0.00  0.00    +0.000 A 
ATOM     18  C   UNL     1       2.506  14.011  18.636  0.00  0.00    +0.000 A 
ATOM     19  N   UNL     1       1.411  13.267  18.384  0.00  0.00    +0.000 NA
ENDBRANCH   5  10
BRANCH   4  20
ATOM     20  C   UNL     1       0.574   9.681  18.887  0.00  0.00    +0.000 A 
ATOM     21  C   UNL     1       0.787   9.005  20.098  0.00  0.00    +0.000 A 
ATOM     22  C   UNL     1       1.758   8.010  20.196  0.00  0.00    +0.000 A 
ATOM     23  C   UNL     1       2.530   7.686  19.082  0.00  0.00    +0.000 A 
ATOM     24  C   UNL     1       2.328   8.357  17.874  0.00  0.00    +0.000 A 
ATOM     25  C   UNL     1       1.353   9.354  17.774  0.00  0.00    +0.000 A 
ENDBRANCH   4  20
BRANCH   6  26
ATOM     26  C   UNL     1      -2.339  12.629  20.769  0.00  0.00    +0.000 A 
ATOM     27  C   UNL     1      -3.558  13.242  21.117  0.00  0.00    +0.000 A 
ATOM     28  C   UNL     1      -4.063  13.185  22.415  0.00  0.00    +0.000 A 
ATOM     29  C   UNL     1      -3.358  12.501  23.401  0.00  0.00    +0.000 A 
ATOM     30  C   UNL     1      -2.155  11.871  23.081  0.00  0.00    +0.000 A 
ATOM     31  C   UNL     1      -1.655  11.929  21.780  0.00  0.00    +0.000 A 
ENDBRANCH   6  26
TORSDOF 3
ENDMDL
MODEL 2
REMARK VINA RESULT:      -7.3      0.329      1.295
REMARK  Name = 
REMARK  3 active torsions:
REMARK  status: ('A' for Active; 'I' for Inactive)
REMARK    1  A    between atoms: C_4  and  C_5
REMARK    2  A    between atoms: C_11  and  C_12
REMARK    3  A    between atoms: C_22  and  C_23
REMARK                            x       y       z     vdW  Elec       q    Type
REMARK                         _______ _______ _______ _____ _____    ______ ____
ROOT
ATOM      1  O   UNL     1      -4.091  10.798  17.969  0.00  0.00    +0.000 OA
ATOM      2  C   UNL     1      -3.038  11.202  18.425  0.00  0.00    +0.000 C 
ATOM      3  N   UNL     1      -1.985  10.356  18.665  0.00  0.00    +0.000 N 
ATOM      4  C   UNL     1      -0.711  10.786  19.017  0.00  0.00    +0.000 C 
ATOM      5  C   UNL     1      -0.561  12.081  19.372  0.00  0.00    +0.000 C 
ATOM      6  C   UNL     1      -1.788  12.928  19.625  0.00  0.00    +0.000 C 
ATOM      7  N   UNL     1      -2.820  12.507  18.687  0.00  0.00    +0.000 N 
ATOM      8  H   UNL     1      -2.128   9.389  18.427  0.00  0.00    +0.000 HD
ATOM      9  H   UNL     1      -3.641  13.073  18.582  0.00  0.00    +0.000 HD
ENDROOT
BRANCH   5  10
ATOM     10  C   UNL     1       0.724  12.757  19.564  0.00  0.00    +0.000 A 
ATOM     11  C   UNL     1       1.299  12.760  20.827  0.00  0.00    +0.000 A 
ATOM     12  C   UNL     1       2.570  13.293  20.974  0.00  0.00    +0.000 A 
ATOM     13  C   UNL     1       3.109  14.037  19.928  0.00  0.00    +0.000 A 
ATOM     14  C   UNL     1       4.188  14.911  20.135  0.00  0.00    +0.000 A 
ATOM     15  C   UNL     1       4.653  15.704  19.090  0.00  0.00    +0.000 A 
ATOM     16  C   UNL     1       4.118  15.541  17.818  0.00  0.00    +0.000 A 
ATOM     17  C   UNL     1       3.058  14.650  17.613  0.00  0.00    +0.000 A 
ATOM     18  C   UNL     1       2.483  13.957  18.665  0.00  0.00    +0.000 A 
ATOM     19  N   UNL     1       1.339  13.271  18.474  0.00  0.00    +0.000 NA
ENDBRANCH   5  10
BRANCH   4  20
ATOM     20  C   UNL     1       0.321   9.766  19.036  0.00  0.00    +0.000 A 
ATOM     21  C   UNL     1       0.997   9.479  17.840  0.00  0.00    +0.000 A 
ATOM     22  C   UNL     1       2.052   8.569  17.819  0.00  0.00    +0.000 A 
ATOM     23  C   UNL     1       2.438   7.933  18.997  0.00  0.00    +0.000 A 
ATOM     24  C   UNL     1       1.769   8.209  20.191  0.00  0.00    +0.000 A 
ATOM     25  C   UNL     1       0.711   9.122  20.213  0.00  0.00    +0.000 A 
ENDBRANCH   4  20
BRANCH   6  26
ATOM     26  C   UNL     1      -2.329  12.866  21.055  0.00  0.00    +0.000 A 
ATOM     27  C   UNL     1      -1.875  11.932  22.007  0.00  0.00    +0.000 A 
ATOM     28  C   UNL     1      -2.424  11.864  23.287  0.00  0.00    +0.000 A 
ATOM     29  C   UNL     1      -3.444  12.740  23.649  0.00  0.00    +0.000 A 
ATOM     30  C   UNL     1      -3.902  13.685  22.731  0.00  0.00    +0.000 A 
ATOM     31  C   UNL     1      -3.347  13.751  21.453  0.00  0.00    +0.000 A 
ENDBRANCH   6  26
TORSDOF 3
ENDMDL
MODEL 3
REMARK VINA RESULT:      -7.1      1.763      5.724
REMARK  Name = 
REMARK  3 active torsions:
REMARK  status: ('A' for Active; 'I' for Inactive)
REMARK    1  A    between atoms: C_4  and  C_5
REMARK    2  A    between atoms: C_11  and  C_12
REMARK    3  A    between atoms: C_22  and  C_23
REMARK                            x       y       z     vdW  Elec       q    Type
REMARK                         _______ _______ _______ _____ _____    ______ ____
ROOT
ATOM      1  O   UNL     1      -3.099  13.716  21.090  0.00  0.00    +0.000 OA
ATOM      2  C   UNL     1      -2.317  12.934  20.580  0.00  0.00    +0.000 C 
ATOM      3  N   UNL     1      -1.088  13.339  20.125  0.00  0.00    +0.000 N 
ATOM      4  C   UNL     1      -0.094  12.466  19.698  0.00  0.00    +0.000 C 
ATOM      5  C   UNL     1      -0.437  11.175  19.496  0.00  0.00    +0.000 C 
ATOM      6  C   UNL     1      -1.900  10.790  19.483  0.00  0.00    +0.000 C 
ATOM      7  N   UNL     1      -2.587  11.618  20.464  0.00  0.00    +0.000 N 
ATOM      8  H   UNL     1      -0.864  14.312  20.254  0.00  0.00    +0.000 HD
ATOM      9  H   UNL     1      -3.526  11.384  20.726  0.00  0.00    +0.000 HD
ENDROOT
BRANCH   5  10
ATOM     10  C   UNL     1       0.507  10.081  19.258  0.00  0.00    +0.000 A 
ATOM     11  C   UNL     1       1.237  10.072  18.078  0.00  0.00    +0.000 A 
ATOM     12  C   UNL     1       2.216   9.104  17.914  0.00  0.00    +0.000 A 
ATOM     13  C   UNL     1       2.252   8.031  18.800  0.00  0.00    +0.000 A 
ATOM     14  C   UNL     1       2.936   6.847  18.484  0.00  0.00    +0.000 A 
ATOM     15  C   UNL     1       2.886   5.760  19.352  0.00  0.00    +0.000 A 
ATOM     16  C   UNL     1       2.250   5.895  20.580  0.00  0.00    +0.000 A 
ATOM     17  C   UNL     1       1.590   7.088  20.900  0.00  0.00    +0.000 A 
ATOM     18  C   UNL     1       1.504   8.130  19.993  0.00  0.00    +0.000 A 
ATOM     19  N   UNL     1       0.691   9.175  20.245  0.00  0.00    +0.000 NA
ENDBRANCH   5  10
BRANCH   4  20
ATOM     20  C   UNL     1       1.205  13.059  19.443  0.00  0.00    +0.000 A 
ATOM     21  C   UNL     1       1.488  13.512  18.145  0.00  0.00    +0.000 A 
ATOM     22  C   UNL     1       2.688  14.164  17.865  0.00  0.00    +0.000 A 
ATOM     23  C   UNL     1       3.619  14.364  18.882  0.00  0.00    +0.000 A 
ATOM     24  C   UNL     1       3.348  13.912  20.175  0.00  0.00    +0.000 A 
ATOM     25  C   UNL     1       2.145  13.259  20.458  0.00  0.00    +0.000 A 
ENDBRANCH   4  20
BRANCH   6  26
ATOM     26  C   UNL     1      -2.587  10.917  18.122  0.00  0.00    +0.000 A 
ATOM     27  C   UNL     1      -3.832  11.553  17.949  0.00  0.00    +0.000 A 
ATOM     28  C   UNL     1      -4.460  11.608  16.705  0.00  0.00    +0.000 A 
ATOM     29  C   UNL     1      -3.850  11.027  15.596  0.00  0.00    +0.000 A 
ATOM     30  C   UNL     1      -2.610  10.403  15.737  0.00  0.00    +0.000 A 
ATOM     31  C   UNL     1      -1.984  10.355  16.983  0.00  0.00    +0.000 A 
ENDBRANCH   6  26
TORSDOF 3
ENDMDL
MODEL 4
REMARK VINA RESULT:      -7.1      0.802      1.728
REMARK  Name = 
REMARK  3 active torsions:
REMARK  status: ('A' for Active; 'I' for Inactive)
REMARK    1  A    between atoms: C_4  and  C_5
REMARK    2  A    between atoms: C_11  and  C_12
REMARK    3  A    between atoms: C_22  and  C_23
REMARK                            x       y       z     vdW  Elec       q    Type
REMARK                         _______ _______ _______ _____ _____    ______ ____
ROOT
ATOM      1  O   UNL     1      -3.902  10.429  17.741  0.00  0.00    +0.000 OA
ATOM      2  C   UNL     1      -2.881  10.912  18.193  0.00  0.00    +0.000 C 
ATOM      3  N   UNL     1      -1.784  10.139  18.480  0.00  0.00    +0.000 N 
ATOM      4  C   UNL     1      -0.543  10.656  18.830  0.00  0.00    +0.000 C 
ATOM      5  C   UNL     1      -0.473  11.970  19.133  0.00  0.00    +0.000 C 
ATOM      6  C   UNL     1      -1.750  12.754  19.336  0.00  0.00    +0.000 C 
ATOM      7  N   UNL     1      -2.742  12.237  18.403  0.00  0.00    +0.000 N 
ATOM      8  H   UNL     1      -1.868   9.156  18.280  0.00  0.00    +0.000 HD
ATOM      9  H   UNL     1      -3.593  12.749  18.265  0.00  0.00    +0.000 HD
ENDROOT
BRANCH   5  10
ATOM     10  C   UNL     1       0.769  12.727  19.313  0.00  0.00    +0.000 A 
ATOM     11  C   UNL     1       1.709  12.724  18.293  0.00  0.00    +0.000 A 
ATOM     12  C   UNL     1       2.823  13.539  18.418  0.00  0.00    +0.000 A 
ATOM     13  C   UNL     1       3.093  14.118  19.655  0.00  0.00    +0.000 A 
ATOM     14  C   UNL     1       4.368  14.620  19.962  0.00  0.00    +0.000 A 
ATOM     15  C   UNL     1       4.633  15.117  21.234  0.00  0.00    +0.000 A 
ATOM     16  C   UNL     1       3.600  15.217  22.158  0.00  0.00    +0.000 A 
ATOM     17  C   UNL     1       2.325  14.736  21.837  0.00  0.00    +0.000 A 
ATOM     18  C   UNL     1       2.074  14.106  20.630  0.00  0.00    +0.000 A 
ATOM     19  N   UNL     1       0.901  13.472  20.434  0.00  0.00    +0.000 NA
ENDBRANCH   5  10
BRANCH   4  20
ATOM     20  C   UNL     1       0.546   9.699  18.903  0.00  0.00    +0.000 A 
ATOM     21  C   UNL     1       0.811   9.082  20.135  0.00  0.00    +0.000 A 
ATOM     22  C   UNL     1       1.790   8.096  20.241  0.00  0.00    +0.000 A 
ATOM     23  C   UNL     1       2.517   7.720  19.113  0.00  0.00    +0.000 A 
ATOM     24  C   UNL     1       2.264   8.332  17.884  0.00  0.00    +0.000 A 
ATOM     25  C   UNL     1       1.281   9.321  17.776  0.00  0.00    +0.000 A 
ENDBRANCH   4  20
BRANCH   6  26
ATOM     26  C   UNL     1      -2.308  12.718  20.761  0.00  0.00    +0.000 A 
ATOM     27  C   UNL     1      -1.698  11.995  21.805  0.00  0.00    +0.000 A 
ATOM     28  C   UNL     1      -2.258  11.937  23.080  0.00  0.00    +0.000 A 
ATOM     29  C   UNL     1      -3.447  12.612  23.345  0.00  0.00    +0.000 A 
ATOM     30  C   UNL     1      -4.064  13.348  22.334  0.00  0.00    +0.000 A 
ATOM     31  C   UNL     1      -3.498  13.406  21.060  0.00  0.00    +0.000 A 
ENDBRANCH   6  26
TORSDOF 3
ENDMDL
MODEL 5
REMARK VINA RESULT:      -7.0      1.943      5.293
REMARK  Name = 
REMARK  3 active torsions:
REMARK  status: ('A' for Active; 'I' for Inactive)
REMARK    1  A    between atoms: C_4  and  C_5
REMARK    2  A    between atoms: C_11  and  C_12
REMARK    3  A    between atoms: C_22  and  C_23
REMARK                            x       y       z     vdW  Elec       q    Type
REMARK                         _______ _______ _______ _____ _____    ______ ____
ROOT
ATOM      1  O   UNL     1      -3.184  14.928  20.988  0.00  0.00    +0.000 OA
ATOM      2  C   UNL     1      -2.513  13.960  20.681  0.00  0.00    +0.000 C 
ATOM      3  N   UNL     1      -1.224  14.092  20.229  0.00  0.00    +0.000 N 
ATOM      4  C   UNL     1      -0.360  13.021  20.033  0.00  0.00    +0.000 C 
ATOM      5  C   UNL     1      -0.885  11.777  20.058  0.00  0.00    +0.000 C 
ATOM      6  C   UNL     1      -2.388  11.606  20.034  0.00  0.00    +0.000 C 
ATOM      7  N   UNL     1      -2.973  12.698  20.800  0.00  0.00    +0.000 N 
ATOM      8  H   UNL     1      -0.862  15.029  20.184  0.00  0.00    +0.000 HD
ATOM      9  H   UNL     1      -3.943  12.654  21.047  0.00  0.00    +0.000 HD
ENDROOT
BRANCH   5  10
ATOM     10  C   UNL     1      -0.108  10.536  20.085  0.00  0.00    +0.000 A 
ATOM     11  C   UNL     1      -0.025   9.822  21.272  0.00  0.00    +0.000 A 
ATOM     12  C   UNL     1       0.607   8.588  21.259  0.00  0.00    +0.000 A 
ATOM     13  C   UNL     1       1.360   8.234  20.143  0.00  0.00    +0.000 A 
ATOM     14  C   UNL     1       2.320   7.212  20.205  0.00  0.00    +0.000 A 
ATOM     15  C   UNL     1       3.117   6.935  19.099  0.00  0.00    +0.000 A 
ATOM     16  C   UNL     1       2.878   7.599  17.902  0.00  0.00    +0.000 A 
ATOM     17  C   UNL     1       1.903   8.601  17.839  0.00  0.00    +0.000 A 
ATOM     18  C   UNL     1       1.198   8.993  18.964  0.00  0.00    +0.000 A 
ATOM     19  N   UNL     1       0.421  10.094  18.921  0.00  0.00    +0.000 NA
ENDBRANCH   5  10
BRANCH   4  20
ATOM     20  C   UNL     1       1.021  13.364  19.745  0.00  0.00    +0.000 A 
ATOM     21  C   UNL     1       1.398  13.544  18.406  0.00  0.00    +0.000 A 
ATOM     22  C   UNL     1       2.689  13.955  18.079  0.00  0.00    +0.000 A 
ATOM     23  C   UNL     1       3.618  14.185  19.093  0.00  0.00    +0.000 A 
ATOM     24  C   UNL     1       3.253  14.003  20.428  0.00  0.00    +0.000 A 
ATOM     25  C   UNL     1       1.957  13.592  20.757  0.00  0.00    +0.000 A 
ENDBRANCH   4  20
BRANCH   6  26
ATOM     26  C   UNL     1      -3.008  11.561  18.636  0.00  0.00    +0.000 A 
ATOM     27  C   UNL     1      -4.387  11.732  18.403  0.00  0.00    +0.000 A 
ATOM     28  C   UNL     1      -4.933  11.632  17.124  0.00  0.00    +0.000 A 
ATOM     29  C   UNL     1      -4.103  11.363  16.038  0.00  0.00    +0.000 A 
ATOM     30  C   UNL     1      -2.732  11.204  16.238  0.00  0.00    +0.000 A 
ATOM     31  C   UNL     1      -2.191  11.308  17.519  0.00  0.00    +0.000 A 
ENDBRANCH   6  26
TORSDOF 3
ENDMDL
MODEL 6
REMARK VINA RESULT:      -7.0      3.361      6.805
REMARK  Name = 
REMARK  3 active torsions:
REMARK  status: ('A' for Active; 'I' for Inactive)
REMARK    1  A    between atoms: C_4  and  C_5
REMARK    2  A    between atoms: C_11  and  C_12
REMARK    3  A    between atoms: C_22  and  C_23
REMARK                            x       y       z     vdW  Elec       q    Type
REMARK                         _______ _______ _______ _____ _____    ______ ____
ROOT
ATOM      1  O   UNL     1      -0.119  15.985  24.007  0.00  0.00    +0.000 OA
ATOM      2  C   UNL     1      -0.639  15.331  23.122  0.00  0.00    +0.000 C 
ATOM      3  N   UNL     1      -0.286  14.026  22.888  0.00  0.00    +0.000 N 
ATOM      4  C   UNL     1      -0.964  13.185  22.014  0.00  0.00    +0.000 C 
ATOM      5  C   UNL     1      -1.866  13.744  21.178  0.00  0.00    +0.000 C 
ATOM      6  C   UNL     1      -1.914  15.249  21.037  0.00  0.00    +0.000 C 
ATOM      7  N   UNL     1      -1.621  15.827  22.341  0.00  0.00    +0.000 N 
ATOM      8  H   UNL     1       0.413  13.638  23.500  0.00  0.00    +0.000 HD
ATOM      9  H   UNL     1      -1.784  16.805  22.487  0.00  0.00    +0.000 HD
ENDROOT
BRANCH   5  10
ATOM     10  C   UNL     1      -2.818  13.000  20.349  0.00  0.00    +0.000 A 
ATOM     11  C   UNL     1      -2.373  12.429  19.165  0.00  0.00    +0.000 A 
ATOM     12  C   UNL     1      -3.246  11.625  18.450  0.00  0.00    +0.000 A 
ATOM     13  C   UNL     1      -4.595  11.633  18.791  0.00  0.00    +0.000 A 
ATOM     14  C   UNL     1      -5.576  11.168  17.901  0.00  0.00    +0.000 A 
ATOM     15  C   UNL     1      -6.923  11.265  18.234  0.00  0.00    +0.000 A 
ATOM     16  C   UNL     1      -7.284  11.720  19.497  0.00  0.00    +0.000 A 
ATOM     17  C   UNL     1      -6.299  12.159  20.390  0.00  0.00    +0.000 A 
ATOM     18  C   UNL     1      -4.964  12.208  20.027  0.00  0.00    +0.000 A 
ATOM     19  N   UNL     1      -4.072  12.827  20.825  0.00  0.00    +0.000 NA
ENDBRANCH   5  10
BRANCH   4  20
ATOM     20  C   UNL     1      -0.572  11.788  22.045  0.00  0.00    +0.000 A 
ATOM     21  C   UNL     1       0.419  11.353  21.152  0.00  0.00    +0.000 A 
ATOM     22  C   UNL     1       0.891  10.042  21.196  0.00  0.00    +0.000 A 
ATOM     23  C   UNL     1       0.370   9.152  22.133  0.00  0.00    +0.000 A 
ATOM     24  C   UNL     1      -0.619   9.574  23.023  0.00  0.00    +0.000 A 
ATOM     25  C   UNL     1      -1.093  10.889  22.980  0.00  0.00    +0.000 A 
ENDBRANCH   4  20
BRANCH   6  26
ATOM     26  C   UNL     1      -0.965  15.828  19.986  0.00  0.00    +0.000 A 
ATOM     27  C   UNL     1       0.255  15.216  19.635  0.00  0.00    +0.000 A 
ATOM     28  C   UNL     1       1.126  15.794  18.712  0.00  0.00    +0.000 A 
ATOM     29  C   UNL     1       0.791  17.004  18.110  0.00  0.00    +0.000 A 
ATOM     30  C   UNL     1      -0.417  17.625  18.429  0.00  0.00    +0.000 A 
ATOM     31  C   UNL     1      -1.286  17.040  19.350  0.00  0.00    +0.000 A 
ENDBRANCH   6  26
TORSDOF 3
ENDMDL
MODEL 7
REMARK VINA RESULT:      -7.0      2.389      5.106
REMARK  Name = 
REMARK  3 active torsions:
REMARK  status: ('A' for Active; 'I' for Inactive)
REMARK    1  A    between atoms: C_4  and  C_5
REMARK    2  A    between atoms: C_11  and  C_12
REMARK    3  A    between atoms: C_22  and  C_23
REMARK                            x       y       z     vdW  Elec       q    Type
REMARK                         _______ _______ _______ _____ _____    ______ ____
ROOT
ATOM      1  O   UNL     1      -0.333   8.800  21.719  0.00  0.00    +0.000 OA
ATOM      2  C   UNL     1      -0.378   9.915  21.234  0.00  0.00    +0.000 C 
ATOM      3  N   UNL     1      -0.994  10.958  21.879  0.00  0.00    +0.000 N 
ATOM      4  C   UNL     1      -0.923  12.280  21.457  0.00  0.00    +0.000 C 
ATOM      5  C   UNL     1      -0.426  12.520  20.224  0.00  0.00    +0.000 C 
ATOM      6  C   UNL     1      -0.217  11.364  19.271  0.00  0.00    +0.000 C 
ATOM      7  N   UNL     1       0.206  10.211  20.054  0.00  0.00    +0.000 N 
ATOM      8  H   UNL     1      -1.389  10.751  22.781  0.00  0.00    +0.000 HD
ATOM      9  H   UNL     1       0.564   9.406  19.579  0.00  0.00    +0.000 HD
ENDROOT
BRANCH   5  10
ATOM     10  C   UNL     1      -0.079  13.843  19.700  0.00  0.00    +0.000 A 
ATOM     11  C   UNL     1      -1.058  14.826  19.661  0.00  0.00    +0.000 A 
ATOM     12  C   UNL     1      -0.693  16.108  19.280  0.00  0.00    +0.000 A 
ATOM     13  C   UNL     1       0.557  16.303  18.701  0.00  0.00    +0.000 A 
ATOM     14  C   UNL     1       0.843  17.457  17.954  0.00  0.00    +0.000 A 
ATOM     15  C   UNL     1       2.073  17.588  17.316  0.00  0.00    +0.000 A 
ATOM     16  C   UNL     1       3.053  16.625  17.518  0.00  0.00    +0.000 A 
ATOM     17  C   UNL     1       2.771  15.488  18.285  0.00  0.00    +0.000 A 
ATOM     18  C   UNL     1       1.509  15.266  18.808  0.00  0.00    +0.000 A 
ATOM     19  N   UNL     1       1.210  14.073  19.360  0.00  0.00    +0.000 NA
ENDBRANCH   5  10
BRANCH   4  20
ATOM     20  C   UNL     1      -1.467  13.268  22.370  0.00  0.00    +0.000 A 
ATOM     21  C   UNL     1      -2.860  13.341  22.521  0.00  0.00    +0.000 A 
ATOM     22  C   UNL     1      -3.431  14.214  23.446  0.00  0.00    +0.000 A 
ATOM     23  C   UNL     1      -2.610  15.027  24.226  0.00  0.00    +0.000 A 
ATOM     24  C   UNL     1      -1.223  14.964  24.079  0.00  0.00    +0.000 A 
ATOM     25  C   UNL     1      -0.650  14.088  23.152  0.00  0.00    +0.000 A 
ENDBRANCH   4  20
BRANCH   6  26
ATOM     26  C   UNL     1      -1.438  10.998  18.425  0.00  0.00    +0.000 A 
ATOM     27  C   UNL     1      -1.399  10.035  17.398  0.00  0.00    +0.000 A 
ATOM     28  C   UNL     1      -2.514   9.761  16.607  0.00  0.00    +0.000 A 
ATOM     29  C   UNL     1      -3.706  10.444  16.832  0.00  0.00    +0.000 A 
ATOM     30  C   UNL     1      -3.777  11.392  17.853  0.00  0.00    +0.000 A 
ATOM     31  C   UNL     1      -2.660  11.661  18.643  0.00  0.00    +0.000 A 
ENDBRANCH   6  26
TORSDOF 3
ENDMDL
MODEL 8
REMARK VINA RESULT:      -7.0      2.774      6.122
REMARK  Name = 
REMARK  3 active torsions:
REMARK  status: ('A' for Active; 'I' for Inactive)
REMARK    1  A    between atoms: C_4  and  C_5
REMARK    2  A    between atoms: C_11  and  C_12
REMARK    3  A    between atoms: C_22  and  C_23
REMARK                            x       y       z     vdW  Elec       q    Type
REMARK                         _______ _______ _______ _____ _____    ______ ____
ROOT
ATOM      1  O   UNL     1       2.956  12.332  17.832  0.00  0.00    +0.000 OA
ATOM      2  C   UNL     1       1.990  12.487  18.556  0.00  0.00    +0.000 C 
ATOM      3  N   UNL     1       0.737  12.069  18.184  0.00  0.00    +0.000 N 
ATOM      4  C   UNL     1      -0.361  12.062  19.036  0.00  0.00    +0.000 C 
ATOM      5  C   UNL     1      -0.248  12.718  20.212  0.00  0.00    +0.000 C 
ATOM      6  C   UNL     1       0.934  13.633  20.440  0.00  0.00    +0.000 C 
ATOM      7  N   UNL     1       2.090  13.039  19.782  0.00  0.00    +0.000 N 
ATOM      8  H   UNL     1       0.667  11.614  17.290  0.00  0.00    +0.000 HD
ATOM      9  H   UNL     1       3.002  13.408  19.975  0.00  0.00    +0.000 HD
ENDROOT
BRANCH   5  10
ATOM     10  C   UNL     1      -1.210  12.639  21.314  0.00  0.00    +0.000 A 
ATOM     11  C   UNL     1      -1.112  11.589  22.216  0.00  0.00    +0.000 A 
ATOM     12  C   UNL     1      -1.945  11.589  23.324  0.00  0.00    +0.000 A 
ATOM     13  C   UNL     1      -3.015  12.478  23.356  0.00  0.00    +0.000 A 
ATOM     14  C   UNL     1      -4.099  12.284  24.227  0.00  0.00    +0.000 A 
ATOM     15  C   UNL     1      -5.194  13.141  24.181  0.00  0.00    +0.000 A 
ATOM     16  C   UNL     1      -5.155  14.253  23.348  0.00  0.00    +0.000 A 
ATOM     17  C   UNL     1      -4.061  14.455  22.500  0.00  0.00    +0.000 A 
ATOM     18  C   UNL     1      -3.027  13.538  22.424  0.00  0.00    +0.000 A 
ATOM     19  N   UNL     1      -2.097  13.651  21.455  0.00  0.00    +0.000 NA
ENDBRANCH   5  10
BRANCH   4  20
ATOM     20  C   UNL     1      -1.552  11.403  18.532  0.00  0.00    +0.000 A 
ATOM     21  C   UNL     1      -2.785  12.058  18.667  0.00  0.00    +0.000 A 
ATOM     22  C   UNL     1      -3.946  11.508  18.126  0.00  0.00    +0.000 A 
ATOM     23  C   UNL     1      -3.883  10.292  17.449  0.00  0.00    +0.000 A 
ATOM     24  C   UNL     1      -2.662   9.630  17.315  0.00  0.00    +0.000 A 
ATOM     25  C   UNL     1      -1.496  10.181  17.855  0.00  0.00    +0.000 A 
ENDBRANCH   4  20
BRANCH   6  26
ATOM     26  C   UNL     1       0.739  15.070  19.952  0.00  0.00    +0.000 A 
ATOM     27  C   UNL     1      -0.261  15.437  19.030  0.00  0.00    +0.000 A 
ATOM     28  C   UNL     1      -0.381  16.745  18.562  0.00  0.00    +0.000 A 
ATOM     29  C   UNL     1       0.499  17.725  19.014  0.00  0.00    +0.000 A 
ATOM     30  C   UNL     1       1.490  17.392  19.938  0.00  0.00    +0.000 A 
ATOM     31  C   UNL     1       1.603  16.083  20.406  0.00  0.00    +0.000 A 
ENDBRANCH   6  26
TORSDOF 3
ENDMDL
MODEL 9
REMARK VINA RESULT:      -7.0      2.522      5.102
REMARK  Name = 
REMARK  3 active torsions:
REMARK  status: ('A' for Active; 'I' for Inactive)
REMARK    1  A    between atoms: C_4  and  C_5
REMARK    2  A    between atoms: C_11  and  C_12
REMARK    3  A    between atoms: C_22  and  C_23
REMARK                            x       y       z     vdW  Elec       q    Type
REMARK                         _______ _______ _______ _____ _____    ______ ____
ROOT
ATOM      1  O   UNL     1      -0.132  15.887  18.282  0.00  0.00    +0.000 OA
ATOM      2  C   UNL     1      -0.087  14.746  18.705  0.00  0.00    +0.000 C 
ATOM      3  N   UNL     1      -1.027  13.811  18.354  0.00  0.00    +0.000 N 
ATOM      4  C   UNL     1      -0.927  12.459  18.664  0.00  0.00    +0.000 C 
ATOM      5  C   UNL     1       0.018  12.087  19.555  0.00  0.00    +0.000 C 
ATOM      6  C   UNL     1       0.735  13.147  20.361  0.00  0.00    +0.000 C 
ATOM      7  N   UNL     1       0.907  14.315  19.509  0.00  0.00    +0.000 N 
ATOM      8  H   UNL     1      -1.743  14.117  17.717  0.00  0.00    +0.000 HD
ATOM      9  H   UNL     1       1.518  15.050  19.809  0.00  0.00    +0.000 HD
ENDROOT
BRANCH   5  10
ATOM     10  C   UNL     1       0.409  10.704  19.838  0.00  0.00    +0.000 A 
ATOM     11  C   UNL     1       0.014  10.128  21.037  0.00  0.00    +0.000 A 
ATOM     12  C   UNL     1       0.281   8.784  21.244  0.00  0.00    +0.000 A 
ATOM     13  C   UNL     1       1.156   8.134  20.377  0.00  0.00    +0.000 A 
ATOM     14  C   UNL     1       1.766   6.921  20.732  0.00  0.00    +0.000 A 
ATOM     15  C   UNL     1       2.700   6.336  19.883  0.00  0.00    +0.000 A 
ATOM     16  C   UNL     1       2.938   6.901  18.635  0.00  0.00    +0.000 A 
ATOM     17  C   UNL     1       2.307   8.098  18.278  0.00  0.00    +0.000 A 
ATOM     18  C   UNL     1       1.486   8.774  19.163  0.00  0.00    +0.000 A 
ATOM     19  N   UNL     1       1.062  10.020  18.871  0.00  0.00    +0.000 NA
ENDBRANCH   5  10
BRANCH   4  20
ATOM     20  C   UNL     1      -1.910  11.591  18.042  0.00  0.00    +0.000 A 
ATOM     21  C   UNL     1      -3.239  11.662  18.488  0.00  0.00    +0.000 A 
ATOM     22  C   UNL     1      -4.238  10.912  17.869  0.00  0.00    +0.000 A 
ATOM     23  C   UNL     1      -3.913  10.078  16.801  0.00  0.00    +0.000 A 
ATOM     24  C   UNL     1      -2.593   9.998  16.353  0.00  0.00    +0.000 A 
ATOM     25  C   UNL     1      -1.591  10.751  16.972  0.00  0.00    +0.000 A 
ENDBRANCH   4  20
BRANCH   6  26
ATOM     26  C   UNL     1       0.035  13.550  21.661  0.00  0.00    +0.000 A 
ATOM     27  C   UNL     1      -0.906  12.728  22.312  0.00  0.00    +0.000 A 
ATOM     28  C   UNL     1      -1.568  13.143  23.466  0.00  0.00    +0.000 A 
ATOM     29  C   UNL     1      -1.298  14.399  24.004  0.00  0.00    +0.000 A 
ATOM     30  C   UNL     1      -0.360  15.228  23.388  0.00  0.00    +0.000 A 
ATOM     31  C   UNL     1       0.302  14.806  22.235  0.00  0.00    +0.000 A 
ENDBRANCH   6  26
TORSDOF 3
ENDMDL
