MODEL 1
REMARK VINA RESULT:      -8.6      0.000      0.000
REMARK  Name = 
REMARK  7 active torsions:
REMARK  status: ('A' for Active; 'I' for Inactive)
REMARK    1  A    between atoms: C_1  and  C_2
REMARK    2  A    between atoms: C_5  and  C_6
REMARK    3  A    between atoms: N_8  and  C_9
REMARK    4  A    between atoms: C_21  and  S_22
REMARK    5  A    between atoms: S_22  and  N_25
REMARK    6  A    between atoms: N_25  and  C_26
REMARK    7  A    between atoms: C_26  and  C_27
REMARK                            x       y       z     vdW  Elec       q    Type
REMARK                         _______ _______ _______ _____ _____    ______ ____
ROOT
ATOM      1  C   UNL     1       2.648   2.504  20.628  0.00  0.00    +0.000 C 
ATOM      2  C   UNL     1       2.555   3.949  20.220  0.00  0.00    +0.000 A 
ATOM      3  C   UNL     1       2.017   4.865  21.149  0.00  0.00    +0.000 A 
ATOM      4  C   UNL     1       1.833   6.211  20.818  0.00  0.00    +0.000 A 
ATOM      5  C   UNL     1       2.182   6.669  19.546  0.00  0.00    +0.000 A 
ATOM      6  C   UNL     1       2.764   5.782  18.627  0.00  0.00    +0.000 A 
ATOM      7  C   UNL     1       2.937   4.427  18.950  0.00  0.00    +0.000 A 
ENDROOT
BRANCH   5   8
ATOM      8  C   UNL     1       1.943   8.097  19.202  0.00  0.00    +0.000 C 
ATOM      9  O   UNL     1       2.514   8.550  18.216  0.00  0.00    +0.000 OA
ATOM     10  N   UNL     1       1.130   8.802  20.082  0.00  0.00    +0.000 N 
ATOM     11  H   UNL     1       0.949   8.388  20.988  0.00  0.00    +0.000 HD
BRANCH  10  12
ATOM     12  C   UNL     1       0.672  10.126  19.894  0.00  0.00    +0.000 A 
ATOM     13  C   UNL     1      -0.186  10.476  18.846  0.00  0.00    +0.000 A 
ATOM     14  C   UNL     1      -0.614  11.792  18.683  0.00  0.00    +0.000 A 
ATOM     15  C   UNL     1      -0.152  12.782  19.541  0.00  0.00    +0.000 A 
ATOM     16  C   UNL     1       0.696  12.451  20.599  0.00  0.00    +0.000 A 
ATOM     17  C   UNL     1       1.071  11.117  20.803  0.00  0.00    +0.000 A 
ATOM     18  O   UNL     1       1.131  13.385  21.502  0.00  0.00    +0.000 OA
ATOM     19  C   UNL     1       1.958  14.381  20.890  0.00  0.00    +0.000 C 
ATOM     20  C   UNL     1       1.168  15.468  20.168  0.00  0.00    +0.000 C 
ATOM     21  C   UNL     1       0.440  14.922  18.950  0.00  0.00    +0.000 C 
ATOM     22  O   UNL     1      -0.621  14.048  19.333  0.00  0.00    +0.000 OA
ENDBRANCH  10  12
ENDBRANCH   5   8
BRANCH   7  23
ATOM     23  S   UNL     1       3.421   3.346  17.601  0.00  0.00    +0.000 S 
ATOM     24  O   UNL     1       4.459   2.473  18.105  0.00  0.00    +0.000 OA
ATOM     25  O   UNL     1       2.209   2.785  17.040  0.00  0.00    +0.000 OA
BRANCH  23  26
ATOM     26  N   UNL     1       4.141   4.317  16.422  0.00  0.00    +0.000 NA
ATOM     27  H   UNL     1       3.786   5.270  16.528  0.00  0.00    +0.000 HD
BRANCH  26  28
ATOM     28  C   UNL     1       5.609   4.223  16.301  0.00  0.00    +0.000 C 
BRANCH  28  29
ATOM     29  C   UNL     1       6.398   5.245  17.100  0.00  0.00    +0.000 A 
ATOM     30  C   UNL     1       7.071   4.819  18.262  0.00  0.00    +0.000 A 
ATOM     31  C   UNL     1       7.883   5.690  18.995  0.00  0.00    +0.000 A 
ATOM     32  C   UNL     1       8.042   7.006  18.575  0.00  0.00    +0.000 A 
ATOM     33  C   UNL     1       7.383   7.448  17.428  0.00  0.00    +0.000 A 
ATOM     34  C   UNL     1       6.571   6.574  16.692  0.00  0.00    +0.000 A 
ENDBRANCH  28  29
ENDBRANCH  26  28
ENDBRANCH  23  26
ENDBRANCH   7  23
TORSDOF 6
ENDMDL
MODEL 2
REMARK VINA RESULT:      -8.5      5.217      7.834
REMARK  Name = 
REMARK  7 active torsions:
REMARK  status: ('A' for Active; 'I' for Inactive)
REMARK    1  A    between atoms: C_1  and  C_2
REMARK    2  A    between atoms: C_5  and  C_6
REMARK    3  A    between atoms: N_8  and  C_9
REMARK    4  A    between atoms: C_21  and  S_22
REMARK    5  A    between atoms: S_22  and  N_25
REMARK    6  A    between atoms: N_25  and  C_26
REMARK    7  A    between atoms: C_26  and  C_27
REMARK                            x       y       z     vdW  Elec       q    Type
REMARK                         _______ _______ _______ _____ _____    ______ ____
ROOT
ATOM      1  C   UNL     1       6.396   4.060  18.263  0.00  0.00    +0.000 C 
ATOM      2  C   UNL     1       6.936   5.460  18.165  0.00  0.00    +0.000 A 
ATOM      3  C   UNL     1       7.967   5.835  19.053  0.00  0.00    +0.000 A 
ATOM      4  C   UNL     1       8.472   7.138  19.071  0.00  0.00    +0.000 A 
ATOM      5  C   UNL     1       7.953   8.097  18.198  0.00  0.00    +0.000 A 
ATOM      6  C   UNL     1       6.963   7.729  17.275  0.00  0.00    +0.000 A 
ATOM      7  C   UNL     1       6.443   6.425  17.263  0.00  0.00    +0.000 A 
ENDROOT
BRANCH   5   8
ATOM      8  C   UNL     1       8.478   9.489  18.259  0.00  0.00    +0.000 C 
ATOM      9  O   UNL     1       8.104  10.279  17.400  0.00  0.00    +0.000 OA
ATOM     10  N   UNL     1       9.404   9.741  19.265  0.00  0.00    +0.000 N 
ATOM     11  H   UNL     1       9.825   8.944  19.728  0.00  0.00    +0.000 HD
BRANCH  10  12
ATOM     12  C   UNL     1       9.942  11.008  19.587  0.00  0.00    +0.000 A 
ATOM     13  C   UNL     1       9.617  11.677  20.771  0.00  0.00    +0.000 A 
ATOM     14  C   UNL     1      10.158  12.929  21.056  0.00  0.00    +0.000 A 
ATOM     15  C   UNL     1      10.995  13.547  20.136  0.00  0.00    +0.000 A 
ATOM     16  C   UNL     1      11.340  12.891  18.952  0.00  0.00    +0.000 A 
ATOM     17  C   UNL     1      10.850  11.603  18.699  0.00  0.00    +0.000 A 
ATOM     18  O   UNL     1      12.206  13.438  18.044  0.00  0.00    +0.000 OA
ATOM     19  C   UNL     1      11.687  14.639  17.461  0.00  0.00    +0.000 C 
ATOM     20  C   UNL     1      11.861  15.870  18.345  0.00  0.00    +0.000 C 
ATOM     21  C   UNL     1      11.015  15.782  19.605  0.00  0.00    +0.000 C 
ATOM     22  O   UNL     1      11.501  14.767  20.482  0.00  0.00    +0.000 OA
ENDBRANCH  10  12
ENDBRANCH   5   8
BRANCH   7  23
ATOM     23  S   UNL     1       4.992   6.159  16.240  0.00  0.00    +0.000 S 
ATOM     24  O   UNL     1       5.056   7.114  15.155  0.00  0.00    +0.000 OA
ATOM     25  O   UNL     1       4.916   4.741  15.957  0.00  0.00    +0.000 OA
BRANCH  23  26
ATOM     26  N   UNL     1       3.647   6.579  17.170  0.00  0.00    +0.000 NA
ATOM     27  H   UNL     1       2.803   6.321  16.652  0.00  0.00    +0.000 HD
BRANCH  26  28
ATOM     28  C   UNL     1       3.656   6.136  18.577  0.00  0.00    +0.000 C 
BRANCH  28  29
ATOM     29  C   UNL     1       2.678   5.027  18.922  0.00  0.00    +0.000 A 
ATOM     30  C   UNL     1       2.044   5.053  20.180  0.00  0.00    +0.000 A 
ATOM     31  C   UNL     1       1.072   4.110  20.526  0.00  0.00    +0.000 A 
ATOM     32  C   UNL     1       0.710   3.123  19.615  0.00  0.00    +0.000 A 
ATOM     33  C   UNL     1       1.328   3.078  18.366  0.00  0.00    +0.000 A 
ATOM     34  C   UNL     1       2.302   4.025  18.018  0.00  0.00    +0.000 A 
ENDBRANCH  28  29
ENDBRANCH  26  28
ENDBRANCH  23  26
ENDBRANCH   7  23
TORSDOF 6
ENDMDL
MODEL 3
REMARK VINA RESULT:      -8.4      2.957      4.107
REMARK  Name = 
REMARK  7 active torsions:
REMARK  status: ('A' for Active; 'I' for Inactive)
REMARK    1  A    between atoms: C_1  and  C_2
REMARK    2  A    between atoms: C_5  and  C_6
REMARK    3  A    between atoms: N_8  and  C_9
REMARK    4  A    between atoms: C_21  and  S_22
REMARK    5  A    between atoms: S_22  and  N_25
REMARK    6  A    between atoms: N_25  and  C_26
REMARK    7  A    between atoms: C_26  and  C_27
REMARK                            x       y       z     vdW  Elec       q    Type
REMARK                         _______ _______ _______ _____ _____    ______ ____
ROOT
ATOM      1  C   UNL     1       4.845   3.682  17.593  0.00  0.00    +0.000 C 
ATOM      2  C   UNL     1       4.213   5.035  17.767  0.00  0.00    +0.000 A 
ATOM      3  C   UNL     1       2.836   5.089  18.069  0.00  0.00    +0.000 A 
ATOM      4  C   UNL     1       2.162   6.308  18.175  0.00  0.00    +0.000 A 
ATOM      5  C   UNL     1       2.855   7.505  17.979  0.00  0.00    +0.000 A 
ATOM      6  C   UNL     1       4.234   7.472  17.727  0.00  0.00    +0.000 A 
ATOM      7  C   UNL     1       4.912   6.249  17.605  0.00  0.00    +0.000 A 
ENDROOT
BRANCH   5   8
ATOM      8  C   UNL     1       2.111   8.792  18.059  0.00  0.00    +0.000 C 
ATOM      9  O   UNL     1       2.395   9.668  17.251  0.00  0.00    +0.000 OA
ATOM     10  N   UNL     1       1.195   8.895  19.100  0.00  0.00    +0.000 N 
ATOM     11  H   UNL     1       1.253   8.214  19.847  0.00  0.00    +0.000 HD
BRANCH  10  12
ATOM     12  C   UNL     1       0.296   9.968  19.298  0.00  0.00    +0.000 A 
ATOM     13  C   UNL     1       0.429  10.864  20.365  0.00  0.00    +0.000 A 
ATOM     14  C   UNL     1      -0.479  11.907  20.537  0.00  0.00    +0.000 A 
ATOM     15  C   UNL     1      -1.557  12.038  19.671  0.00  0.00    +0.000 A 
ATOM     16  C   UNL     1      -1.700  11.161  18.595  0.00  0.00    +0.000 A 
ATOM     17  C   UNL     1      -0.750  10.154  18.382  0.00  0.00    +0.000 A 
ATOM     18  O   UNL     1      -2.715  11.288  17.684  0.00  0.00    +0.000 OA
ATOM     19  C   UNL     1      -4.002  11.083  18.279  0.00  0.00    +0.000 C 
ATOM     20  C   UNL     1      -4.532  12.308  19.018  0.00  0.00    +0.000 C 
ATOM     21  C   UNL     1      -3.701  12.626  20.251  0.00  0.00    +0.000 C 
ATOM     22  O   UNL     1      -2.401  13.090  19.889  0.00  0.00    +0.000 OA
ENDBRANCH  10  12
ENDBRANCH   5   8
BRANCH   7  23
ATOM     23  S   UNL     1       6.601   6.334  17.002  0.00  0.00    +0.000 S 
ATOM     24  O   UNL     1       7.413   5.536  17.895  0.00  0.00    +0.000 OA
ATOM     25  O   UNL     1       6.570   6.035  15.585  0.00  0.00    +0.000 OA
BRANCH  23  26
ATOM     26  N   UNL     1       7.113   7.932  17.187  0.00  0.00    +0.000 NA
ATOM     27  H   UNL     1       6.287   8.525  17.296  0.00  0.00    +0.000 HD
BRANCH  26  28
ATOM     28  C   UNL     1       8.170   8.172  18.188  0.00  0.00    +0.000 C 
BRANCH  28  29
ATOM     29  C   UNL     1       8.564   9.625  18.391  0.00  0.00    +0.000 A 
ATOM     30  C   UNL     1       9.468   9.941  19.423  0.00  0.00    +0.000 A 
ATOM     31  C   UNL     1       9.936  11.246  19.608  0.00  0.00    +0.000 A 
ATOM     32  C   UNL     1       9.510  12.261  18.758  0.00  0.00    +0.000 A 
ATOM     33  C   UNL     1       8.612  11.969  17.732  0.00  0.00    +0.000 A 
ATOM     34  C   UNL     1       8.145  10.660  17.545  0.00  0.00    +0.000 A 
ENDBRANCH  28  29
ENDBRANCH  26  28
ENDBRANCH  23  26
ENDBRANCH   7  23
TORSDOF 6
ENDMDL
MODEL 4
REMARK VINA RESULT:      -8.2      2.447      4.512
REMARK  Name = 
REMARK  7 active torsions:
REMARK  status: ('A' for Active; 'I' for Inactive)
REMARK    1  A    between atoms: C_1  and  C_2
REMARK    2  A    between atoms: C_5  and  C_6
REMARK    3  A    between atoms: N_8  and  C_9
REMARK    4  A    between atoms: C_21  and  S_22
REMARK    5  A    between atoms: S_22  and  N_25
REMARK    6  A    between atoms: N_25  and  C_26
REMARK    7  A    between atoms: C_26  and  C_27
REMARK                            x       y       z     vdW  Elec       q    Type
REMARK                         _______ _______ _______ _____ _____    ______ ____
ROOT
ATOM      1  C   UNL     1       5.589   5.984  15.803  0.00  0.00    +0.000 C 
ATOM      2  C   UNL     1       4.650   6.313  16.930  0.00  0.00    +0.000 A 
ATOM      3  C   UNL     1       3.633   7.261  16.689  0.00  0.00    +0.000 A 
ATOM      4  C   UNL     1       2.766   7.671  17.706  0.00  0.00    +0.000 A 
ATOM      5  C   UNL     1       2.901   7.141  18.991  0.00  0.00    +0.000 A 
ATOM      6  C   UNL     1       3.874   6.161  19.236  0.00  0.00    +0.000 A 
ATOM      7  C   UNL     1       4.756   5.756  18.222  0.00  0.00    +0.000 A 
ENDROOT
BRANCH   5   8
ATOM      8  C   UNL     1       1.992   7.618  20.068  0.00  0.00    +0.000 C 
ATOM      9  O   UNL     1       1.710   6.834  20.967  0.00  0.00    +0.000 OA
ATOM     10  N   UNL     1       1.497   8.908  19.913  0.00  0.00    +0.000 N 
ATOM     11  H   UNL     1       1.590   9.341  19.002  0.00  0.00    +0.000 HD
BRANCH  10  12
ATOM     12  C   UNL     1       0.721   9.610  20.863  0.00  0.00    +0.000 A 
ATOM     13  C   UNL     1       0.088   8.965  21.931  0.00  0.00    +0.000 A 
ATOM     14  C   UNL     1      -0.678   9.684  22.847  0.00  0.00    +0.000 A 
ATOM     15  C   UNL     1      -0.856  11.051  22.678  0.00  0.00    +0.000 A 
ATOM     16  C   UNL     1      -0.224  11.715  21.625  0.00  0.00    +0.000 A 
ATOM     17  C   UNL     1       0.600  11.002  20.745  0.00  0.00    +0.000 A 
ATOM     18  O   UNL     1      -0.326  13.070  21.454  0.00  0.00    +0.000 OA
ATOM     19  C   UNL     1      -1.670  13.476  21.167  0.00  0.00    +0.000 C 
ATOM     20  C   UNL     1      -2.552  13.581  22.406  0.00  0.00    +0.000 C 
ATOM     21  C   UNL     1      -2.800  12.220  23.038  0.00  0.00    +0.000 C 
ATOM     22  O   UNL     1      -1.607  11.697  23.619  0.00  0.00    +0.000 OA
ENDBRANCH  10  12
ENDBRANCH   5   8
BRANCH   7  23
ATOM     23  S   UNL     1       6.130   4.718  18.731  0.00  0.00    +0.000 S 
ATOM     24  O   UNL     1       6.929   4.461  17.553  0.00  0.00    +0.000 OA
ATOM     25  O   UNL     1       6.730   5.335  19.896  0.00  0.00    +0.000 OA
BRANCH  23  26
ATOM     26  N   UNL     1       5.479   3.234  19.204  0.00  0.00    +0.000 NA
ATOM     27  H   UNL     1       5.324   3.256  20.214  0.00  0.00    +0.000 HD
BRANCH  26  28
ATOM     28  C   UNL     1       4.330   2.741  18.421  0.00  0.00    +0.000 C 
BRANCH  28  29
ATOM     29  C   UNL     1       2.974   2.877  19.092  0.00  0.00    +0.000 A 
ATOM     30  C   UNL     1       1.815   2.776  18.298  0.00  0.00    +0.000 A 
ATOM     31  C   UNL     1       0.538   2.808  18.865  0.00  0.00    +0.000 A 
ATOM     32  C   UNL     1       0.395   2.938  20.242  0.00  0.00    +0.000 A 
ATOM     33  C   UNL     1       1.530   3.044  21.046  0.00  0.00    +0.000 A 
ATOM     34  C   UNL     1       2.811   3.009  20.477  0.00  0.00    +0.000 A 
ENDBRANCH  28  29
ENDBRANCH  26  28
ENDBRANCH  23  26
ENDBRANCH   7  23
TORSDOF 6
ENDMDL
MODEL 5
REMARK VINA RESULT:      -8.2      1.024      1.300
REMARK  Name = 
REMARK  7 active torsions:
REMARK  status: ('A' for Active; 'I' for Inactive)
REMARK    1  A    between atoms: C_1  and  C_2
REMARK    2  A    between atoms: C_5  and  C_6
REMARK    3  A    between atoms: N_8  and  C_9
REMARK    4  A    between atoms: C_21  and  S_22
REMARK    5  A    between atoms: S_22  and  N_25
REMARK    6  A    between atoms: N_25  and  C_26
REMARK    7  A    between atoms: C_26  and  C_27
REMARK                            x       y       z     vdW  Elec       q    Type
REMARK                         _______ _______ _______ _____ _____    ______ ____
ROOT
ATOM      1  C   UNL     1       2.293   2.795  20.882  0.00  0.00    +0.000 C 
ATOM      2  C   UNL     1       2.303   4.196  20.337  0.00  0.00    +0.000 A 
ATOM      3  C   UNL     1       1.727   5.216  21.123  0.00  0.00    +0.000 A 
ATOM      4  C   UNL     1       1.636   6.530  20.655  0.00  0.00    +0.000 A 
ATOM      5  C   UNL     1       2.119   6.851  19.385  0.00  0.00    +0.000 A 
ATOM      6  C   UNL     1       2.740   5.860  18.610  0.00  0.00    +0.000 A 
ATOM      7  C   UNL     1       2.821   4.536  19.070  0.00  0.00    +0.000 A 
ENDROOT
BRANCH   5   8
ATOM      8  C   UNL     1       1.979   8.248  18.891  0.00  0.00    +0.000 C 
ATOM      9  O   UNL     1       2.536   8.541  17.839  0.00  0.00    +0.000 OA
ATOM     10  N   UNL     1       1.268   9.112  19.716  0.00  0.00    +0.000 N 
ATOM     11  H   UNL     1       1.098   8.817  20.670  0.00  0.00    +0.000 HD
BRANCH  10  12
ATOM     12  C   UNL     1       0.908  10.441  19.398  0.00  0.00    +0.000 A 
ATOM     13  C   UNL     1       1.740  11.279  18.647  0.00  0.00    +0.000 A 
ATOM     14  C   UNL     1       1.359  12.588  18.356  0.00  0.00    +0.000 A 
ATOM     15  C   UNL     1       0.162  13.088  18.853  0.00  0.00    +0.000 A 
ATOM     16  C   UNL     1      -0.687  12.264  19.595  0.00  0.00    +0.000 A 
ATOM     17  C   UNL     1      -0.335  10.928  19.829  0.00  0.00    +0.000 A 
ATOM     18  O   UNL     1      -1.902  12.697  20.055  0.00  0.00    +0.000 OA
ATOM     19  C   UNL     1      -1.768  13.756  21.011  0.00  0.00    +0.000 C 
ATOM     20  C   UNL     1      -1.538  15.124  20.375  0.00  0.00    +0.000 C 
ATOM     21  C   UNL     1      -0.188  15.202  19.681  0.00  0.00    +0.000 C 
ATOM     22  O   UNL     1      -0.157  14.373  18.520  0.00  0.00    +0.000 OA
ENDBRANCH  10  12
ENDBRANCH   5   8
BRANCH   7  23
ATOM     23  S   UNL     1       3.373   3.314  17.877  0.00  0.00    +0.000 S 
ATOM     24  O   UNL     1       4.369   2.497  18.535  0.00  0.00    +0.000 OA
ATOM     25  O   UNL     1       2.192   2.701  17.306  0.00  0.00    +0.000 OA
BRANCH  23  26
ATOM     26  N   UNL     1       4.175   4.149  16.647  0.00  0.00    +0.000 NA
ATOM     27  H   UNL     1       3.845   5.117  16.647  0.00  0.00    +0.000 HD
BRANCH  26  28
ATOM     28  C   UNL     1       5.642   4.006  16.604  0.00  0.00    +0.000 C 
BRANCH  28  29
ATOM     29  C   UNL     1       6.429   5.106  17.295  0.00  0.00    +0.000 A 
ATOM     30  C   UNL     1       6.895   4.881  18.605  0.00  0.00    +0.000 A 
ATOM     31  C   UNL     1       7.696   5.818  19.265  0.00  0.00    +0.000 A 
ATOM     32  C   UNL     1       8.051   6.999  18.623  0.00  0.00    +0.000 A 
ATOM     33  C   UNL     1       7.597   7.243  17.327  0.00  0.00    +0.000 A 
ATOM     34  C   UNL     1       6.796   6.302  16.664  0.00  0.00    +0.000 A 
ENDBRANCH  28  29
ENDBRANCH  26  28
ENDBRANCH  23  26
ENDBRANCH   7  23
TORSDOF 6
ENDMDL
MODEL 6
REMARK VINA RESULT:      -8.0      2.403      3.384
REMARK  Name = 
REMARK  7 active torsions:
REMARK  status: ('A' for Active; 'I' for Inactive)
REMARK    1  A    between atoms: C_1  and  C_2
REMARK    2  A    between atoms: C_5  and  C_6
REMARK    3  A    between atoms: N_8  and  C_9
REMARK    4  A    between atoms: C_21  and  S_22
REMARK    5  A    between atoms: S_22  and  N_25
REMARK    6  A    between atoms: N_25  and  C_26
REMARK    7  A    between atoms: C_26  and  C_27
REMARK                            x       y       z     vdW  Elec       q    Type
REMARK                         _______ _______ _______ _____ _____    ______ ____
ROOT
ATOM      1  C   UNL     1       3.837   3.020  18.821  0.00  0.00    +0.000 C 
ATOM      2  C   UNL     1       3.477   4.474  18.692  0.00  0.00    +0.000 A 
ATOM      3  C   UNL     1       2.117   4.832  18.801  0.00  0.00    +0.000 A 
ATOM      4  C   UNL     1       1.696   6.153  18.621  0.00  0.00    +0.000 A 
ATOM      5  C   UNL     1       2.632   7.147  18.326  0.00  0.00    +0.000 A 
ATOM      6  C   UNL     1       3.994   6.818  18.263  0.00  0.00    +0.000 A 
ATOM      7  C   UNL     1       4.419   5.490  18.428  0.00  0.00    +0.000 A 
ENDROOT
BRANCH   5   8
ATOM      8  C   UNL     1       2.159   8.540  18.102  0.00  0.00    +0.000 C 
ATOM      9  O   UNL     1       2.363   9.043  17.004  0.00  0.00    +0.000 OA
ATOM     10  N   UNL     1       1.577   9.164  19.200  0.00  0.00    +0.000 N 
ATOM     11  H   UNL     1       1.715   8.740  20.110  0.00  0.00    +0.000 HD
BRANCH  10  12
ATOM     12  C   UNL     1       0.952  10.432  19.188  0.00  0.00    +0.000 A 
ATOM     13  C   UNL     1       1.658  11.607  18.913  0.00  0.00    +0.000 A 
ATOM     14  C   UNL     1       1.014  12.844  18.916  0.00  0.00    +0.000 A 
ATOM     15  C   UNL     1      -0.334  12.922  19.241  0.00  0.00    +0.000 A 
ATOM     16  C   UNL     1      -1.058  11.758  19.508  0.00  0.00    +0.000 A 
ATOM     17  C   UNL     1      -0.426  10.510  19.438  0.00  0.00    +0.000 A 
ATOM     18  O   UNL     1      -2.401  11.783  19.777  0.00  0.00    +0.000 OA
ATOM     19  C   UNL     1      -2.694  12.483  20.992  0.00  0.00    +0.000 C 
ATOM     20  C   UNL     1      -2.713  13.999  20.832  0.00  0.00    +0.000 C 
ATOM     21  C   UNL     1      -1.331  14.550  20.518  0.00  0.00    +0.000 C 
ATOM     22  O   UNL     1      -0.906  14.162  19.213  0.00  0.00    +0.000 OA
ENDBRANCH  10  12
ENDBRANCH   5   8
BRANCH   7  23
ATOM     23  S   UNL     1       6.140   5.154  18.042  0.00  0.00    +0.000 S 
ATOM     24  O   UNL     1       6.691   6.362  17.467  0.00  0.00    +0.000 OA
ATOM     25  O   UNL     1       6.743   4.571  19.223  0.00  0.00    +0.000 OA
BRANCH  23  26
ATOM     26  N   UNL     1       6.155   3.990  16.819  0.00  0.00    +0.000 NA
ATOM     27  H   UNL     1       6.056   3.068  17.250  0.00  0.00    +0.000 HD
BRANCH  26  28
ATOM     28  C   UNL     1       5.255   4.228  15.675  0.00  0.00    +0.000 C 
BRANCH  28  29
ATOM     29  C   UNL     1       5.922   4.257  14.311  0.00  0.00    +0.000 A 
ATOM     30  C   UNL     1       7.089   5.028  14.147  0.00  0.00    +0.000 A 
ATOM     31  C   UNL     1       7.798   5.030  12.942  0.00  0.00    +0.000 A 
ATOM     32  C   UNL     1       7.354   4.255  11.876  0.00  0.00    +0.000 A 
ATOM     33  C   UNL     1       6.198   3.487  12.017  0.00  0.00    +0.000 A 
ATOM     34  C   UNL     1       5.489   3.483  13.226  0.00  0.00    +0.000 A 
ENDBRANCH  28  29
ENDBRANCH  26  28
ENDBRANCH  23  26
ENDBRANCH   7  23
TORSDOF 6
ENDMDL
MODEL 7
REMARK VINA RESULT:      -8.0      1.439      2.301
REMARK  Name = 
REMARK  7 active torsions:
REMARK  status: ('A' for Active; 'I' for Inactive)
REMARK    1  A    between atoms: C_1  and  C_2
REMARK    2  A    between atoms: C_5  and  C_6
REMARK    3  A    between atoms: N_8  and  C_9
REMARK    4  A    between atoms: C_21  and  S_22
REMARK    5  A    between atoms: S_22  and  N_25
REMARK    6  A    between atoms: N_25  and  C_26
REMARK    7  A    between atoms: C_26  and  C_27
REMARK                            x       y       z     vdW  Elec       q    Type
REMARK                         _______ _______ _______ _____ _____    ______ ____
ROOT
ATOM      1  C   UNL     1       2.573   2.507  20.607  0.00  0.00    +0.000 C 
ATOM      2  C   UNL     1       2.502   3.952  20.197  0.00  0.00    +0.000 A 
ATOM      3  C   UNL     1       1.952   4.874  21.113  0.00  0.00    +0.000 A 
ATOM      4  C   UNL     1       1.787   6.221  20.778  0.00  0.00    +0.000 A 
ATOM      5  C   UNL     1       2.169   6.675  19.514  0.00  0.00    +0.000 A 
ATOM      6  C   UNL     1       2.763   5.783  18.609  0.00  0.00    +0.000 A 
ATOM      7  C   UNL     1       2.917   4.427  18.936  0.00  0.00    +0.000 A 
ENDROOT
BRANCH   5   8
ATOM      8  C   UNL     1       1.951   8.105  19.164  0.00  0.00    +0.000 C 
ATOM      9  O   UNL     1       2.527   8.546  18.177  0.00  0.00    +0.000 OA
ATOM     10  N   UNL     1       1.149   8.826  20.042  0.00  0.00    +0.000 N 
ATOM     11  H   UNL     1       0.963   8.419  20.951  0.00  0.00    +0.000 HD
BRANCH  10  12
ATOM     12  C   UNL     1       0.710  10.155  19.849  0.00  0.00    +0.000 A 
ATOM     13  C   UNL     1      -0.087  10.527  18.761  0.00  0.00    +0.000 A 
ATOM     14  C   UNL     1      -0.497  11.849  18.595  0.00  0.00    +0.000 A 
ATOM     15  C   UNL     1      -0.076  12.822  19.491  0.00  0.00    +0.000 A 
ATOM     16  C   UNL     1       0.711  12.470  20.589  0.00  0.00    +0.000 A 
ATOM     17  C   UNL     1       1.066  11.130  20.794  0.00  0.00    +0.000 A 
ATOM     18  O   UNL     1       1.101  13.387  21.528  0.00  0.00    +0.000 OA
ATOM     19  C   UNL     1       1.967  14.387  20.977  0.00  0.00    +0.000 C 
ATOM     20  C   UNL     1       1.224  15.490  20.230  0.00  0.00    +0.000 C 
ATOM     21  C   UNL     1       0.561  14.966  18.966  0.00  0.00    +0.000 C 
ATOM     22  O   UNL     1      -0.525  14.094  19.278  0.00  0.00    +0.000 OA
ENDBRANCH  10  12
ENDBRANCH   5   8
BRANCH   7  23
ATOM     23  S   UNL     1       3.421   3.340  17.598  0.00  0.00    +0.000 S 
ATOM     24  O   UNL     1       4.540   2.561  18.081  0.00  0.00    +0.000 OA
ATOM     25  O   UNL     1       2.230   2.677  17.107  0.00  0.00    +0.000 OA
BRANCH  23  26
ATOM     26  N   UNL     1       4.018   4.322  16.361  0.00  0.00    +0.000 NA
ATOM     27  H   UNL     1       3.597   5.250  16.453  0.00  0.00    +0.000 HD
BRANCH  26  28
ATOM     28  C   UNL     1       5.483   4.334  16.181  0.00  0.00    +0.000 C 
BRANCH  28  29
ATOM     29  C   UNL     1       5.966   4.301  14.742  0.00  0.00    +0.000 A 
ATOM     30  C   UNL     1       7.141   5.003  14.408  0.00  0.00    +0.000 A 
ATOM     31  C   UNL     1       7.685   4.943  13.121  0.00  0.00    +0.000 A 
ATOM     32  C   UNL     1       7.065   4.174  12.142  0.00  0.00    +0.000 A 
ATOM     33  C   UNL     1       5.899   3.474  12.451  0.00  0.00    +0.000 A 
ATOM     34  C   UNL     1       5.355   3.532  13.743  0.00  0.00    +0.000 A 
ENDBRANCH  28  29
ENDBRANCH  26  28
ENDBRANCH  23  26
ENDBRANCH   7  23
TORSDOF 6
ENDMDL
MODEL 8
REMARK VINA RESULT:      -8.0      2.147      2.853
REMARK  Name = 
REMARK  7 active torsions:
REMARK  status: ('A' for Active; 'I' for Inactive)
REMARK    1  A    between atoms: C_1  and  C_2
REMARK    2  A    between atoms: C_5  and  C_6
REMARK    3  A    between atoms: N_8  and  C_9
REMARK    4  A    between atoms: C_21  and  S_22
REMARK    5  A    between atoms: S_22  and  N_25
REMARK    6  A    between atoms: N_25  and  C_26
REMARK    7  A    between atoms: C_26  and  C_27
REMARK                            x       y       z     vdW  Elec       q    Type
REMARK                         _______ _______ _______ _____ _____    ______ ____
ROOT
ATOM      1  C   UNL     1       4.508   2.576  19.605  0.00  0.00    +0.000 C 
ATOM      2  C   UNL     1       3.795   3.882  19.824  0.00  0.00    +0.000 A 
ATOM      3  C   UNL     1       2.538   3.851  20.464  0.00  0.00    +0.000 A 
ATOM      4  C   UNL     1       1.783   5.014  20.639  0.00  0.00    +0.000 A 
ATOM      5  C   UNL     1       2.271   6.237  20.174  0.00  0.00    +0.000 A 
ATOM      6  C   UNL     1       3.540   6.294  19.579  0.00  0.00    +0.000 A 
ATOM      7  C   UNL     1       4.295   5.126  19.388  0.00  0.00    +0.000 A 
ENDROOT
BRANCH   5   8
ATOM      8  C   UNL     1       1.434   7.457  20.337  0.00  0.00    +0.000 C 
ATOM      9  O   UNL     1       0.685   7.511  21.306  0.00  0.00    +0.000 OA
ATOM     10  N   UNL     1       1.544   8.403  19.324  0.00  0.00    +0.000 N 
ATOM     11  H   UNL     1       1.985   8.117  18.459  0.00  0.00    +0.000 HD
BRANCH  10  12
ATOM     12  C   UNL     1       0.942   9.682  19.328  0.00  0.00    +0.000 A 
ATOM     13  C   UNL     1      -0.078  10.028  18.435  0.00  0.00    +0.000 A 
ATOM     14  C   UNL     1      -0.647  11.301  18.459  0.00  0.00    +0.000 A 
ATOM     15  C   UNL     1      -0.168  12.256  19.346  0.00  0.00    +0.000 A 
ATOM     16  C   UNL     1       0.843  11.928  20.251  0.00  0.00    +0.000 A 
ATOM     17  C   UNL     1       1.366  10.628  20.273  0.00  0.00    +0.000 A 
ATOM     18  O   UNL     1       1.305  12.821  21.180  0.00  0.00    +0.000 OA
ATOM     19  C   UNL     1       1.945  13.949  20.571  0.00  0.00    +0.000 C 
ATOM     20  C   UNL     1       0.966  15.003  20.065  0.00  0.00    +0.000 C 
ATOM     21  C   UNL     1       0.135  14.490  18.900  0.00  0.00    +0.000 C 
ATOM     22  O   UNL     1      -0.777  13.479  19.326  0.00  0.00    +0.000 OA
ENDBRANCH  10  12
ENDBRANCH   5   8
BRANCH   7  23
ATOM     23  S   UNL     1       5.762   5.289  18.366  0.00  0.00    +0.000 S 
ATOM     24  O   UNL     1       5.629   6.524  17.624  0.00  0.00    +0.000 OA
ATOM     25  O   UNL     1       6.912   5.075  19.220  0.00  0.00    +0.000 OA
BRANCH  23  26
ATOM     26  N   UNL     1       5.716   4.040  17.231  0.00  0.00    +0.000 NA
ATOM     27  H   UNL     1       5.414   3.185  17.704  0.00  0.00    +0.000 HD
BRANCH  26  28
ATOM     28  C   UNL     1       5.002   4.323  15.971  0.00  0.00    +0.000 C 
BRANCH  28  29
ATOM     29  C   UNL     1       5.855   4.298  14.715  0.00  0.00    +0.000 A 
ATOM     30  C   UNL     1       5.400   3.561  13.604  0.00  0.00    +0.000 A 
ATOM     31  C   UNL     1       6.095   3.566  12.391  0.00  0.00    +0.000 A 
ATOM     32  C   UNL     1       7.259   4.316  12.264  0.00  0.00    +0.000 A 
ATOM     33  C   UNL     1       7.729   5.051  13.353  0.00  0.00    +0.000 A 
ATOM     34  C   UNL     1       7.030   5.047  14.568  0.00  0.00    +0.000 A 
ENDBRANCH  28  29
ENDBRANCH  26  28
ENDBRANCH  23  26
ENDBRANCH   7  23
TORSDOF 6
ENDMDL
MODEL 9
REMARK VINA RESULT:      -8.0      3.698      9.999
REMARK  Name = 
REMARK  7 active torsions:
REMARK  status: ('A' for Active; 'I' for Inactive)
REMARK    1  A    between atoms: C_1  and  C_2
REMARK    2  A    between atoms: C_5  and  C_6
REMARK    3  A    between atoms: N_8  and  C_9
REMARK    4  A    between atoms: C_21  and  S_22
REMARK    5  A    between atoms: S_22  and  N_25
REMARK    6  A    between atoms: N_25  and  C_26
REMARK    7  A    between atoms: C_26  and  C_27
REMARK                            x       y       z     vdW  Elec       q    Type
REMARK                         _______ _______ _______ _____ _____    ______ ____
ROOT
ATOM      1  C   UNL     1      -1.308  12.139  22.895  0.00  0.00    +0.000 C 
ATOM      2  C   UNL     1      -0.647  10.989  22.187  0.00  0.00    +0.000 A 
ATOM      3  C   UNL     1      -0.182   9.910  22.968  0.00  0.00    +0.000 A 
ATOM      4  C   UNL     1       0.505   8.838  22.392  0.00  0.00    +0.000 A 
ATOM      5  C   UNL     1       0.745   8.826  21.016  0.00  0.00    +0.000 A 
ATOM      6  C   UNL     1       0.248   9.866  20.218  0.00  0.00    +0.000 A 
ATOM      7  C   UNL     1      -0.431  10.951  20.794  0.00  0.00    +0.000 A 
ENDROOT
BRANCH   5   8
ATOM      8  C   UNL     1       1.512   7.694  20.427  0.00  0.00    +0.000 C 
ATOM      9  O   UNL     1       1.552   6.642  21.055  0.00  0.00    +0.000 OA
ATOM     10  N   UNL     1       2.168   7.967  19.232  0.00  0.00    +0.000 N 
ATOM     11  H   UNL     1       2.276   8.938  18.966  0.00  0.00    +0.000 HD
BRANCH  10  12
ATOM     12  C   UNL     1       2.851   7.020  18.436  0.00  0.00    +0.000 A 
ATOM     13  C   UNL     1       2.408   5.700  18.303  0.00  0.00    +0.000 A 
ATOM     14  C   UNL     1       3.109   4.787  17.516  0.00  0.00    +0.000 A 
ATOM     15  C   UNL     1       4.287   5.173  16.891  0.00  0.00    +0.000 A 
ATOM     16  C   UNL     1       4.741   6.489  17.004  0.00  0.00    +0.000 A 
ATOM     17  C   UNL     1       4.000   7.423  17.738  0.00  0.00    +0.000 A 
ATOM     18  O   UNL     1       5.867   6.927  16.359  0.00  0.00    +0.000 OA
ATOM     19  C   UNL     1       7.048   6.269  16.831  0.00  0.00    +0.000 C 
ATOM     20  C   UNL     1       7.258   4.885  16.225  0.00  0.00    +0.000 C 
ATOM     21  C   UNL     1       6.190   3.903  16.679  0.00  0.00    +0.000 C 
ATOM     22  O   UNL     1       4.917   4.234  16.125  0.00  0.00    +0.000 OA
ENDBRANCH  10  12
ENDBRANCH   5   8
BRANCH   7  23
ATOM     23  S   UNL     1      -0.761  12.346  19.713  0.00  0.00    +0.000 S 
ATOM     24  O   UNL     1      -0.039  13.480  20.248  0.00  0.00    +0.000 OA
ATOM     25  O   UNL     1      -0.522  11.907  18.354  0.00  0.00    +0.000 OA
BRANCH  23  26
ATOM     26  N   UNL     1      -2.403  12.710  19.862  0.00  0.00    +0.000 NA
ATOM     27  H   UNL     1      -2.500  13.721  19.981  0.00  0.00    +0.000 HD
BRANCH  26  28
ATOM     28  C   UNL     1      -3.301  12.128  18.846  0.00  0.00    +0.000 C 
BRANCH  28  29
ATOM     29  C   UNL     1      -4.749  11.961  19.269  0.00  0.00    +0.000 A 
ATOM     30  C   UNL     1      -5.616  11.228  18.435  0.00  0.00    +0.000 A 
ATOM     31  C   UNL     1      -6.938  10.966  18.808  0.00  0.00    +0.000 A 
ATOM     32  C   UNL     1      -7.418  11.431  20.027  0.00  0.00    +0.000 A 
ATOM     33  C   UNL     1      -6.578  12.161  20.867  0.00  0.00    +0.000 A 
ATOM     34  C   UNL     1      -5.251  12.421  20.494  0.00  0.00    +0.000 A 
ENDBRANCH  28  29
ENDBRANCH  26  28
ENDBRANCH  23  26
ENDBRANCH   7  23
TORSDOF 6
ENDMDL
