MODEL 1
REMARK VINA RESULT:      -8.7      0.000      0.000
REMARK  Name = 
REMARK  5 active torsions:
REMARK  status: ('A' for Active; 'I' for Inactive)
REMARK    1  A    between atoms: C_1  and  N_2
REMARK    2  A    between atoms: C_6  and  C_7
REMARK    3  A    between atoms: C_7  and  C_8
REMARK    4  A    between atoms: C_8  and  C_9
REMARK    5  A    between atoms: C_13  and  N_14
REMARK                            x       y       z     vdW  Elec       q    Type
REMARK                         _______ _______ _______ _____ _____    ______ ____
ROOT
ATOM      1  C   UNL     1       5.480   6.212  18.012  0.00  0.00    +0.000 A 
ATOM      2  C   UNL     1       4.668   7.179  17.394  0.00  0.00    +0.000 A 
ATOM      3  C   UNL     1       3.286   7.199  17.572  0.00  0.00    +0.000 A 
ATOM      4  C   UNL     1       2.672   6.253  18.391  0.00  0.00    +0.000 A 
ATOM      5  C   UNL     1       3.428   5.296  19.069  0.00  0.00    +0.000 A 
ATOM      6  C   UNL     1       4.821   5.303  18.869  0.00  0.00    +0.000 A 
ENDROOT
BRANCH   5   7
ATOM      7  N   UNL     1       2.831   4.325  19.915  0.00  0.00    +0.000 N 
ATOM      8  C   UNL     1       2.118   4.669  21.109  0.00  0.00    +0.000 C 
ATOM      9  C   UNL     1       1.708   3.346  21.629  0.00  0.00    +0.000 C 
ATOM     10  C   UNL     1       2.146   2.303  20.901  0.00  0.00    +0.000 C 
ATOM     11  O   UNL     1       2.591   2.480  22.195  0.00  0.00    +0.000 OA
ATOM     12  C   UNL     1       2.787   2.948  19.722  0.00  0.00    +0.000 C 
ATOM     13  O   UNL     1       3.160   2.284  18.767  0.00  0.00    +0.000 OA
ENDBRANCH   5   7
BRANCH   1  14
ATOM     14  C   UNL     1       7.074   6.135  17.745  0.00  0.00    +0.000 C 
ATOM     15  C   UNL     1       7.769   7.399  17.110  0.00  0.00    +0.000 C 
ATOM     16  C   UNL     1       8.213   7.843  18.507  0.00  0.00    +0.000 C 
ATOM     17  C   UNL     1       7.975   6.415  19.010  0.00  0.00    +0.000 C 
BRANCH  14  18
ATOM     18  C   UNL     1       7.440   4.791  17.069  0.00  0.00    +0.000 C 
BRANCH  18  24
ATOM     19  C   UNL     1       4.839   3.382  15.973  0.00  0.00    +0.000 C 
ATOM     20  N   UNL     1       5.869   4.025  15.203  0.00  0.00    +0.000 N 
ATOM     21  C   UNL     1       5.908   4.087  13.843  0.00  0.00    +0.000 A 
ATOM     22  N   UNL     1       6.974   4.746  13.462  0.00  0.00    +0.000 NA
ATOM     23  N   UNL     1       7.657   5.112  14.596  0.00  0.00    +0.000 NA
ATOM     24  C   UNL     1       6.995   4.675  15.650  0.00  0.00    +0.000 A 
ENDBRANCH  18  24
ENDBRANCH  14  18
ENDBRANCH   1  14
TORSDOF 4
ENDMDL
MODEL 2
REMARK VINA RESULT:      -8.2      3.074      6.903
REMARK  Name = 
REMARK  5 active torsions:
REMARK  status: ('A' for Active; 'I' for Inactive)
REMARK    1  A    between atoms: C_1  and  N_2
REMARK    2  A    between atoms: C_6  and  C_7
REMARK    3  A    between atoms: C_7  and  C_8
REMARK    4  A    between atoms: C_8  and  C_9
REMARK    5  A    between atoms: C_13  and  N_14
REMARK                            x       y       z     vdW  Elec       q    Type
REMARK                         _______ _______ _______ _____ _____    ______ ____
ROOT
ATOM      1  C   UNL     1       4.692   5.170  17.640  0.00  0.00    +0.000 A 
ATOM      2  C   UNL     1       5.839   5.200  18.453  0.00  0.00    +0.000 A 
ATOM      3  C   UNL     1       7.109   4.951  17.937  0.00  0.00    +0.000 A 
ATOM      4  C   UNL     1       7.274   4.678  16.580  0.00  0.00    +0.000 A 
ATOM      5  C   UNL     1       6.180   4.680  15.713  0.00  0.00    +0.000 A 
ATOM      6  C   UNL     1       4.911   4.935  16.265  0.00  0.00    +0.000 A 
ENDROOT
BRANCH   5   7
ATOM      7  N   UNL     1       6.317   4.411  14.326  0.00  0.00    +0.000 N 
ATOM      8  C   UNL     1       5.378   3.615  13.593  0.00  0.00    +0.000 C 
ATOM      9  C   UNL     1       5.951   3.621  12.229  0.00  0.00    +0.000 C 
ATOM     10  C   UNL     1       7.118   4.280  12.119  0.00  0.00    +0.000 C 
ATOM     11  O   UNL     1       7.068   2.918  11.905  0.00  0.00    +0.000 OA
ATOM     12  C   UNL     1       7.301   4.888  13.467  0.00  0.00    +0.000 C 
ATOM     13  O   UNL     1       8.195   5.693  13.677  0.00  0.00    +0.000 OA
ENDBRANCH   5   7
BRANCH   1  14
ATOM     14  C   UNL     1       3.206   5.377  18.248  0.00  0.00    +0.000 C 
ATOM     15  C   UNL     1       3.073   6.213  19.577  0.00  0.00    +0.000 C 
ATOM     16  C   UNL     1       2.704   7.449  18.750  0.00  0.00    +0.000 C 
ATOM     17  C   UNL     1       2.366   6.529  17.572  0.00  0.00    +0.000 C 
BRANCH  14  18
ATOM     18  C   UNL     1       2.436   4.034  18.251  0.00  0.00    +0.000 C 
BRANCH  18  24
ATOM     19  C   UNL     1       4.347   2.310  20.076  0.00  0.00    +0.000 C 
ATOM     20  N   UNL     1       2.998   2.715  20.368  0.00  0.00    +0.000 N 
ATOM     21  C   UNL     1       2.301   2.369  21.485  0.00  0.00    +0.000 A 
ATOM     22  N   UNL     1       1.107   2.906  21.443  0.00  0.00    +0.000 NA
ATOM     23  N   UNL     1       1.013   3.607  20.266  0.00  0.00    +0.000 NA
ATOM     24  C   UNL     1       2.152   3.492  19.611  0.00  0.00    +0.000 A 
ENDBRANCH  18  24
ENDBRANCH  14  18
ENDBRANCH   1  14
TORSDOF 4
ENDMDL
MODEL 3
REMARK VINA RESULT:      -8.1      3.151      7.080
REMARK  Name = 
REMARK  5 active torsions:
REMARK  status: ('A' for Active; 'I' for Inactive)
REMARK    1  A    between atoms: C_1  and  N_2
REMARK    2  A    between atoms: C_6  and  C_7
REMARK    3  A    between atoms: C_7  and  C_8
REMARK    4  A    between atoms: C_8  and  C_9
REMARK    5  A    between atoms: C_13  and  N_14
REMARK                            x       y       z     vdW  Elec       q    Type
REMARK                         _______ _______ _______ _____ _____    ______ ____
ROOT
ATOM      1  C   UNL     1       5.180   4.675  17.694  0.00  0.00    +0.000 A 
ATOM      2  C   UNL     1       6.362   5.010  18.378  0.00  0.00    +0.000 A 
ATOM      3  C   UNL     1       7.587   5.105  17.722  0.00  0.00    +0.000 A 
ATOM      4  C   UNL     1       7.666   4.881  16.348  0.00  0.00    +0.000 A 
ATOM      5  C   UNL     1       6.521   4.590  15.605  0.00  0.00    +0.000 A 
ATOM      6  C   UNL     1       5.298   4.502  16.297  0.00  0.00    +0.000 A 
ENDROOT
BRANCH   5   7
ATOM      7  N   UNL     1       6.569   4.363  14.204  0.00  0.00    +0.000 N 
ATOM      8  C   UNL     1       5.614   3.545  13.518  0.00  0.00    +0.000 C 
ATOM      9  C   UNL     1       6.086   3.611  12.117  0.00  0.00    +0.000 C 
ATOM     10  C   UNL     1       7.213   4.323  11.944  0.00  0.00    +0.000 C 
ATOM     11  O   UNL     1       7.205   2.965  11.695  0.00  0.00    +0.000 OA
ATOM     12  C   UNL     1       7.467   4.904  13.291  0.00  0.00    +0.000 C 
ATOM     13  O   UNL     1       8.339   5.742  13.461  0.00  0.00    +0.000 OA
ENDBRANCH   5   7
BRANCH   1  14
ATOM     14  C   UNL     1       3.769   4.484  18.464  0.00  0.00    +0.000 C 
ATOM     15  C   UNL     1       3.441   5.479  19.641  0.00  0.00    +0.000 C 
ATOM     16  C   UNL     1       2.590   6.317  18.682  0.00  0.00    +0.000 C 
ATOM     17  C   UNL     1       2.522   5.116  17.733  0.00  0.00    +0.000 C 
BRANCH  14  18
ATOM     18  C   UNL     1       3.540   2.990  18.799  0.00  0.00    +0.000 C 
BRANCH  18  24
ATOM     19  C   UNL     1       0.430   2.796  19.289  0.00  0.00    +0.000 C 
ATOM     20  N   UNL     1       1.473   2.704  20.275  0.00  0.00    +0.000 N 
ATOM     21  C   UNL     1       1.274   2.562  21.615  0.00  0.00    +0.000 A 
ATOM     22  N   UNL     1       2.430   2.506  22.229  0.00  0.00    +0.000 NA
ATOM     23  N   UNL     1       3.409   2.628  21.272  0.00  0.00    +0.000 NA
ATOM     24  C   UNL     1       2.834   2.751  20.091  0.00  0.00    +0.000 A 
ENDBRANCH  18  24
ENDBRANCH  14  18
ENDBRANCH   1  14
TORSDOF 4
ENDMDL
MODEL 4
REMARK VINA RESULT:      -8.1      1.875      3.445
REMARK  Name = 
REMARK  5 active torsions:
REMARK  status: ('A' for Active; 'I' for Inactive)
REMARK    1  A    between atoms: C_1  and  N_2
REMARK    2  A    between atoms: C_6  and  C_7
REMARK    3  A    between atoms: C_7  and  C_8
REMARK    4  A    between atoms: C_8  and  C_9
REMARK    5  A    between atoms: C_13  and  N_14
REMARK                            x       y       z     vdW  Elec       q    Type
REMARK                         _______ _______ _______ _____ _____    ______ ____
ROOT
ATOM      1  C   UNL     1       4.799   5.720  16.674  0.00  0.00    +0.000 A 
ATOM      2  C   UNL     1       4.495   7.092  16.647  0.00  0.00    +0.000 A 
ATOM      3  C   UNL     1       3.486   7.636  17.439  0.00  0.00    +0.000 A 
ATOM      4  C   UNL     1       2.754   6.819  18.300  0.00  0.00    +0.000 A 
ATOM      5  C   UNL     1       3.039   5.456  18.406  0.00  0.00    +0.000 A 
ATOM      6  C   UNL     1       4.064   4.938  17.593  0.00  0.00    +0.000 A 
ENDROOT
BRANCH   5   7
ATOM      7  N   UNL     1       2.315   4.601  19.278  0.00  0.00    +0.000 N 
ATOM      8  C   UNL     1       2.375   4.717  20.705  0.00  0.00    +0.000 C 
ATOM      9  C   UNL     1       1.482   3.626  21.152  0.00  0.00    +0.000 C 
ATOM     10  C   UNL     1       0.969   2.884  20.154  0.00  0.00    +0.000 C 
ATOM     11  O   UNL     1       1.834   2.315  21.067  0.00  0.00    +0.000 OA
ATOM     12  C   UNL     1       1.428   3.590  18.926  0.00  0.00    +0.000 C 
ATOM     13  O   UNL     1       1.009   3.271  17.823  0.00  0.00    +0.000 OA
ENDBRANCH   5   7
BRANCH   1  14
ATOM     14  C   UNL     1       5.914   5.070  15.698  0.00  0.00    +0.000 C 
ATOM     15  C   UNL     1       5.842   3.517  15.441  0.00  0.00    +0.000 C 
ATOM     16  C   UNL     1       5.111   3.780  14.121  0.00  0.00    +0.000 C 
ATOM     17  C   UNL     1       5.619   5.225  14.155  0.00  0.00    +0.000 C 
BRANCH  14  18
ATOM     18  C   UNL     1       7.322   5.598  16.067  0.00  0.00    +0.000 C 
BRANCH  18  24
ATOM     19  C   UNL     1       7.849   8.197  17.776  0.00  0.00    +0.000 C 
ATOM     20  N   UNL     1       7.837   6.837  18.243  0.00  0.00    +0.000 N 
ATOM     21  C   UNL     1       8.106   6.444  19.519  0.00  0.00    +0.000 A 
ATOM     22  N   UNL     1       8.006   5.142  19.610  0.00  0.00    +0.000 NA
ATOM     23  N   UNL     1       7.679   4.667  18.363  0.00  0.00    +0.000 NA
ATOM     24  C   UNL     1       7.580   5.688  17.534  0.00  0.00    +0.000 A 
ENDBRANCH  18  24
ENDBRANCH  14  18
ENDBRANCH   1  14
TORSDOF 4
ENDMDL
MODEL 5
REMARK VINA RESULT:      -8.0      1.138      1.571
REMARK  Name = 
REMARK  5 active torsions:
REMARK  status: ('A' for Active; 'I' for Inactive)
REMARK    1  A    between atoms: C_1  and  N_2
REMARK    2  A    between atoms: C_6  and  C_7
REMARK    3  A    between atoms: C_7  and  C_8
REMARK    4  A    between atoms: C_8  and  C_9
REMARK    5  A    between atoms: C_13  and  N_14
REMARK                            x       y       z     vdW  Elec       q    Type
REMARK                         _______ _______ _______ _____ _____    ______ ____
ROOT
ATOM      1  C   UNL     1       5.438   6.218  17.859  0.00  0.00    +0.000 A 
ATOM      2  C   UNL     1       4.767   7.401  17.504  0.00  0.00    +0.000 A 
ATOM      3  C   UNL     1       3.378   7.502  17.559  0.00  0.00    +0.000 A 
ATOM      4  C   UNL     1       2.614   6.418  17.988  0.00  0.00    +0.000 A 
ATOM      5  C   UNL     1       3.224   5.231  18.399  0.00  0.00    +0.000 A 
ATOM      6  C   UNL     1       4.627   5.162  18.332  0.00  0.00    +0.000 A 
ENDROOT
BRANCH   5   7
ATOM      7  N   UNL     1       2.472   4.113  18.847  0.00  0.00    +0.000 N 
ATOM      8  C   UNL     1       2.507   2.841  18.189  0.00  0.00    +0.000 C 
ATOM      9  C   UNL     1       1.574   2.034  19.006  0.00  0.00    +0.000 C 
ATOM     10  C   UNL     1       0.984   2.711  20.008  0.00  0.00    +0.000 C 
ATOM     11  O   UNL     1       0.227   2.215  18.966  0.00  0.00    +0.000 OA
ATOM     12  C   UNL     1       1.654   4.040  19.969  0.00  0.00    +0.000 C 
ATOM     13  O   UNL     1       1.468   4.864  20.851  0.00  0.00    +0.000 OA
ENDBRANCH   5   7
BRANCH   1  14
ATOM     14  C   UNL     1       7.043   6.069  17.720  0.00  0.00    +0.000 C 
ATOM     15  C   UNL     1       7.850   7.323  17.212  0.00  0.00    +0.000 C 
ATOM     16  C   UNL     1       8.196   7.674  18.663  0.00  0.00    +0.000 C 
ATOM     17  C   UNL     1       7.846   6.239  19.068  0.00  0.00    +0.000 C 
BRANCH  14  18
ATOM     18  C   UNL     1       7.399   4.742  17.006  0.00  0.00    +0.000 C 
BRANCH  18  24
ATOM     19  C   UNL     1       5.152   3.126  15.492  0.00  0.00    +0.000 C 
ATOM     20  N   UNL     1       6.141   3.993  14.910  0.00  0.00    +0.000 N 
ATOM     21  C   UNL     1       6.297   4.220  13.576  0.00  0.00    +0.000 A 
ATOM     22  N   UNL     1       7.283   5.061  13.385  0.00  0.00    +0.000 NA
ATOM     23  N   UNL     1       7.795   5.381  14.618  0.00  0.00    +0.000 NA
ATOM     24  C   UNL     1       7.111   4.735  15.542  0.00  0.00    +0.000 A 
ENDBRANCH  18  24
ENDBRANCH  14  18
ENDBRANCH   1  14
TORSDOF 4
ENDMDL
MODEL 6
REMARK VINA RESULT:      -8.0      3.227      6.861
REMARK  Name = 
REMARK  5 active torsions:
REMARK  status: ('A' for Active; 'I' for Inactive)
REMARK    1  A    between atoms: C_1  and  N_2
REMARK    2  A    between atoms: C_6  and  C_7
REMARK    3  A    between atoms: C_7  and  C_8
REMARK    4  A    between atoms: C_8  and  C_9
REMARK    5  A    between atoms: C_13  and  N_14
REMARK                            x       y       z     vdW  Elec       q    Type
REMARK                         _______ _______ _______ _____ _____    ______ ____
ROOT
ATOM      1  C   UNL     1       4.706   4.758  17.887  0.00  0.00    +0.000 A 
ATOM      2  C   UNL     1       5.884   4.886  18.644  0.00  0.00    +0.000 A 
ATOM      3  C   UNL     1       7.145   4.799  18.057  0.00  0.00    +0.000 A 
ATOM      4  C   UNL     1       7.266   4.596  16.683  0.00  0.00    +0.000 A 
ATOM      5  C   UNL     1       6.135   4.508  15.871  0.00  0.00    +0.000 A 
ATOM      6  C   UNL     1       4.876   4.600  16.494  0.00  0.00    +0.000 A 
ENDROOT
BRANCH   5   7
ATOM      7  N   UNL     1       6.227   4.307  14.469  0.00  0.00    +0.000 N 
ATOM      8  C   UNL     1       5.265   3.546  13.729  0.00  0.00    +0.000 C 
ATOM      9  C   UNL     1       5.793   3.619  12.349  0.00  0.00    +0.000 C 
ATOM     10  C   UNL     1       6.956   4.284  12.234  0.00  0.00    +0.000 C 
ATOM     11  O   UNL     1       6.900   2.934  11.955  0.00  0.00    +0.000 OA
ATOM     12  C   UNL     1       7.182   4.827  13.603  0.00  0.00    +0.000 C 
ATOM     13  O   UNL     1       8.083   5.622  13.823  0.00  0.00    +0.000 OA
ENDBRANCH   5   7
BRANCH   1  14
ATOM     14  C   UNL     1       3.241   4.778  18.574  0.00  0.00    +0.000 C 
ATOM     15  C   UNL     1       1.991   4.597  17.631  0.00  0.00    +0.000 C 
ATOM     16  C   UNL     1       1.939   3.112  18.002  0.00  0.00    +0.000 C 
ATOM     17  C   UNL     1       2.798   3.415  19.235  0.00  0.00    +0.000 C 
BRANCH  14  18
ATOM     18  C   UNL     1       3.131   5.958  19.570  0.00  0.00    +0.000 C 
BRANCH  18  24
ATOM     19  C   UNL     1       1.290   8.161  20.877  0.00  0.00    +0.000 C 
ATOM     20  N   UNL     1       1.836   8.162  19.547  0.00  0.00    +0.000 N 
ATOM     21  C   UNL     1       1.600   9.115  18.603  0.00  0.00    +0.000 A 
ATOM     22  N   UNL     1       2.250   8.820  17.505  0.00  0.00    +0.000 NA
ATOM     23  N   UNL     1       2.917   7.640  17.728  0.00  0.00    +0.000 NA
ATOM     24  C   UNL     1       2.666   7.237  18.959  0.00  0.00    +0.000 A 
ENDBRANCH  18  24
ENDBRANCH  14  18
ENDBRANCH   1  14
TORSDOF 4
ENDMDL
MODEL 7
REMARK VINA RESULT:      -7.9      3.852      5.867
REMARK  Name = 
REMARK  5 active torsions:
REMARK  status: ('A' for Active; 'I' for Inactive)
REMARK    1  A    between atoms: C_1  and  N_2
REMARK    2  A    between atoms: C_6  and  C_7
REMARK    3  A    between atoms: C_7  and  C_8
REMARK    4  A    between atoms: C_8  and  C_9
REMARK    5  A    between atoms: C_13  and  N_14
REMARK                            x       y       z     vdW  Elec       q    Type
REMARK                         _______ _______ _______ _____ _____    ______ ____
ROOT
ATOM      1  C   UNL     1       2.571   7.300  18.521  0.00  0.00    +0.000 A 
ATOM      2  C   UNL     1       2.557   8.335  17.569  0.00  0.00    +0.000 A 
ATOM      3  C   UNL     1       1.930   9.554  17.820  0.00  0.00    +0.000 A 
ATOM      4  C   UNL     1       1.306   9.781  19.046  0.00  0.00    +0.000 A 
ATOM      5  C   UNL     1       1.326   8.811  20.049  0.00  0.00    +0.000 A 
ATOM      6  C   UNL     1       1.968   7.591  19.765  0.00  0.00    +0.000 A 
ENDROOT
BRANCH   5   7
ATOM      7  N   UNL     1       0.705   9.017  21.309  0.00  0.00    +0.000 N 
ATOM      8  C   UNL     1      -0.701   8.838  21.520  0.00  0.00    +0.000 C 
ATOM      9  C   UNL     1      -0.854   9.174  22.953  0.00  0.00    +0.000 C 
ATOM     10  C   UNL     1       0.283   9.564  23.556  0.00  0.00    +0.000 C 
ATOM     11  O   UNL     1      -0.767  10.449  23.416  0.00  0.00    +0.000 OA
ATOM     12  C   UNL     1       1.321   9.357  22.508  0.00  0.00    +0.000 C 
ATOM     13  O   UNL     1       2.509   9.467  22.770  0.00  0.00    +0.000 OA
ENDBRANCH   5   7
BRANCH   1  14
ATOM     14  C   UNL     1       3.227   5.855  18.205  0.00  0.00    +0.000 C 
ATOM     15  C   UNL     1       4.386   5.798  17.138  0.00  0.00    +0.000 C 
ATOM     16  C   UNL     1       5.415   5.808  18.272  0.00  0.00    +0.000 C 
ATOM     17  C   UNL     1       4.312   5.375  19.244  0.00  0.00    +0.000 C 
BRANCH  14  18
ATOM     18  C   UNL     1       2.117   4.794  18.007  0.00  0.00    +0.000 C 
BRANCH  18  24
ATOM     19  C   UNL     1       3.170   1.853  18.444  0.00  0.00    +0.000 C 
ATOM     20  N   UNL     1       2.340   2.621  19.333  0.00  0.00    +0.000 N 
ATOM     21  C   UNL     1       1.827   2.169  20.512  0.00  0.00    +0.000 A 
ATOM     22  N   UNL     1       1.120   3.116  21.076  0.00  0.00    +0.000 NA
ATOM     23  N   UNL     1       1.159   4.209  20.245  0.00  0.00    +0.000 NA
ATOM     24  C   UNL     1       1.892   3.912  19.189  0.00  0.00    +0.000 A 
ENDBRANCH  18  24
ENDBRANCH  14  18
ENDBRANCH   1  14
TORSDOF 4
ENDMDL
MODEL 8
REMARK VINA RESULT:      -7.9      1.598      3.174
REMARK  Name = 
REMARK  5 active torsions:
REMARK  status: ('A' for Active; 'I' for Inactive)
REMARK    1  A    between atoms: C_1  and  N_2
REMARK    2  A    between atoms: C_6  and  C_7
REMARK    3  A    between atoms: C_7  and  C_8
REMARK    4  A    between atoms: C_8  and  C_9
REMARK    5  A    between atoms: C_13  and  N_14
REMARK                            x       y       z     vdW  Elec       q    Type
REMARK                         _______ _______ _______ _____ _____    ______ ____
ROOT
ATOM      1  C   UNL     1       4.762   5.342  17.012  0.00  0.00    +0.000 A 
ATOM      2  C   UNL     1       4.325   6.670  16.861  0.00  0.00    +0.000 A 
ATOM      3  C   UNL     1       3.269   7.184  17.610  0.00  0.00    +0.000 A 
ATOM      4  C   UNL     1       2.622   6.384  18.552  0.00  0.00    +0.000 A 
ATOM      5  C   UNL     1       3.040   5.072  18.782  0.00  0.00    +0.000 A 
ATOM      6  C   UNL     1       4.109   4.583  18.010  0.00  0.00    +0.000 A 
ENDROOT
BRANCH   5   7
ATOM      7  N   UNL     1       2.406   4.237  19.738  0.00  0.00    +0.000 N 
ATOM      8  C   UNL     1       2.228   4.620  21.107  0.00  0.00    +0.000 C 
ATOM      9  C   UNL     1       1.546   3.441  21.683  0.00  0.00    +0.000 C 
ATOM     10  C   UNL     1       1.364   2.427  20.819  0.00  0.00    +0.000 C 
ATOM     11  O   UNL     1       2.191   2.266  21.913  0.00  0.00    +0.000 OA
ATOM     12  C   UNL     1       1.829   2.990  19.521  0.00  0.00    +0.000 C 
ATOM     13  O   UNL     1       1.660   2.383  18.475  0.00  0.00    +0.000 OA
ENDBRANCH   5   7
BRANCH   1  14
ATOM     14  C   UNL     1       5.934   4.715  16.089  0.00  0.00    +0.000 C 
ATOM     15  C   UNL     1       5.634   3.352  15.357  0.00  0.00    +0.000 C 
ATOM     16  C   UNL     1       5.298   4.125  14.078  0.00  0.00    +0.000 C 
ATOM     17  C   UNL     1       6.045   5.337  14.643  0.00  0.00    +0.000 C 
BRANCH  14  18
ATOM     18  C   UNL     1       7.288   4.761  16.838  0.00  0.00    +0.000 C 
BRANCH  18  24
ATOM     19  C   UNL     1       7.938   5.612  19.805  0.00  0.00    +0.000 C 
ATOM     20  N   UNL     1       7.916   6.459  18.643  0.00  0.00    +0.000 N 
ATOM     21  C   UNL     1       8.132   7.804  18.649  0.00  0.00    +0.000 A 
ATOM     22  N   UNL     1       8.045   8.269  17.428  0.00  0.00    +0.000 NA
ATOM     23  N   UNL     1       7.753   7.210  16.604  0.00  0.00    +0.000 NA
ATOM     24  C   UNL     1       7.670   6.115  17.335  0.00  0.00    +0.000 A 
ENDBRANCH  18  24
ENDBRANCH  14  18
ENDBRANCH   1  14
TORSDOF 4
ENDMDL
MODEL 9
REMARK VINA RESULT:      -7.9      3.730      5.959
REMARK  Name = 
REMARK  5 active torsions:
REMARK  status: ('A' for Active; 'I' for Inactive)
REMARK    1  A    between atoms: C_1  and  N_2
REMARK    2  A    between atoms: C_6  and  C_7
REMARK    3  A    between atoms: C_7  and  C_8
REMARK    4  A    between atoms: C_8  and  C_9
REMARK    5  A    between atoms: C_13  and  N_14
REMARK                            x       y       z     vdW  Elec       q    Type
REMARK                         _______ _______ _______ _____ _____    ______ ____
ROOT
ATOM      1  C   UNL     1       2.576   7.294  18.562  0.00  0.00    +0.000 A 
ATOM      2  C   UNL     1       2.677   8.192  17.485  0.00  0.00    +0.000 A 
ATOM      3  C   UNL     1       2.085   9.453  17.524  0.00  0.00    +0.000 A 
ATOM      4  C   UNL     1       1.382   9.863  18.656  0.00  0.00    +0.000 A 
ATOM      5  C   UNL     1       1.286   9.035  19.776  0.00  0.00    +0.000 A 
ATOM      6  C   UNL     1       1.895   7.768  19.705  0.00  0.00    +0.000 A 
ENDROOT
BRANCH   5   7
ATOM      7  N   UNL     1       0.582   9.427  20.945  0.00  0.00    +0.000 N 
ATOM      8  C   UNL     1       0.665  10.748  21.493  0.00  0.00    +0.000 C 
ATOM      9  C   UNL     1      -0.214  10.656  22.680  0.00  0.00    +0.000 C 
ATOM     10  C   UNL     1      -0.738   9.436  22.890  0.00  0.00    +0.000 C 
ATOM     11  O   UNL     1       0.145   9.977  23.802  0.00  0.00    +0.000 OA
ATOM     12  C   UNL     1      -0.304   8.661  21.694  0.00  0.00    +0.000 C 
ATOM     13  O   UNL     1      -0.738   7.540  21.479  0.00  0.00    +0.000 OA
ENDBRANCH   5   7
BRANCH   1  14
ATOM     14  C   UNL     1       3.192   5.800  18.491  0.00  0.00    +0.000 C 
ATOM     15  C   UNL     1       4.133   5.456  17.274  0.00  0.00    +0.000 C 
ATOM     16  C   UNL     1       5.355   5.716  18.159  0.00  0.00    +0.000 C 
ATOM     17  C   UNL     1       4.463   5.560  19.395  0.00  0.00    +0.000 C 
BRANCH  14  18
ATOM     18  C   UNL     1       2.088   4.751  18.769  0.00  0.00    +0.000 C 
BRANCH  18  24
ATOM     19  C   UNL     1       3.549   1.971  19.066  0.00  0.00    +0.000 C 
ATOM     20  N   UNL     1       2.908   2.731  20.104  0.00  0.00    +0.000 N 
ATOM     21  C   UNL     1       2.786   2.338  21.402  0.00  0.00    +0.000 A 
ATOM     22  N   UNL     1       2.155   3.260  22.085  0.00  0.00    +0.000 NA
ATOM     23  N   UNL     1       1.842   4.275  21.214  0.00  0.00    +0.000 NA
ATOM     24  C   UNL     1       2.292   3.958  20.015  0.00  0.00    +0.000 A 
ENDBRANCH  18  24
ENDBRANCH  14  18
ENDBRANCH   1  14
TORSDOF 4
ENDMDL
