MODEL 1
REMARK VINA RESULT:      -8.1      0.000      0.000
REMARK  Name = 
REMARK  5 active torsions:
REMARK  status: ('A' for Active; 'I' for Inactive)
REMARK    1  A    between atoms: C_1  and  C_2
REMARK    2  A    between atoms: C_11  and  C_12
REMARK    3  A    between atoms: C_12  and  N_13
REMARK    4  A    between atoms: N_13  and  C_14
REMARK    5  A    between atoms: C_14  and  C_15
REMARK                            x       y       z     vdW  Elec       q    Type
REMARK                         _______ _______ _______ _____ _____    ______ ____
ROOT
ATOM      1  C   UNL     1       2.859   5.440  19.922  0.00  0.00    +0.000 C 
ENDROOT
BRANCH   1  12
ATOM      2  C   UNL     1       6.466   4.360  14.487  0.00  0.00    +0.000 C 
ATOM      3  C   UNL     1       5.571   4.836  15.553  0.00  0.00    +0.000 A 
ATOM      4  N   UNL     1       5.352   6.054  15.994  0.00  0.00    +0.000 NA
ATOM      5  N   UNL     1       4.405   5.931  16.991  0.00  0.00    +0.000 NA
ATOM      6  C   UNL     1       4.112   4.652  17.084  0.00  0.00    +0.000 A 
ATOM      7  N   UNL     1       3.259   4.005  17.904  0.00  0.00    +0.000 N 
ATOM      8  C   UNL     1       2.777   2.672  17.570  0.00  0.00    +0.000 C 
ATOM      9  C   UNL     1       1.779   2.367  18.679  0.00  0.00    +0.000 C 
ATOM     10  F   UNL     1       2.434   1.905  19.778  0.00  0.00    +0.000 F 
ATOM     11  C   UNL     1       1.159   3.720  18.991  0.00  0.00    +0.000 C 
ATOM     12  C   UNL     1       2.257   4.755  18.671  0.00  0.00    +0.000 C 
ATOM     13  O   UNL     1       4.820   3.892  16.192  0.00  0.00    +0.000 OA
ENDBRANCH   1  12
BRANCH   1  14
ATOM     14  N   UNL     1       2.148   6.657  20.334  0.00  0.00    +0.000 NA
ATOM     15  H   UNL     1       2.589   6.999  21.194  0.00  0.00    +0.000 HD
BRANCH  14  16
ATOM     16  C   UNL     1       2.272   7.696  19.303  0.00  0.00    +0.000 C 
BRANCH  16  17
ATOM     17  C   UNL     1       1.321   8.855  19.506  0.00  0.00    +0.000 A 
ATOM     18  C   UNL     1       0.823   9.556  18.387  0.00  0.00    +0.000 A 
ATOM     19  C   UNL     1      -0.109  10.587  18.513  0.00  0.00    +0.000 A 
ATOM     20  C   UNL     1      -0.601  10.953  19.769  0.00  0.00    +0.000 A 
ATOM     21  C   UNL     1      -0.143  10.269  20.909  0.00  0.00    +0.000 A 
ATOM     22  C   UNL     1      -0.430  10.365  22.300  0.00  0.00    +0.000 A 
ATOM     23  C   UNL     1       0.334   9.426  22.954  0.00  0.00    +0.000 A 
ATOM     24  N   UNL     1       1.079   8.769  22.014  0.00  0.00    +0.000 N 
ATOM     25  C   UNL     1       0.798   9.252  20.752  0.00  0.00    +0.000 A 
ATOM     26  H   UNL     1       1.777   8.051  22.187  0.00  0.00    +0.000 HD
ENDBRANCH  16  17
ENDBRANCH  14  16
ENDBRANCH   1  14
TORSDOF 4
ENDMDL
MODEL 2
REMARK VINA RESULT:      -7.9      3.509      5.615
REMARK  Name = 
REMARK  5 active torsions:
REMARK  status: ('A' for Active; 'I' for Inactive)
REMARK    1  A    between atoms: C_1  and  C_2
REMARK    2  A    between atoms: C_11  and  C_12
REMARK    3  A    between atoms: C_12  and  N_13
REMARK    4  A    between atoms: N_13  and  C_14
REMARK    5  A    between atoms: C_14  and  C_15
REMARK                            x       y       z     vdW  Elec       q    Type
REMARK                         _______ _______ _______ _____ _____    ______ ____
ROOT
ATOM      1  C   UNL     1       4.745   6.699  18.056  0.00  0.00    +0.000 C 
ENDROOT
BRANCH   1  12
ATOM      2  C   UNL     1       6.959   3.627  12.636  0.00  0.00    +0.000 C 
ATOM      3  C   UNL     1       6.251   4.116  13.830  0.00  0.00    +0.000 A 
ATOM      4  N   UNL     1       4.965   4.270  14.048  0.00  0.00    +0.000 NA
ATOM      5  N   UNL     1       4.853   4.742  15.341  0.00  0.00    +0.000 NA
ATOM      6  C   UNL     1       6.076   4.837  15.819  0.00  0.00    +0.000 A 
ATOM      7  N   UNL     1       6.515   5.254  17.023  0.00  0.00    +0.000 N 
ATOM      8  C   UNL     1       7.846   4.892  17.492  0.00  0.00    +0.000 C 
ATOM      9  C   UNL     1       7.891   5.460  18.904  0.00  0.00    +0.000 C 
ATOM     10  F   UNL     1       8.216   6.781  18.862  0.00  0.00    +0.000 F 
ATOM     11  C   UNL     1       6.464   5.305  19.404  0.00  0.00    +0.000 C 
ATOM     12  C   UNL     1       5.579   5.398  18.145  0.00  0.00    +0.000 C 
ATOM     13  O   UNL     1       7.020   4.451  14.906  0.00  0.00    +0.000 OA
ENDBRANCH   1  12
BRANCH   1  14
ATOM     14  N   UNL     1       3.376   6.497  17.564  0.00  0.00    +0.000 NA
ATOM     15  H   UNL     1       3.342   5.582  17.105  0.00  0.00    +0.000 HD
BRANCH  14  16
ATOM     16  C   UNL     1       2.426   6.491  18.684  0.00  0.00    +0.000 C 
BRANCH  16  17
ATOM     17  C   UNL     1       2.379   5.169  19.420  0.00  0.00    +0.000 A 
ATOM     18  C   UNL     1       2.139   5.151  20.810  0.00  0.00    +0.000 A 
ATOM     19  C   UNL     1       2.017   3.958  21.525  0.00  0.00    +0.000 A 
ATOM     20  C   UNL     1       2.114   2.725  20.874  0.00  0.00    +0.000 A 
ATOM     21  C   UNL     1       2.336   2.699  19.486  0.00  0.00    +0.000 A 
ATOM     22  C   UNL     1       2.469   1.656  18.527  0.00  0.00    +0.000 A 
ATOM     23  C   UNL     1       2.681   2.238  17.298  0.00  0.00    +0.000 A 
ATOM     24  N   UNL     1       2.689   3.593  17.477  0.00  0.00    +0.000 N 
ATOM     25  C   UNL     1       2.465   3.906  18.802  0.00  0.00    +0.000 A 
ATOM     26  H   UNL     1       2.870   4.297  16.766  0.00  0.00    +0.000 HD
ENDBRANCH  16  17
ENDBRANCH  14  16
ENDBRANCH   1  14
TORSDOF 4
ENDMDL
MODEL 3
REMARK VINA RESULT:      -7.9      0.928      1.928
REMARK  Name = 
REMARK  5 active torsions:
REMARK  status: ('A' for Active; 'I' for Inactive)
REMARK    1  A    between atoms: C_1  and  C_2
REMARK    2  A    between atoms: C_11  and  C_12
REMARK    3  A    between atoms: C_12  and  N_13
REMARK    4  A    between atoms: N_13  and  C_14
REMARK    5  A    between atoms: C_14  and  C_15
REMARK                            x       y       z     vdW  Elec       q    Type
REMARK                         _______ _______ _______ _____ _____    ______ ____
ROOT
ATOM      1  C   UNL     1       3.136   5.675  19.790  0.00  0.00    +0.000 C 
ENDROOT
BRANCH   1  12
ATOM      2  C   UNL     1       6.602   4.629  14.257  0.00  0.00    +0.000 C 
ATOM      3  C   UNL     1       5.741   5.103  15.353  0.00  0.00    +0.000 A 
ATOM      4  N   UNL     1       5.562   6.316  15.825  0.00  0.00    +0.000 NA
ATOM      5  N   UNL     1       4.633   6.194  16.839  0.00  0.00    +0.000 NA
ATOM      6  C   UNL     1       4.310   4.920  16.910  0.00  0.00    +0.000 A 
ATOM      7  N   UNL     1       3.459   4.277  17.733  0.00  0.00    +0.000 N 
ATOM      8  C   UNL     1       2.937   2.963  17.381  0.00  0.00    +0.000 C 
ATOM      9  C   UNL     1       1.954   2.659  18.503  0.00  0.00    +0.000 C 
ATOM     10  F   UNL     1       2.620   2.155  19.578  0.00  0.00    +0.000 F 
ATOM     11  C   UNL     1       1.375   4.018  18.858  0.00  0.00    +0.000 C 
ATOM     12  C   UNL     1       2.491   5.033  18.538  0.00  0.00    +0.000 C 
ATOM     13  O   UNL     1       4.981   4.164  15.987  0.00  0.00    +0.000 OA
ENDBRANCH   1  12
BRANCH   1  14
ATOM     14  N   UNL     1       2.217   6.517  20.568  0.00  0.00    +0.000 NA
ATOM     15  H   UNL     1       2.665   6.718  21.467  0.00  0.00    +0.000 HD
BRANCH  14  16
ATOM     16  C   UNL     1       1.978   7.789  19.873  0.00  0.00    +0.000 C 
BRANCH  16  17
ATOM     17  C   UNL     1       1.066   8.724  20.637  0.00  0.00    +0.000 A 
ATOM     18  C   UNL     1       1.033   8.672  22.046  0.00  0.00    +0.000 A 
ATOM     19  C   UNL     1       0.262   9.557  22.802  0.00  0.00    +0.000 A 
ATOM     20  C   UNL     1      -0.501  10.548  22.179  0.00  0.00    +0.000 A 
ATOM     21  C   UNL     1      -0.484  10.645  20.777  0.00  0.00    +0.000 A 
ATOM     22  C   UNL     1      -1.109  11.514  19.839  0.00  0.00    +0.000 A 
ATOM     23  C   UNL     1      -0.720  11.124  18.578  0.00  0.00    +0.000 A 
ATOM     24  N   UNL     1       0.110  10.046  18.715  0.00  0.00    +0.000 N 
ATOM     25  C   UNL     1       0.286   9.739  20.049  0.00  0.00    +0.000 A 
ATOM     26  H   UNL     1       0.525   9.502  17.963  0.00  0.00    +0.000 HD
ENDBRANCH  16  17
ENDBRANCH  14  16
ENDBRANCH   1  14
TORSDOF 4
ENDMDL
MODEL 4
REMARK VINA RESULT:      -7.9      3.763      5.347
REMARK  Name = 
REMARK  5 active torsions:
REMARK  status: ('A' for Active; 'I' for Inactive)
REMARK    1  A    between atoms: C_1  and  C_2
REMARK    2  A    between atoms: C_11  and  C_12
REMARK    3  A    between atoms: C_12  and  N_13
REMARK    4  A    between atoms: N_13  and  C_14
REMARK    5  A    between atoms: C_14  and  C_15
REMARK                            x       y       z     vdW  Elec       q    Type
REMARK                         _______ _______ _______ _____ _____    ______ ____
ROOT
ATOM      1  C   UNL     1       4.606   6.710  17.775  0.00  0.00    +0.000 C 
ENDROOT
BRANCH   1  12
ATOM      2  C   UNL     1       7.112   3.603  12.504  0.00  0.00    +0.000 C 
ATOM      3  C   UNL     1       6.338   4.103  13.651  0.00  0.00    +0.000 A 
ATOM      4  N   UNL     1       5.042   4.274  13.788  0.00  0.00    +0.000 NA
ATOM      5  N   UNL     1       4.857   4.749  15.071  0.00  0.00    +0.000 NA
ATOM      6  C   UNL     1       6.048   4.828  15.625  0.00  0.00    +0.000 A 
ATOM      7  N   UNL     1       6.417   5.239  16.854  0.00  0.00    +0.000 N 
ATOM      8  C   UNL     1       7.711   4.860  17.405  0.00  0.00    +0.000 C 
ATOM      9  C   UNL     1       7.676   5.428  18.818  0.00  0.00    +0.000 C 
ATOM     10  F   UNL     1       8.020   6.745  18.796  0.00  0.00    +0.000 F 
ATOM     11  C   UNL     1       6.218   5.293  19.227  0.00  0.00    +0.000 C 
ATOM     12  C   UNL     1       5.414   5.397  17.915  0.00  0.00    +0.000 C 
ATOM     13  O   UNL     1       7.043   4.428  14.773  0.00  0.00    +0.000 OA
ENDBRANCH   1  12
BRANCH   1  14
ATOM     14  N   UNL     1       3.386   6.748  18.591  0.00  0.00    +0.000 NA
ATOM     15  H   UNL     1       3.098   7.727  18.676  0.00  0.00    +0.000 HD
BRANCH  14  16
ATOM     16  C   UNL     1       2.305   6.001  17.931  0.00  0.00    +0.000 C 
BRANCH  16  17
ATOM     17  C   UNL     1       2.278   4.536  18.305  0.00  0.00    +0.000 A 
ATOM     18  C   UNL     1       2.363   3.554  17.295  0.00  0.00    +0.000 A 
ATOM     19  C   UNL     1       2.412   2.191  17.588  0.00  0.00    +0.000 A 
ATOM     20  C   UNL     1       2.395   1.747  18.914  0.00  0.00    +0.000 A 
ATOM     21  C   UNL     1       2.327   2.693  19.952  0.00  0.00    +0.000 A 
ATOM     22  C   UNL     1       2.306   2.600  21.372  0.00  0.00    +0.000 A 
ATOM     23  C   UNL     1       2.228   3.878  21.876  0.00  0.00    +0.000 A 
ATOM     24  N   UNL     1       2.193   4.741  20.816  0.00  0.00    +0.000 N 
ATOM     25  C   UNL     1       2.267   4.047  19.626  0.00  0.00    +0.000 A 
ATOM     26  H   UNL     1       2.088   5.751  20.860  0.00  0.00    +0.000 HD
ENDBRANCH  16  17
ENDBRANCH  14  16
ENDBRANCH   1  14
TORSDOF 4
ENDMDL
MODEL 5
REMARK VINA RESULT:      -7.8      1.694      1.827
REMARK  Name = 
REMARK  5 active torsions:
REMARK  status: ('A' for Active; 'I' for Inactive)
REMARK    1  A    between atoms: C_1  and  C_2
REMARK    2  A    between atoms: C_11  and  C_12
REMARK    3  A    between atoms: C_12  and  N_13
REMARK    4  A    between atoms: N_13  and  C_14
REMARK    5  A    between atoms: C_14  and  C_15
REMARK                            x       y       z     vdW  Elec       q    Type
REMARK                         _______ _______ _______ _____ _____    ______ ____
ROOT
ATOM      1  C   UNL     1       1.827   5.862  20.823  0.00  0.00    +0.000 C 
ENDROOT
BRANCH   1  12
ATOM      2  C   UNL     1       7.426   4.544  17.562  0.00  0.00    +0.000 C 
ATOM      3  C   UNL     1       6.113   4.994  18.052  0.00  0.00    +0.000 A 
ATOM      4  N   UNL     1       5.531   6.168  17.958  0.00  0.00    +0.000 NA
ATOM      5  N   UNL     1       4.302   6.031  18.572  0.00  0.00    +0.000 NA
ATOM      6  C   UNL     1       4.221   4.786  18.991  0.00  0.00    +0.000 A 
ATOM      7  N   UNL     1       3.238   4.148  19.656  0.00  0.00    +0.000 N 
ATOM      8  C   UNL     1       3.165   2.693  19.655  0.00  0.00    +0.000 C 
ATOM      9  C   UNL     1       1.877   2.401  20.412  0.00  0.00    +0.000 C 
ATOM     10  F   UNL     1       2.109   2.433  21.752  0.00  0.00    +0.000 F 
ATOM     11  C   UNL     1       0.961   3.552  20.028  0.00  0.00    +0.000 C 
ATOM     12  C   UNL     1       1.900   4.745  19.754  0.00  0.00    +0.000 C 
ATOM     13  O   UNL     1       5.345   4.064  18.690  0.00  0.00    +0.000 OA
ENDBRANCH   1  12
BRANCH   1  14
ATOM     14  N   UNL     1       1.887   7.221  20.268  0.00  0.00    +0.000 NA
ATOM     15  H   UNL     1       1.226   7.268  19.487  0.00  0.00    +0.000 HD
BRANCH  14  16
ATOM     16  C   UNL     1       1.479   8.204  21.281  0.00  0.00    +0.000 C 
BRANCH  16  17
ATOM     17  C   UNL     1       0.748   9.394  20.698  0.00  0.00    +0.000 A 
ATOM     18  C   UNL     1       0.835   9.659  19.315  0.00  0.00    +0.000 A 
ATOM     19  C   UNL     1       0.126  10.700  18.714  0.00  0.00    +0.000 A 
ATOM     20  C   UNL     1      -0.719  11.516  19.472  0.00  0.00    +0.000 A 
ATOM     21  C   UNL     1      -0.848  11.275  20.851  0.00  0.00    +0.000 A 
ATOM     22  C   UNL     1      -1.606  11.880  21.892  0.00  0.00    +0.000 A 
ATOM     23  C   UNL     1      -1.322  11.214  23.062  0.00  0.00    +0.000 A 
ATOM     24  N   UNL     1      -0.415  10.233  22.771  0.00  0.00    +0.000 N 
ATOM     25  C   UNL     1      -0.117  10.236  21.424  0.00  0.00    +0.000 A 
ATOM     26  H   UNL     1       0.026   9.600  23.433  0.00  0.00    +0.000 HD
ENDBRANCH  16  17
ENDBRANCH  14  16
ENDBRANCH   1  14
TORSDOF 4
ENDMDL
MODEL 6
REMARK VINA RESULT:      -7.7      1.138      2.135
REMARK  Name = 
REMARK  5 active torsions:
REMARK  status: ('A' for Active; 'I' for Inactive)
REMARK    1  A    between atoms: C_1  and  C_2
REMARK    2  A    between atoms: C_11  and  C_12
REMARK    3  A    between atoms: C_12  and  N_13
REMARK    4  A    between atoms: N_13  and  C_14
REMARK    5  A    between atoms: C_14  and  C_15
REMARK                            x       y       z     vdW  Elec       q    Type
REMARK                         _______ _______ _______ _____ _____    ______ ____
ROOT
ATOM      1  C   UNL     1       2.153   5.101  20.555  0.00  0.00    +0.000 C 
ENDROOT
BRANCH   1  12
ATOM      2  C   UNL     1       5.961   5.434  15.160  0.00  0.00    +0.000 C 
ATOM      3  C   UNL     1       4.989   5.599  16.253  0.00  0.00    +0.000 A 
ATOM      4  N   UNL     1       4.585   6.687  16.870  0.00  0.00    +0.000 NA
ATOM      5  N   UNL     1       3.652   6.271  17.798  0.00  0.00    +0.000 NA
ATOM      6  C   UNL     1       3.551   4.965  17.679  0.00  0.00    +0.000 A 
ATOM      7  N   UNL     1       2.792   4.080  18.355  0.00  0.00    +0.000 N 
ATOM      8  C   UNL     1       2.517   2.762  17.799  0.00  0.00    +0.000 C 
ATOM      9  C   UNL     1       1.558   2.143  18.808  0.00  0.00    +0.000 C 
ATOM     10  F   UNL     1       2.258   1.610  19.846  0.00  0.00    +0.000 F 
ATOM     11  C   UNL     1       0.740   3.325  19.303  0.00  0.00    +0.000 C 
ATOM     12  C   UNL     1       1.677   4.545  19.191  0.00  0.00    +0.000 C 
ATOM     13  O   UNL     1       4.377   4.468  16.707  0.00  0.00    +0.000 OA
ENDBRANCH   1  12
BRANCH   1  14
ATOM     14  N   UNL     1       2.183   6.568  20.622  0.00  0.00    +0.000 NA
ATOM     15  H   UNL     1       2.165   6.924  19.662  0.00  0.00    +0.000 HD
BRANCH  14  16
ATOM     16  C   UNL     1       0.997   7.072  21.328  0.00  0.00    +0.000 C 
BRANCH  16  17
ATOM     17  C   UNL     1       0.732   8.540  21.076  0.00  0.00    +0.000 A 
ATOM     18  C   UNL     1       0.140   9.328  22.085  0.00  0.00    +0.000 A 
ATOM     19  C   UNL     1      -0.063  10.700  21.932  0.00  0.00    +0.000 A 
ATOM     20  C   UNL     1       0.334  11.352  20.760  0.00  0.00    +0.000 A 
ATOM     21  C   UNL     1       0.943  10.606  19.735  0.00  0.00    +0.000 A 
ATOM     22  C   UNL     1       1.469  10.935  18.454  0.00  0.00    +0.000 A 
ATOM     23  C   UNL     1       1.943   9.777  17.883  0.00  0.00    +0.000 A 
ATOM     24  N   UNL     1       1.718   8.757  18.765  0.00  0.00    +0.000 N 
ATOM     25  C   UNL     1       1.121   9.235  19.914  0.00  0.00    +0.000 A 
ATOM     26  H   UNL     1       1.913   7.771  18.614  0.00  0.00    +0.000 HD
ENDBRANCH  16  17
ENDBRANCH  14  16
ENDBRANCH   1  14
TORSDOF 4
ENDMDL
MODEL 7
REMARK VINA RESULT:      -7.7      1.061      1.206
REMARK  Name = 
REMARK  5 active torsions:
REMARK  status: ('A' for Active; 'I' for Inactive)
REMARK    1  A    between atoms: C_1  and  C_2
REMARK    2  A    between atoms: C_11  and  C_12
REMARK    3  A    between atoms: C_12  and  N_13
REMARK    4  A    between atoms: N_13  and  C_14
REMARK    5  A    between atoms: C_14  and  C_15
REMARK                            x       y       z     vdW  Elec       q    Type
REMARK                         _______ _______ _______ _____ _____    ______ ____
ROOT
ATOM      1  C   UNL     1       2.292   5.691  20.498  0.00  0.00    +0.000 C 
ENDROOT
BRANCH   1  12
ATOM      2  C   UNL     1       6.039   3.936  15.341  0.00  0.00    +0.000 C 
ATOM      3  C   UNL     1       5.089   4.517  16.303  0.00  0.00    +0.000 A 
ATOM      4  N   UNL     1       4.735   5.768  16.493  0.00  0.00    +0.000 NA
ATOM      5  N   UNL     1       3.799   5.746  17.508  0.00  0.00    +0.000 NA
ATOM      6  C   UNL     1       3.646   4.488  17.860  0.00  0.00    +0.000 A 
ATOM      7  N   UNL     1       2.863   3.931  18.805  0.00  0.00    +0.000 N 
ATOM      8  C   UNL     1       2.531   2.514  18.752  0.00  0.00    +0.000 C 
ATOM      9  C   UNL     1       1.562   2.332  19.913  0.00  0.00    +0.000 C 
ATOM     10  F   UNL     1       2.255   2.174  21.074  0.00  0.00    +0.000 F 
ATOM     11  C   UNL     1       0.797   3.645  19.956  0.00  0.00    +0.000 C 
ATOM     12  C   UNL     1       1.778   4.707  19.420  0.00  0.00    +0.000 C 
ATOM     13  O   UNL     1       4.440   3.645  17.129  0.00  0.00    +0.000 OA
ENDBRANCH   1  12
BRANCH   1  14
ATOM     14  N   UNL     1       2.173   7.105  20.120  0.00  0.00    +0.000 NA
ATOM     15  H   UNL     1       1.638   7.150  19.248  0.00  0.00    +0.000 HD
BRANCH  14  16
ATOM     16  C   UNL     1       1.442   7.851  21.154  0.00  0.00    +0.000 C 
BRANCH  16  17
ATOM     17  C   UNL     1       0.825   9.134  20.640  0.00  0.00    +0.000 A 
ATOM     18  C   UNL     1       0.982   9.491  19.284  0.00  0.00    +0.000 A 
ATOM     19  C   UNL     1       0.377  10.626  18.743  0.00  0.00    +0.000 A 
ATOM     20  C   UNL     1      -0.429  11.450  19.534  0.00  0.00    +0.000 A 
ATOM     21  C   UNL     1      -0.625  11.120  20.886  0.00  0.00    +0.000 A 
ATOM     22  C   UNL     1      -1.371  11.707  21.948  0.00  0.00    +0.000 A 
ATOM     23  C   UNL     1      -1.181  10.936  23.072  0.00  0.00    +0.000 A 
ATOM     24  N   UNL     1      -0.343   9.910  22.735  0.00  0.00    +0.000 N 
ATOM     25  C   UNL     1       0.002   9.987  21.401  0.00  0.00    +0.000 A 
ATOM     26  H   UNL     1       0.025   9.198  23.360  0.00  0.00    +0.000 HD
ENDBRANCH  16  17
ENDBRANCH  14  16
ENDBRANCH   1  14
TORSDOF 4
ENDMDL
MODEL 8
REMARK VINA RESULT:      -7.7      3.635      6.075
REMARK  Name = 
REMARK  5 active torsions:
REMARK  status: ('A' for Active; 'I' for Inactive)
REMARK    1  A    between atoms: C_1  and  C_2
REMARK    2  A    between atoms: C_11  and  C_12
REMARK    3  A    between atoms: C_12  and  N_13
REMARK    4  A    between atoms: N_13  and  C_14
REMARK    5  A    between atoms: C_14  and  C_15
REMARK                            x       y       z     vdW  Elec       q    Type
REMARK                         _______ _______ _______ _____ _____    ______ ____
ROOT
ATOM      1  C   UNL     1       5.405   6.701  16.343  0.00  0.00    +0.000 C 
ENDROOT
BRANCH   1  12
ATOM      2  C   UNL     1       9.653  10.430  19.773  0.00  0.00    +0.000 C 
ATOM      3  C   UNL     1       8.841   9.712  18.777  0.00  0.00    +0.000 A 
ATOM      4  N   UNL     1       8.337  10.128  17.638  0.00  0.00    +0.000 NA
ATOM      5  N   UNL     1       7.679   9.042  17.096  0.00  0.00    +0.000 NA
ATOM      6  C   UNL     1       7.833   8.043  17.938  0.00  0.00    +0.000 A 
ATOM      7  N   UNL     1       7.381   6.775  17.886  0.00  0.00    +0.000 N 
ATOM      8  C   UNL     1       8.001   5.732  18.692  0.00  0.00    +0.000 C 
ATOM      9  C   UNL     1       7.275   4.467  18.256  0.00  0.00    +0.000 C 
ATOM     10  F   UNL     1       6.099   4.351  18.931  0.00  0.00    +0.000 F 
ATOM     11  C   UNL     1       6.992   4.700  16.781  0.00  0.00    +0.000 C 
ATOM     12  C   UNL     1       6.850   6.228  16.630  0.00  0.00    +0.000 C 
ATOM     13  O   UNL     1       8.568   8.401  19.037  0.00  0.00    +0.000 OA
ENDBRANCH   1  12
BRANCH   1  14
ATOM     14  N   UNL     1       4.369   5.807  16.877  0.00  0.00    +0.000 NA
ATOM     15  H   UNL     1       4.840   5.060  17.396  0.00  0.00    +0.000 HD
BRANCH  14  16
ATOM     16  C   UNL     1       3.494   6.537  17.806  0.00  0.00    +0.000 C 
BRANCH  16  17
ATOM     17  C   UNL     1       2.781   5.634  18.788  0.00  0.00    +0.000 A 
ATOM     18  C   UNL     1       2.244   6.176  19.975  0.00  0.00    +0.000 A 
ATOM     19  C   UNL     1       1.518   5.402  20.881  0.00  0.00    +0.000 A 
ATOM     20  C   UNL     1       1.280   4.047  20.630  0.00  0.00    +0.000 A 
ATOM     21  C   UNL     1       1.784   3.471  19.451  0.00  0.00    +0.000 A 
ATOM     22  C   UNL     1       1.722   2.167  18.885  0.00  0.00    +0.000 A 
ATOM     23  C   UNL     1       2.412   2.190  17.695  0.00  0.00    +0.000 A 
ATOM     24  N   UNL     1       2.897   3.457  17.521  0.00  0.00    +0.000 N 
ATOM     25  C   UNL     1       2.516   4.267  18.571  0.00  0.00    +0.000 A 
ATOM     26  H   UNL     1       3.488   3.780  16.761  0.00  0.00    +0.000 HD
ENDBRANCH  16  17
ENDBRANCH  14  16
ENDBRANCH   1  14
TORSDOF 4
ENDMDL
MODEL 9
REMARK VINA RESULT:      -7.7      2.016      3.697
REMARK  Name = 
REMARK  5 active torsions:
REMARK  status: ('A' for Active; 'I' for Inactive)
REMARK    1  A    between atoms: C_1  and  C_2
REMARK    2  A    between atoms: C_11  and  C_12
REMARK    3  A    between atoms: C_12  and  N_13
REMARK    4  A    between atoms: N_13  and  C_14
REMARK    5  A    between atoms: C_14  and  C_15
REMARK                            x       y       z     vdW  Elec       q    Type
REMARK                         _______ _______ _______ _____ _____    ______ ____
ROOT
ATOM      1  C   UNL     1       3.469   7.376  17.239  0.00  0.00    +0.000 C 
ENDROOT
BRANCH   1  12
ATOM      2  C   UNL     1       1.457   2.720  21.482  0.00  0.00    +0.000 C 
ATOM      3  C   UNL     1       1.958   3.912  20.778  0.00  0.00    +0.000 A 
ATOM      4  N   UNL     1       1.750   5.187  21.017  0.00  0.00    +0.000 NA
ATOM      5  N   UNL     1       2.473   5.874  20.063  0.00  0.00    +0.000 NA
ATOM      6  C   UNL     1       3.073   4.972  19.316  0.00  0.00    +0.000 A 
ATOM      7  N   UNL     1       3.883   5.117  18.248  0.00  0.00    +0.000 N 
ATOM      8  C   UNL     1       4.762   4.033  17.832  0.00  0.00    +0.000 C 
ATOM      9  C   UNL     1       5.561   4.642  16.688  0.00  0.00    +0.000 C 
ATOM     10  F   UNL     1       4.845   4.567  15.532  0.00  0.00    +0.000 F 
ATOM     11  C   UNL     1       5.719   6.099  17.090  0.00  0.00    +0.000 C 
ATOM     12  C   UNL     1       4.473   6.426  17.937  0.00  0.00    +0.000 C 
ATOM     13  O   UNL     1       2.789   3.695  19.718  0.00  0.00    +0.000 OA
ENDBRANCH   1  12
BRANCH   1  14
ATOM     14  N   UNL     1       2.845   8.351  18.143  0.00  0.00    +0.000 NA
ATOM     15  H   UNL     1       3.445   9.182  18.167  0.00  0.00    +0.000 HD
BRANCH  14  16
ATOM     16  C   UNL     1       1.524   8.745  17.636  0.00  0.00    +0.000 C 
BRANCH  16  17
ATOM     17  C   UNL     1       0.739   9.594  18.613  0.00  0.00    +0.000 A 
ATOM     18  C   UNL     1      -0.161  10.567  18.128  0.00  0.00    +0.000 A 
ATOM     19  C   UNL     1      -0.960  11.328  18.983  0.00  0.00    +0.000 A 
ATOM     20  C   UNL     1      -0.905  11.138  20.367  0.00  0.00    +0.000 A 
ATOM     21  C   UNL     1      -0.033  10.168  20.890  0.00  0.00    +0.000 A 
ATOM     22  C   UNL     1       0.261   9.711  22.206  0.00  0.00    +0.000 A 
ATOM     23  C   UNL     1       1.218   8.728  22.107  0.00  0.00    +0.000 A 
ATOM     24  N   UNL     1       1.521   8.575  20.782  0.00  0.00    +0.000 N 
ATOM     25  C   UNL     1       0.761   9.432  20.012  0.00  0.00    +0.000 A 
ATOM     26  H   UNL     1       2.226   7.958  20.389  0.00  0.00    +0.000 HD
ENDBRANCH  16  17
ENDBRANCH  14  16
ENDBRANCH   1  14
TORSDOF 4
ENDMDL
