MODEL 1
REMARK VINA RESULT:      -8.7      0.000      0.000
REMARK  Name = 
REMARK  6 active torsions:
REMARK  status: ('A' for Active; 'I' for Inactive)
REMARK    1  A    between atoms: C_1  and  C_2
REMARK    2  A    between atoms: C_8  and  C_9
REMARK    3  A    between atoms: N_11  and  C_12
REMARK    4  A    between atoms: C_12  and  C_13
REMARK    5  A    between atoms: C_16  and  O_17
REMARK    6  A    between atoms: O_17  and  C_18
REMARK                            x       y       z     vdW  Elec       q    Type
REMARK                         _______ _______ _______ _____ _____    ______ ____
ROOT
ATOM      1  C   UNL     1       2.234   7.234  19.593  0.00  0.00    +0.000 A 
ATOM      2  C   UNL     1       2.276   7.740  18.286  0.00  0.00    +0.000 A 
ATOM      3  C   UNL     1       1.634   8.941  17.972  0.00  0.00    +0.000 A 
ATOM      4  C   UNL     1       0.936   9.647  18.957  0.00  0.00    +0.000 A 
ATOM      5  C   UNL     1       0.812   9.088  20.229  0.00  0.00    +0.000 A 
ATOM      6  F   UNL     1       0.065   9.675  21.176  0.00  0.00    +0.000 F 
ATOM      7  C   UNL     1       1.472   7.907  20.557  0.00  0.00    +0.000 A 
ENDROOT
BRANCH   1   8
ATOM      8  C   UNL     1       2.971   5.974  19.952  0.00  0.00    +0.000 C 
BRANCH   8  11
ATOM      9  C   UNL     1       4.396   4.400  18.764  0.00  0.00    +0.000 C 
ATOM     10  O   UNL     1       3.706   3.441  19.104  0.00  0.00    +0.000 OA
ATOM     11  N   UNL     1       4.025   5.705  19.010  0.00  0.00    +0.000 N 
ATOM     12  H   UNL     1       4.738   6.408  18.867  0.00  0.00    +0.000 HD
BRANCH   9  20
ATOM     13  C   UNL     1       8.177   6.995  18.509  0.00  0.00    +0.000 C 
ATOM     14  C   UNL     1       7.200   5.879  18.786  0.00  0.00    +0.000 C 
ATOM     15  O   UNL     1       7.058   5.427  19.918  0.00  0.00    +0.000 OA
ATOM     16  N   UNL     1       6.454   5.437  17.712  0.00  0.00    +0.000 N 
ATOM     17  C   UNL     1       6.743   5.715  16.320  0.00  0.00    +0.000 C 
ATOM     18  C   UNL     1       5.500   5.221  15.611  0.00  0.00    +0.000 C 
ATOM     19  C   UNL     1       5.134   3.963  16.396  0.00  0.00    +0.000 C 
ATOM     20  C   UNL     1       5.608   4.240  17.836  0.00  0.00    +0.000 C 
ENDBRANCH   9  20
ENDBRANCH   8  11
ENDBRANCH   1   8
BRANCH   4  21
ATOM     21  O   UNL     1       0.372  10.834  18.551  0.00  0.00    +0.000 OA
BRANCH  21  22
ATOM     22  C   UNL     1      -0.988  10.916  18.361  0.00  0.00    +0.000 A 
ATOM     23  C   UNL     1      -1.521  10.027  17.422  0.00  0.00    +0.000 A 
ATOM     24  C   UNL     1      -2.896  10.003  17.174  0.00  0.00    +0.000 A 
ATOM     25  C   UNL     1      -3.747  10.869  17.860  0.00  0.00    +0.000 A 
ATOM     26  C   UNL     1      -3.216  11.792  18.761  0.00  0.00    +0.000 A 
ATOM     27  C   UNL     1      -1.842  11.836  18.984  0.00  0.00    +0.000 A 
ATOM     28  F   UNL     1      -1.366  12.773  19.811  0.00  0.00    +0.000 F 
ENDBRANCH  21  22
ENDBRANCH   4  21
TORSDOF 5
ENDMDL
MODEL 2
REMARK VINA RESULT:      -8.7      0.902      1.307
REMARK  Name = 
REMARK  6 active torsions:
REMARK  status: ('A' for Active; 'I' for Inactive)
REMARK    1  A    between atoms: C_1  and  C_2
REMARK    2  A    between atoms: C_8  and  C_9
REMARK    3  A    between atoms: N_11  and  C_12
REMARK    4  A    between atoms: C_12  and  C_13
REMARK    5  A    between atoms: C_16  and  O_17
REMARK    6  A    between atoms: O_17  and  C_18
REMARK                            x       y       z     vdW  Elec       q    Type
REMARK                         _______ _______ _______ _____ _____    ______ ____
ROOT
ATOM      1  C   UNL     1       2.215   7.231  19.568  0.00  0.00    +0.000 A 
ATOM      2  C   UNL     1       2.248   7.774  18.275  0.00  0.00    +0.000 A 
ATOM      3  C   UNL     1       1.665   9.018  18.015  0.00  0.00    +0.000 A 
ATOM      4  C   UNL     1       1.036   9.730  19.041  0.00  0.00    +0.000 A 
ATOM      5  C   UNL     1       0.918   9.140  20.300  0.00  0.00    +0.000 A 
ATOM      6  F   UNL     1       0.231   9.737  21.286  0.00  0.00    +0.000 F 
ATOM      7  C   UNL     1       1.520   7.914  20.574  0.00  0.00    +0.000 A 
ENDROOT
BRANCH   1   8
ATOM      8  C   UNL     1       2.891   5.922  19.867  0.00  0.00    +0.000 C 
BRANCH   8  11
ATOM      9  C   UNL     1       4.420   4.371  18.782  0.00  0.00    +0.000 C 
ATOM     10  O   UNL     1       3.814   3.393  19.213  0.00  0.00    +0.000 OA
ATOM     11  N   UNL     1       3.949   5.660  18.928  0.00  0.00    +0.000 N 
ATOM     12  H   UNL     1       4.602   6.402  18.713  0.00  0.00    +0.000 HD
BRANCH   9  20
ATOM     13  C   UNL     1       8.170   7.010  18.514  0.00  0.00    +0.000 C 
ATOM     14  C   UNL     1       7.208   5.881  18.791  0.00  0.00    +0.000 C 
ATOM     15  O   UNL     1       7.079   5.422  19.922  0.00  0.00    +0.000 OA
ATOM     16  N   UNL     1       6.458   5.438  17.721  0.00  0.00    +0.000 N 
ATOM     17  C   UNL     1       6.734   5.727  16.328  0.00  0.00    +0.000 C 
ATOM     18  C   UNL     1       5.491   5.223  15.625  0.00  0.00    +0.000 C 
ATOM     19  C   UNL     1       5.145   3.957  16.406  0.00  0.00    +0.000 C 
ATOM     20  C   UNL     1       5.627   4.231  17.843  0.00  0.00    +0.000 C 
ENDBRANCH   9  20
ENDBRANCH   8  11
ENDBRANCH   1   8
BRANCH   4  21
ATOM     21  O   UNL     1       0.527  10.958  18.687  0.00  0.00    +0.000 OA
BRANCH  21  22
ATOM     22  C   UNL     1      -0.834  11.154  18.665  0.00  0.00    +0.000 A 
ATOM     23  C   UNL     1      -1.328  12.059  19.611  0.00  0.00    +0.000 A 
ATOM     24  C   UNL     1      -2.692  12.357  19.657  0.00  0.00    +0.000 A 
ATOM     25  C   UNL     1      -3.573  11.751  18.760  0.00  0.00    +0.000 A 
ATOM     26  C   UNL     1      -3.094  10.811  17.848  0.00  0.00    +0.000 A 
ATOM     27  C   UNL     1      -1.738  10.492  17.825  0.00  0.00    +0.000 A 
ATOM     28  F   UNL     1      -1.327   9.543  16.975  0.00  0.00    +0.000 F 
ENDBRANCH  21  22
ENDBRANCH   4  21
TORSDOF 5
ENDMDL
MODEL 3
REMARK VINA RESULT:      -8.7      0.905      1.294
REMARK  Name = 
REMARK  6 active torsions:
REMARK  status: ('A' for Active; 'I' for Inactive)
REMARK    1  A    between atoms: C_1  and  C_2
REMARK    2  A    between atoms: C_8  and  C_9
REMARK    3  A    between atoms: N_11  and  C_12
REMARK    4  A    between atoms: C_12  and  C_13
REMARK    5  A    between atoms: C_16  and  O_17
REMARK    6  A    between atoms: O_17  and  C_18
REMARK                            x       y       z     vdW  Elec       q    Type
REMARK                         _______ _______ _______ _____ _____    ______ ____
ROOT
ATOM      1  C   UNL     1       2.192   7.222  19.771  0.00  0.00    +0.000 A 
ATOM      2  C   UNL     1       1.437   7.820  20.791  0.00  0.00    +0.000 A 
ATOM      3  C   UNL     1       0.803   9.047  20.575  0.00  0.00    +0.000 A 
ATOM      4  C   UNL     1       0.923   9.696  19.342  0.00  0.00    +0.000 A 
ATOM      5  C   UNL     1       1.758   9.147  18.367  0.00  0.00    +0.000 A 
ATOM      6  F   UNL     1       1.989   9.785  17.211  0.00  0.00    +0.000 F 
ATOM      7  C   UNL     1       2.369   7.911  18.564  0.00  0.00    +0.000 A 
ENDROOT
BRANCH   1   8
ATOM      8  C   UNL     1       2.827   5.875  19.975  0.00  0.00    +0.000 C 
BRANCH   8  11
ATOM      9  C   UNL     1       4.224   4.353  18.691  0.00  0.00    +0.000 C 
ATOM     10  O   UNL     1       3.517   3.387  18.970  0.00  0.00    +0.000 OA
ATOM     11  N   UNL     1       3.877   5.647  19.018  0.00  0.00    +0.000 N 
ATOM     12  H   UNL     1       4.603   6.344  18.919  0.00  0.00    +0.000 HD
BRANCH   9  20
ATOM     13  C   UNL     1       8.074   6.858  18.629  0.00  0.00    +0.000 C 
ATOM     14  C   UNL     1       7.067   5.750  18.822  0.00  0.00    +0.000 C 
ATOM     15  O   UNL     1       6.910   5.221  19.918  0.00  0.00    +0.000 OA
ATOM     16  N   UNL     1       6.311   5.410  17.719  0.00  0.00    +0.000 N 
ATOM     17  C   UNL     1       6.611   5.782  16.351  0.00  0.00    +0.000 C 
ATOM     18  C   UNL     1       5.358   5.375  15.607  0.00  0.00    +0.000 C 
ATOM     19  C   UNL     1       4.956   4.072  16.297  0.00  0.00    +0.000 C 
ATOM     20  C   UNL     1       5.434   4.230  17.754  0.00  0.00    +0.000 C 
ENDBRANCH   9  20
ENDBRANCH   8  11
ENDBRANCH   1   8
BRANCH   4  21
ATOM     21  O   UNL     1       0.232  10.879  19.223  0.00  0.00    +0.000 OA
BRANCH  21  22
ATOM     22  C   UNL     1      -1.046  10.878  18.715  0.00  0.00    +0.000 A 
ATOM     23  C   UNL     1      -1.279   9.975  17.673  0.00  0.00    +0.000 A 
ATOM     24  C   UNL     1      -2.551   9.867  17.104  0.00  0.00    +0.000 A 
ATOM     25  C   UNL     1      -3.597  10.664  17.571  0.00  0.00    +0.000 A 
ATOM     26  C   UNL     1      -3.358  11.600  18.575  0.00  0.00    +0.000 A 
ATOM     27  C   UNL     1      -2.083  11.728  19.120  0.00  0.00    +0.000 A 
ATOM     28  F   UNL     1      -1.881  12.678  20.041  0.00  0.00    +0.000 F 
ENDBRANCH  21  22
ENDBRANCH   4  21
TORSDOF 5
ENDMDL
MODEL 4
REMARK VINA RESULT:      -8.6      1.268      1.830
REMARK  Name = 
REMARK  6 active torsions:
REMARK  status: ('A' for Active; 'I' for Inactive)
REMARK    1  A    between atoms: C_1  and  C_2
REMARK    2  A    between atoms: C_8  and  C_9
REMARK    3  A    between atoms: N_11  and  C_12
REMARK    4  A    between atoms: C_12  and  C_13
REMARK    5  A    between atoms: C_16  and  O_17
REMARK    6  A    between atoms: O_17  and  C_18
REMARK                            x       y       z     vdW  Elec       q    Type
REMARK                         _______ _______ _______ _____ _____    ______ ____
ROOT
ATOM      1  C   UNL     1       2.074   7.246  19.732  0.00  0.00    +0.000 A 
ATOM      2  C   UNL     1       1.374   7.894  20.761  0.00  0.00    +0.000 A 
ATOM      3  C   UNL     1       0.850   9.174  20.563  0.00  0.00    +0.000 A 
ATOM      4  C   UNL     1       1.026   9.827  19.339  0.00  0.00    +0.000 A 
ATOM      5  C   UNL     1       1.809   9.221  18.355  0.00  0.00    +0.000 A 
ATOM      6  F   UNL     1       2.095   9.853  17.207  0.00  0.00    +0.000 F 
ATOM      7  C   UNL     1       2.310   7.934  18.535  0.00  0.00    +0.000 A 
ENDROOT
BRANCH   1   8
ATOM      8  C   UNL     1       2.588   5.847  19.917  0.00  0.00    +0.000 C 
BRANCH   8  11
ATOM      9  C   UNL     1       4.322   4.365  19.069  0.00  0.00    +0.000 C 
ATOM     10  O   UNL     1       3.974   3.449  19.811  0.00  0.00    +0.000 OA
ATOM     11  N   UNL     1       3.601   5.535  18.944  0.00  0.00    +0.000 N 
ATOM     12  H   UNL     1       4.063   6.296  18.464  0.00  0.00    +0.000 HD
BRANCH   9  20
ATOM     13  C   UNL     1       8.096   6.925  18.515  0.00  0.00    +0.000 C 
ATOM     14  C   UNL     1       7.133   5.817  18.868  0.00  0.00    +0.000 C 
ATOM     15  O   UNL     1       7.077   5.365  20.007  0.00  0.00    +0.000 OA
ATOM     16  N   UNL     1       6.299   5.385  17.857  0.00  0.00    +0.000 N 
ATOM     17  C   UNL     1       6.478   5.663  16.446  0.00  0.00    +0.000 C 
ATOM     18  C   UNL     1       5.178   5.182  15.838  0.00  0.00    +0.000 C 
ATOM     19  C   UNL     1       4.864   3.926  16.649  0.00  0.00    +0.000 C 
ATOM     20  C   UNL     1       5.454   4.196  18.046  0.00  0.00    +0.000 C 
ENDBRANCH   9  20
ENDBRANCH   8  11
ENDBRANCH   1   8
BRANCH   4  21
ATOM     21  O   UNL     1       0.441  11.068  19.237  0.00  0.00    +0.000 OA
BRANCH  21  22
ATOM     22  C   UNL     1      -0.905  11.171  18.970  0.00  0.00    +0.000 A 
ATOM     23  C   UNL     1      -1.627  12.008  19.826  0.00  0.00    +0.000 A 
ATOM     24  C   UNL     1      -2.995  12.210  19.627  0.00  0.00    +0.000 A 
ATOM     25  C   UNL     1      -3.651  11.575  18.573  0.00  0.00    +0.000 A 
ATOM     26  C   UNL     1      -2.946  10.701  17.746  0.00  0.00    +0.000 A 
ATOM     27  C   UNL     1      -1.589  10.476  17.965  0.00  0.00    +0.000 A 
ATOM     28  F   UNL     1      -0.963   9.587  17.186  0.00  0.00    +0.000 F 
ENDBRANCH  21  22
ENDBRANCH   4  21
TORSDOF 5
ENDMDL
MODEL 5
REMARK VINA RESULT:      -8.3      6.023      8.495
REMARK  Name = 
REMARK  6 active torsions:
REMARK  status: ('A' for Active; 'I' for Inactive)
REMARK    1  A    between atoms: C_1  and  C_2
REMARK    2  A    between atoms: C_8  and  C_9
REMARK    3  A    between atoms: N_11  and  C_12
REMARK    4  A    between atoms: C_12  and  C_13
REMARK    5  A    between atoms: C_16  and  O_17
REMARK    6  A    between atoms: O_17  and  C_18
REMARK                            x       y       z     vdW  Elec       q    Type
REMARK                         _______ _______ _______ _____ _____    ______ ____
ROOT
ATOM      1  C   UNL     1       7.473   7.894  17.855  0.00  0.00    +0.000 A 
ATOM      2  C   UNL     1       6.295   7.377  17.297  0.00  0.00    +0.000 A 
ATOM      3  C   UNL     1       5.829   6.114  17.674  0.00  0.00    +0.000 A 
ATOM      4  C   UNL     1       6.538   5.349  18.605  0.00  0.00    +0.000 A 
ATOM      5  C   UNL     1       7.761   5.825  19.080  0.00  0.00    +0.000 A 
ATOM      6  F   UNL     1       8.528   5.082  19.892  0.00  0.00    +0.000 F 
ATOM      7  C   UNL     1       8.217   7.094  18.732  0.00  0.00    +0.000 A 
ENDROOT
BRANCH   1   8
ATOM      8  C   UNL     1       7.948   9.275  17.500  0.00  0.00    +0.000 C 
BRANCH   8  11
ATOM      9  C   UNL     1       9.436  11.017  18.320  0.00  0.00    +0.000 C 
ATOM     10  O   UNL     1       8.860  11.886  17.668  0.00  0.00    +0.000 OA
ATOM     11  N   UNL     1       8.962   9.726  18.417  0.00  0.00    +0.000 N 
ATOM     12  H   UNL     1       9.596   9.044  18.810  0.00  0.00    +0.000 HD
BRANCH   9  20
ATOM     13  C   UNL     1       9.383  13.557  22.147  0.00  0.00    +0.000 C 
ATOM     14  C   UNL     1       9.420  12.408  21.168  0.00  0.00    +0.000 C 
ATOM     15  O   UNL     1       8.625  11.478  21.253  0.00  0.00    +0.000 OA
ATOM     16  N   UNL     1      10.359  12.493  20.160  0.00  0.00    +0.000 N 
ATOM     17  C   UNL     1      11.492  13.397  20.143  0.00  0.00    +0.000 C 
ATOM     18  C   UNL     1      12.022  13.248  18.734  0.00  0.00    +0.000 C 
ATOM     19  C   UNL     1      11.839  11.757  18.453  0.00  0.00    +0.000 C 
ATOM     20  C   UNL     1      10.597  11.348  19.268  0.00  0.00    +0.000 C 
ENDBRANCH   9  20
ENDBRANCH   8  11
ENDBRANCH   1   8
BRANCH   4  21
ATOM     21  O   UNL     1       5.975   4.138  18.932  0.00  0.00    +0.000 OA
BRANCH  21  22
ATOM     22  C   UNL     1       4.650   3.900  18.651  0.00  0.00    +0.000 A 
ATOM     23  C   UNL     1       3.766   4.068  19.722  0.00  0.00    +0.000 A 
ATOM     24  C   UNL     1       2.393   3.883  19.540  0.00  0.00    +0.000 A 
ATOM     25  C   UNL     1       1.894   3.526  18.287  0.00  0.00    +0.000 A 
ATOM     26  C   UNL     1       2.775   3.309  17.228  0.00  0.00    +0.000 A 
ATOM     27  C   UNL     1       4.146   3.463  17.419  0.00  0.00    +0.000 A 
ATOM     28  F   UNL     1       4.962   3.189  16.394  0.00  0.00    +0.000 F 
ENDBRANCH  21  22
ENDBRANCH   4  21
TORSDOF 5
ENDMDL
MODEL 6
REMARK VINA RESULT:      -8.3      2.018      2.755
REMARK  Name = 
REMARK  6 active torsions:
REMARK  status: ('A' for Active; 'I' for Inactive)
REMARK    1  A    between atoms: C_1  and  C_2
REMARK    2  A    between atoms: C_8  and  C_9
REMARK    3  A    between atoms: N_11  and  C_12
REMARK    4  A    between atoms: C_12  and  C_13
REMARK    5  A    between atoms: C_16  and  O_17
REMARK    6  A    between atoms: O_17  and  C_18
REMARK                            x       y       z     vdW  Elec       q    Type
REMARK                         _______ _______ _______ _____ _____    ______ ____
ROOT
ATOM      1  C   UNL     1       2.249   7.201  19.543  0.00  0.00    +0.000 A 
ATOM      2  C   UNL     1       2.367   7.834  18.296  0.00  0.00    +0.000 A 
ATOM      3  C   UNL     1       1.835   9.111  18.098  0.00  0.00    +0.000 A 
ATOM      4  C   UNL     1       1.173   9.769  19.139  0.00  0.00    +0.000 A 
ATOM      5  C   UNL     1       0.971   9.096  20.344  0.00  0.00    +0.000 A 
ATOM      6  F   UNL     1       0.250   9.643  21.334  0.00  0.00    +0.000 F 
ATOM      7  C   UNL     1       1.522   7.835  20.558  0.00  0.00    +0.000 A 
ENDROOT
BRANCH   1   8
ATOM      8  C   UNL     1       2.869   5.853  19.781  0.00  0.00    +0.000 C 
BRANCH   8  11
ATOM      9  C   UNL     1       4.409   4.322  18.682  0.00  0.00    +0.000 C 
ATOM     10  O   UNL     1       3.783   3.336  19.067  0.00  0.00    +0.000 OA
ATOM     11  N   UNL     1       3.948   5.610  18.859  0.00  0.00    +0.000 N 
ATOM     12  H   UNL     1       4.612   6.352  18.684  0.00  0.00    +0.000 HD
BRANCH   9  20
ATOM     13  C   UNL     1       8.136   7.001  18.508  0.00  0.00    +0.000 C 
ATOM     14  C   UNL     1       7.179   5.861  18.759  0.00  0.00    +0.000 C 
ATOM     15  O   UNL     1       7.031   5.395  19.885  0.00  0.00    +0.000 OA
ATOM     16  N   UNL     1       6.458   5.416  17.671  0.00  0.00    +0.000 N 
ATOM     17  C   UNL     1       6.760   5.715  16.286  0.00  0.00    +0.000 C 
ATOM     18  C   UNL     1       5.539   5.202  15.554  0.00  0.00    +0.000 C 
ATOM     19  C   UNL     1       5.189   3.927  16.321  0.00  0.00    +0.000 C 
ATOM     20  C   UNL     1       5.637   4.199  17.770  0.00  0.00    +0.000 C 
ENDBRANCH   9  20
ENDBRANCH   8  11
ENDBRANCH   1   8
BRANCH   4  21
ATOM     21  O   UNL     1       0.720  11.035  18.849  0.00  0.00    +0.000 OA
BRANCH  21  22
ATOM     22  C   UNL     1       1.494  12.128  19.162  0.00  0.00    +0.000 A 
ATOM     23  C   UNL     1       2.362  12.560  18.154  0.00  0.00    +0.000 A 
ATOM     24  C   UNL     1       3.173  13.681  18.353  0.00  0.00    +0.000 A 
ATOM     25  C   UNL     1       3.123  14.376  19.562  0.00  0.00    +0.000 A 
ATOM     26  C   UNL     1       2.296  13.921  20.588  0.00  0.00    +0.000 A 
ATOM     27  C   UNL     1       1.512  12.785  20.399  0.00  0.00    +0.000 A 
ATOM     28  F   UNL     1       0.777  12.347  21.427  0.00  0.00    +0.000 F 
ENDBRANCH  21  22
ENDBRANCH   4  21
TORSDOF 5
ENDMDL
MODEL 7
REMARK VINA RESULT:      -8.2      2.004      2.738
REMARK  Name = 
REMARK  6 active torsions:
REMARK  status: ('A' for Active; 'I' for Inactive)
REMARK    1  A    between atoms: C_1  and  C_2
REMARK    2  A    between atoms: C_8  and  C_9
REMARK    3  A    between atoms: N_11  and  C_12
REMARK    4  A    between atoms: C_12  and  C_13
REMARK    5  A    between atoms: C_16  and  O_17
REMARK    6  A    between atoms: O_17  and  C_18
REMARK                            x       y       z     vdW  Elec       q    Type
REMARK                         _______ _______ _______ _____ _____    ______ ____
ROOT
ATOM      1  C   UNL     1       2.219   7.283  19.536  0.00  0.00    +0.000 A 
ATOM      2  C   UNL     1       2.244   7.811  18.236  0.00  0.00    +0.000 A 
ATOM      3  C   UNL     1       1.650   9.046  17.963  0.00  0.00    +0.000 A 
ATOM      4  C   UNL     1       1.019   9.766  18.982  0.00  0.00    +0.000 A 
ATOM      5  C   UNL     1       0.909   9.191  20.248  0.00  0.00    +0.000 A 
ATOM      6  F   UNL     1       0.221   9.795  21.229  0.00  0.00    +0.000 F 
ATOM      7  C   UNL     1       1.522   7.974  20.535  0.00  0.00    +0.000 A 
ENDROOT
BRANCH   1   8
ATOM      8  C   UNL     1       2.907   5.984  19.849  0.00  0.00    +0.000 C 
BRANCH   8  11
ATOM      9  C   UNL     1       4.291   4.432  18.587  0.00  0.00    +0.000 C 
ATOM     10  O   UNL     1       3.537   3.489  18.821  0.00  0.00    +0.000 OA
ATOM     11  N   UNL     1       3.983   5.732  18.927  0.00  0.00    +0.000 N 
ATOM     12  H   UNL     1       4.738   6.402  18.869  0.00  0.00    +0.000 HD
BRANCH   9  20
ATOM     13  C   UNL     1       8.130   6.954  18.542  0.00  0.00    +0.000 C 
ATOM     14  C   UNL     1       7.122   5.850  18.749  0.00  0.00    +0.000 C 
ATOM     15  O   UNL     1       6.934   5.364  19.860  0.00  0.00    +0.000 OA
ATOM     16  N   UNL     1       6.402   5.461  17.638  0.00  0.00    +0.000 N 
ATOM     17  C   UNL     1       6.743   5.779  16.265  0.00  0.00    +0.000 C 
ATOM     18  C   UNL     1       5.514   5.335  15.501  0.00  0.00    +0.000 C 
ATOM     19  C   UNL     1       5.098   4.059  16.231  0.00  0.00    +0.000 C 
ATOM     20  C   UNL     1       5.530   4.278  17.693  0.00  0.00    +0.000 C 
ENDBRANCH   9  20
ENDBRANCH   8  11
ENDBRANCH   1   8
BRANCH   4  21
ATOM     21  O   UNL     1       0.499  10.986  18.614  0.00  0.00    +0.000 OA
BRANCH  21  22
ATOM     22  C   UNL     1       1.077  12.144  19.076  0.00  0.00    +0.000 A 
ATOM     23  C   UNL     1       0.319  12.868  20.002  0.00  0.00    +0.000 A 
ATOM     24  C   UNL     1       0.824  14.046  20.561  0.00  0.00    +0.000 A 
ATOM     25  C   UNL     1       2.088  14.508  20.196  0.00  0.00    +0.000 A 
ATOM     26  C   UNL     1       2.827  13.817  19.237  0.00  0.00    +0.000 A 
ATOM     27  C   UNL     1       2.309  12.661  18.658  0.00  0.00    +0.000 A 
ATOM     28  F   UNL     1       3.024  12.060  17.699  0.00  0.00    +0.000 F 
ENDBRANCH  21  22
ENDBRANCH   4  21
TORSDOF 5
ENDMDL
MODEL 8
REMARK VINA RESULT:      -8.1      1.484      1.957
REMARK  Name = 
REMARK  6 active torsions:
REMARK  status: ('A' for Active; 'I' for Inactive)
REMARK    1  A    between atoms: C_1  and  C_2
REMARK    2  A    between atoms: C_8  and  C_9
REMARK    3  A    between atoms: N_11  and  C_12
REMARK    4  A    between atoms: C_12  and  C_13
REMARK    5  A    between atoms: C_16  and  O_17
REMARK    6  A    between atoms: O_17  and  C_18
REMARK                            x       y       z     vdW  Elec       q    Type
REMARK                         _______ _______ _______ _____ _____    ______ ____
ROOT
ATOM      1  C   UNL     1       2.280   6.054  19.223  0.00  0.00    +0.000 A 
ATOM      2  C   UNL     1       1.800   6.344  20.509  0.00  0.00    +0.000 A 
ATOM      3  C   UNL     1       1.422   7.647  20.845  0.00  0.00    +0.000 A 
ATOM      4  C   UNL     1       1.527   8.678  19.906  0.00  0.00    +0.000 A 
ATOM      5  C   UNL     1       2.100   8.403  18.663  0.00  0.00    +0.000 A 
ATOM      6  F   UNL     1       2.320   9.378  17.768  0.00  0.00    +0.000 F 
ATOM      7  C   UNL     1       2.452   7.103  18.310  0.00  0.00    +0.000 A 
ENDROOT
BRANCH   1   8
ATOM      8  C   UNL     1       2.631   4.645  18.835  0.00  0.00    +0.000 C 
BRANCH   8  11
ATOM      9  C   UNL     1       4.965   4.128  18.382  0.00  0.00    +0.000 C 
ATOM     10  O   UNL     1       5.072   3.468  19.413  0.00  0.00    +0.000 OA
ATOM     11  N   UNL     1       3.756   4.621  17.937  0.00  0.00    +0.000 N 
ATOM     12  H   UNL     1       3.797   5.304  17.194  0.00  0.00    +0.000 HD
BRANCH   9  20
ATOM     13  C   UNL     1       7.886   7.629  17.821  0.00  0.00    +0.000 C 
ATOM     14  C   UNL     1       7.263   6.303  18.187  0.00  0.00    +0.000 C 
ATOM     15  O   UNL     1       7.313   5.875  19.336  0.00  0.00    +0.000 OA
ATOM     16  N   UNL     1       6.603   5.637  17.174  0.00  0.00    +0.000 N 
ATOM     17  C   UNL     1       6.727   5.927  15.760  0.00  0.00    +0.000 C 
ATOM     18  C   UNL     1       5.626   5.091  15.145  0.00  0.00    +0.000 C 
ATOM     19  C   UNL     1       5.657   3.812  15.981  0.00  0.00    +0.000 C 
ATOM     20  C   UNL     1       6.120   4.262  17.380  0.00  0.00    +0.000 C 
ENDBRANCH   9  20
ENDBRANCH   8  11
ENDBRANCH   1   8
BRANCH   4  21
ATOM     21  O   UNL     1       1.096   9.914  20.327  0.00  0.00    +0.000 OA
BRANCH  21  22
ATOM     22  C   UNL     1       0.242  10.648  19.538  0.00  0.00    +0.000 A 
ATOM     23  C   UNL     1      -0.938   9.999  19.162  0.00  0.00    +0.000 A 
ATOM     24  C   UNL     1      -1.892  10.662  18.385  0.00  0.00    +0.000 A 
ATOM     25  C   UNL     1      -1.670  11.978  17.977  0.00  0.00    +0.000 A 
ATOM     26  C   UNL     1      -0.474  12.612  18.307  0.00  0.00    +0.000 A 
ATOM     27  C   UNL     1       0.489  11.938  19.054  0.00  0.00    +0.000 A 
ATOM     28  F   UNL     1       1.648  12.561  19.300  0.00  0.00    +0.000 F 
ENDBRANCH  21  22
ENDBRANCH   4  21
TORSDOF 5
ENDMDL
MODEL 9
REMARK VINA RESULT:      -8.1      5.745      8.543
REMARK  Name = 
REMARK  6 active torsions:
REMARK  status: ('A' for Active; 'I' for Inactive)
REMARK    1  A    between atoms: C_1  and  C_2
REMARK    2  A    between atoms: C_8  and  C_9
REMARK    3  A    between atoms: N_11  and  C_12
REMARK    4  A    between atoms: C_12  and  C_13
REMARK    5  A    between atoms: C_16  and  O_17
REMARK    6  A    between atoms: O_17  and  C_18
REMARK                            x       y       z     vdW  Elec       q    Type
REMARK                         _______ _______ _______ _____ _____    ______ ____
ROOT
ATOM      1  C   UNL     1       7.474   7.832  17.825  0.00  0.00    +0.000 A 
ATOM      2  C   UNL     1       6.396   7.238  17.152  0.00  0.00    +0.000 A 
ATOM      3  C   UNL     1       5.954   5.962  17.513  0.00  0.00    +0.000 A 
ATOM      4  C   UNL     1       6.589   5.260  18.543  0.00  0.00    +0.000 A 
ATOM      5  C   UNL     1       7.723   5.813  19.139  0.00  0.00    +0.000 A 
ATOM      6  F   UNL     1       8.428   5.134  20.056  0.00  0.00    +0.000 F 
ATOM      7  C   UNL     1       8.151   7.096  18.805  0.00  0.00    +0.000 A 
ENDROOT
BRANCH   1   8
ATOM      8  C   UNL     1       7.916   9.227  17.483  0.00  0.00    +0.000 C 
BRANCH   8  11
ATOM      9  C   UNL     1       9.400  10.978  18.292  0.00  0.00    +0.000 C 
ATOM     10  O   UNL     1       8.791  11.849  17.676  0.00  0.00    +0.000 OA
ATOM     11  N   UNL     1       8.950   9.677  18.378  0.00  0.00    +0.000 N 
ATOM     12  H   UNL     1       9.607   8.998  18.738  0.00  0.00    +0.000 HD
BRANCH   9  20
ATOM     13  C   UNL     1       9.420  13.435  22.173  0.00  0.00    +0.000 C 
ATOM     14  C   UNL     1       9.448  12.308  21.170  0.00  0.00    +0.000 C 
ATOM     15  O   UNL     1       8.672  11.361  21.258  0.00  0.00    +0.000 OA
ATOM     16  N   UNL     1      10.353  12.431  20.135  0.00  0.00    +0.000 N 
ATOM     17  C   UNL     1      11.469  13.355  20.104  0.00  0.00    +0.000 C 
ATOM     18  C   UNL     1      11.959  13.245  18.675  0.00  0.00    +0.000 C 
ATOM     19  C   UNL     1      11.793  11.758  18.368  0.00  0.00    +0.000 C 
ATOM     20  C   UNL     1      10.584  11.309  19.211  0.00  0.00    +0.000 C 
ENDBRANCH   9  20
ENDBRANCH   8  11
ENDBRANCH   1   8
BRANCH   4  21
ATOM     21  O   UNL     1       6.054   4.029  18.842  0.00  0.00    +0.000 OA
BRANCH  21  22
ATOM     22  C   UNL     1       4.799   3.944  19.398  0.00  0.00    +0.000 A 
ATOM     23  C   UNL     1       4.126   5.160  19.554  0.00  0.00    +0.000 A 
ATOM     24  C   UNL     1       2.831   5.187  20.081  0.00  0.00    +0.000 A 
ATOM     25  C   UNL     1       2.202   4.000  20.456  0.00  0.00    +0.000 A 
ATOM     26  C   UNL     1       2.887   2.790  20.349  0.00  0.00    +0.000 A 
ATOM     27  C   UNL     1       4.189   2.769  19.853  0.00  0.00    +0.000 A 
ATOM     28  F   UNL     1       4.832   1.596  19.820  0.00  0.00    +0.000 F 
ENDBRANCH  21  22
ENDBRANCH   4  21
TORSDOF 5
ENDMDL
