MODEL 1
REMARK VINA RESULT:      -8.7      0.000      0.000
REMARK  Name = 
REMARK  2 active torsions:
REMARK  status: ('A' for Active; 'I' for Inactive)
REMARK    1  A    between atoms: C_2  and  C_4
REMARK    2  A    between atoms: C_7  and  C_9
REMARK                            x       y       z     vdW  Elec       q    Type
REMARK                         _______ _______ _______ _____ _____    ______ ____
ROOT
ATOM      1  C   UNL     1       2.947   4.420  19.522  0.00  0.00    +0.000 C 
ATOM      2  C   UNL     1       3.129   5.925  19.659  0.00  0.00    +0.000 C 
ATOM      3  N   UNL     1       3.249   6.620  18.366  0.00  0.00    +0.000 N 
ATOM      4  C   UNL     1       2.621   7.856  18.069  0.00  0.00    +0.000 C 
ATOM      5  O   UNL     1       2.614   8.335  16.936  0.00  0.00    +0.000 OA
ATOM      6  C   UNL     1       4.105   5.934  17.441  0.00  0.00    +0.000 A 
ATOM      7  C   UNL     1       4.739   6.576  16.367  0.00  0.00    +0.000 A 
ATOM      8  C   UNL     1       5.608   5.882  15.514  0.00  0.00    +0.000 A 
ATOM      9  C   UNL     1       5.854   4.530  15.716  0.00  0.00    +0.000 A 
ATOM     10  C   UNL     1       5.236   3.874  16.775  0.00  0.00    +0.000 A 
ATOM     11  C   UNL     1       4.375   4.567  17.634  0.00  0.00    +0.000 A 
ATOM     12  O   UNL     1       3.840   3.785  18.622  0.00  0.00    +0.000 OA
ENDROOT
BRANCH   4  13
ATOM     13  C   UNL     1       1.876   8.538  19.122  0.00  0.00    +0.000 A 
ATOM     14  C   UNL     1       1.007   9.616  19.044  0.00  0.00    +0.000 A 
ATOM     15  C   UNL     1       0.476   9.818  20.345  0.00  0.00    +0.000 A 
ATOM     16  C   UNL     1      -0.474  10.676  20.930  0.00  0.00    +0.000 A 
ATOM     17  C   UNL     1      -0.758  10.519  22.294  0.00  0.00    +0.000 A 
ATOM     18 CL   UNL     1      -1.910  11.562  23.039  0.00  0.00    +0.000 Cl
ATOM     19  C   UNL     1      -0.130   9.538  23.066  0.00  0.00    +0.000 A 
ATOM     20  C   UNL     1       0.828   8.690  22.504  0.00  0.00    +0.000 A 
ATOM     21  C   UNL     1       1.100   8.877  21.152  0.00  0.00    +0.000 A 
ATOM     22  O   UNL     1       1.999   8.160  20.431  0.00  0.00    +0.000 OA
ENDBRANCH   4  13
BRANCH   1  24
ATOM     23  N   UNL     1       0.684   4.079  20.441  0.00  0.00    +0.000 N 
ATOM     24  C   UNL     1       1.458   4.101  19.319  0.00  0.00    +0.000 C 
ATOM     25  O   UNL     1       0.957   3.896  18.217  0.00  0.00    +0.000 OA
ATOM     26  H   UNL     1      -0.301   3.865  20.340  0.00  0.00    +0.000 HD
ATOM     27  H   UNL     1       1.078   4.210  21.363  0.00  0.00    +0.000 HD
ENDBRANCH   1  24
TORSDOF 2
ENDMDL
MODEL 2
REMARK VINA RESULT:      -8.5      0.808      1.369
REMARK  Name = 
REMARK  2 active torsions:
REMARK  status: ('A' for Active; 'I' for Inactive)
REMARK    1  A    between atoms: C_2  and  C_4
REMARK    2  A    between atoms: C_7  and  C_9
REMARK                            x       y       z     vdW  Elec       q    Type
REMARK                         _______ _______ _______ _____ _____    ______ ____
ROOT
ATOM      1  C   UNL     1       2.913   4.306  19.489  0.00  0.00    +0.000 C 
ATOM      2  C   UNL     1       3.050   5.815  19.635  0.00  0.00    +0.000 C 
ATOM      3  N   UNL     1       3.364   6.499  18.369  0.00  0.00    +0.000 N 
ATOM      4  C   UNL     1       2.774   7.722  17.961  0.00  0.00    +0.000 C 
ATOM      5  O   UNL     1       2.939   8.189  16.835  0.00  0.00    +0.000 OA
ATOM      6  C   UNL     1       4.365   5.817  17.599  0.00  0.00    +0.000 A 
ATOM      7  C   UNL     1       5.151   6.458  16.631  0.00  0.00    +0.000 A 
ATOM      8  C   UNL     1       6.153   5.770  15.934  0.00  0.00    +0.000 A 
ATOM      9  C   UNL     1       6.384   4.424  16.189  0.00  0.00    +0.000 A 
ATOM     10  C   UNL     1       5.615   3.768  17.145  0.00  0.00    +0.000 A 
ATOM     11  C   UNL     1       4.620   4.456  17.848  0.00  0.00    +0.000 A 
ATOM     12  O   UNL     1       3.945   3.676  18.749  0.00  0.00    +0.000 OA
ENDROOT
BRANCH   4  13
ATOM     13  C   UNL     1       1.862   8.403  18.875  0.00  0.00    +0.000 A 
ATOM     14  C   UNL     1       1.649   8.210  20.231  0.00  0.00    +0.000 A 
ATOM     15  C   UNL     1       0.728   9.205  20.654  0.00  0.00    +0.000 A 
ATOM     16  C   UNL     1       0.153   9.599  21.876  0.00  0.00    +0.000 A 
ATOM     17  C   UNL     1      -0.711  10.703  21.876  0.00  0.00    +0.000 A 
ATOM     18 CL   UNL     1      -1.437  11.203  23.357  0.00  0.00    +0.000 Cl
ATOM     19  C   UNL     1      -0.997  11.412  20.706  0.00  0.00    +0.000 A 
ATOM     20  C   UNL     1      -0.447  11.022  19.482  0.00  0.00    +0.000 A 
ATOM     21  C   UNL     1       0.394   9.914  19.508  0.00  0.00    +0.000 A 
ATOM     22  O   UNL     1       1.016   9.381  18.426  0.00  0.00    +0.000 OA
ENDBRANCH   4  13
BRANCH   1  24
ATOM     23  N   UNL     1       0.589   3.709  20.058  0.00  0.00    +0.000 N 
ATOM     24  C   UNL     1       1.480   3.961  19.058  0.00  0.00    +0.000 C 
ATOM     25  O   UNL     1       1.117   3.931  17.884  0.00  0.00    +0.000 OA
ATOM     26  H   UNL     1      -0.363   3.472  19.804  0.00  0.00    +0.000 HD
ATOM     27  H   UNL     1       0.869   3.693  21.029  0.00  0.00    +0.000 HD
ENDBRANCH   1  24
TORSDOF 2
ENDMDL
MODEL 3
REMARK VINA RESULT:      -8.4      2.266      3.764
REMARK  Name = 
REMARK  2 active torsions:
REMARK  status: ('A' for Active; 'I' for Inactive)
REMARK    1  A    between atoms: C_2  and  C_4
REMARK    2  A    between atoms: C_7  and  C_9
REMARK                            x       y       z     vdW  Elec       q    Type
REMARK                         _______ _______ _______ _____ _____    ______ ____
ROOT
ATOM      1  C   UNL     1       6.927   6.716  17.637  0.00  0.00    +0.000 C 
ATOM      2  C   UNL     1       5.446   7.007  17.438  0.00  0.00    +0.000 C 
ATOM      3  N   UNL     1       4.694   5.865  16.891  0.00  0.00    +0.000 N 
ATOM      4  C   UNL     1       3.406   5.476  17.338  0.00  0.00    +0.000 C 
ATOM      5  O   UNL     1       2.870   4.431  16.972  0.00  0.00    +0.000 OA
ATOM      6  C   UNL     1       5.386   5.202  15.822  0.00  0.00    +0.000 A 
ATOM      7  C   UNL     1       4.731   4.422  14.858  0.00  0.00    +0.000 A 
ATOM      8  C   UNL     1       5.434   3.831  13.800  0.00  0.00    +0.000 A 
ATOM      9  C   UNL     1       6.808   4.004  13.689  0.00  0.00    +0.000 A 
ATOM     10  C   UNL     1       7.477   4.774  14.635  0.00  0.00    +0.000 A 
ATOM     11  C   UNL     1       6.775   5.373  15.688  0.00  0.00    +0.000 A 
ATOM     12  O   UNL     1       7.571   6.092  16.539  0.00  0.00    +0.000 OA
ENDROOT
BRANCH   4  13
ATOM     13  C   UNL     1       2.733   6.293  18.342  0.00  0.00    +0.000 A 
ATOM     14  C   UNL     1       2.520   6.054  19.691  0.00  0.00    +0.000 A 
ATOM     15  C   UNL     1       1.904   7.215  20.229  0.00  0.00    +0.000 A 
ATOM     16  C   UNL     1       1.490   7.644  21.503  0.00  0.00    +0.000 A 
ATOM     17  C   UNL     1       0.944   8.930  21.624  0.00  0.00    +0.000 A 
ATOM     18 CL   UNL     1       0.420   9.479  23.172  0.00  0.00    +0.000 Cl
ATOM     19  C   UNL     1       0.815   9.779  20.522  0.00  0.00    +0.000 A 
ATOM     20  C   UNL     1       1.206   9.361  19.247  0.00  0.00    +0.000 A 
ATOM     21  C   UNL     1       1.730   8.075  19.154  0.00  0.00    +0.000 A 
ATOM     22  O   UNL     1       2.157   7.489  18.007  0.00  0.00    +0.000 OA
ENDBRANCH   4  13
BRANCH   1  24
ATOM     23  N   UNL     1       8.399   6.098  19.517  0.00  0.00    +0.000 N 
ATOM     24  C   UNL     1       7.138   6.044  19.002  0.00  0.00    +0.000 C 
ATOM     25  O   UNL     1       6.235   5.501  19.633  0.00  0.00    +0.000 OA
ATOM     26  H   UNL     1       8.571   5.658  20.413  0.00  0.00    +0.000 HD
ATOM     27  H   UNL     1       9.168   6.508  19.003  0.00  0.00    +0.000 HD
ENDBRANCH   1  24
TORSDOF 2
ENDMDL
MODEL 4
REMARK VINA RESULT:      -8.4      4.248      8.007
REMARK  Name = 
REMARK  2 active torsions:
REMARK  status: ('A' for Active; 'I' for Inactive)
REMARK    1  A    between atoms: C_2  and  C_4
REMARK    2  A    between atoms: C_7  and  C_9
REMARK                            x       y       z     vdW  Elec       q    Type
REMARK                         _______ _______ _______ _____ _____    ______ ____
ROOT
ATOM      1  C   UNL     1       3.313   3.376  19.032  0.00  0.00    +0.000 C 
ATOM      2  C   UNL     1       3.399   4.076  17.683  0.00  0.00    +0.000 C 
ATOM      3  N   UNL     1       3.671   5.520  17.788  0.00  0.00    +0.000 N 
ATOM      4  C   UNL     1       4.569   6.221  16.946  0.00  0.00    +0.000 C 
ATOM      5  O   UNL     1       4.891   7.390  17.154  0.00  0.00    +0.000 OA
ATOM      6  C   UNL     1       2.898   6.159  18.815  0.00  0.00    +0.000 A 
ATOM      7  C   UNL     1       2.623   7.534  18.818  0.00  0.00    +0.000 A 
ATOM      8  C   UNL     1       1.823   8.114  19.812  0.00  0.00    +0.000 A 
ATOM      9  C   UNL     1       1.287   7.330  20.825  0.00  0.00    +0.000 A 
ATOM     10  C   UNL     1       1.548   5.963  20.841  0.00  0.00    +0.000 A 
ATOM     11  C   UNL     1       2.339   5.380  19.845  0.00  0.00    +0.000 A 
ATOM     12  O   UNL     1       2.511   4.031  20.000  0.00  0.00    +0.000 OA
ENDROOT
BRANCH   4  13
ATOM     13  C   UNL     1       5.209   5.505  15.847  0.00  0.00    +0.000 A 
ATOM     14  C   UNL     1       4.846   4.322  15.221  0.00  0.00    +0.000 A 
ATOM     15  C   UNL     1       5.754   4.122  14.148  0.00  0.00    +0.000 A 
ATOM     16  C   UNL     1       5.907   3.182  13.113  0.00  0.00    +0.000 A 
ATOM     17  C   UNL     1       6.948   3.373  12.193  0.00  0.00    +0.000 A 
ATOM     18 CL   UNL     1       7.166   2.231  10.920  0.00  0.00    +0.000 Cl
ATOM     19  C   UNL     1       7.815   4.466  12.281  0.00  0.00    +0.000 A 
ATOM     20  C   UNL     1       7.685   5.400  13.313  0.00  0.00    +0.000 A 
ATOM     21  C   UNL     1       6.653   5.177  14.220  0.00  0.00    +0.000 A 
ATOM     22  O   UNL     1       6.371   5.964  15.289  0.00  0.00    +0.000 OA
ENDBRANCH   4  13
BRANCH   1  24
ATOM     23  N   UNL     1       4.853   1.749  20.063  0.00  0.00    +0.000 N 
ATOM     24  C   UNL     1       4.724   2.981  19.494  0.00  0.00    +0.000 C 
ATOM     25  O   UNL     1       5.707   3.702  19.350  0.00  0.00    +0.000 OA
ATOM     26  H   UNL     1       5.770   1.463  20.384  0.00  0.00    +0.000 HD
ATOM     27  H   UNL     1       4.054   1.150  20.225  0.00  0.00    +0.000 HD
ENDBRANCH   1  24
TORSDOF 2
ENDMDL
MODEL 5
REMARK VINA RESULT:      -8.0      3.350      5.900
REMARK  Name = 
REMARK  2 active torsions:
REMARK  status: ('A' for Active; 'I' for Inactive)
REMARK    1  A    between atoms: C_2  and  C_4
REMARK    2  A    between atoms: C_7  and  C_9
REMARK                            x       y       z     vdW  Elec       q    Type
REMARK                         _______ _______ _______ _____ _____    ______ ____
ROOT
ATOM      1  C   UNL     1       0.975  10.877  18.298  0.00  0.00    +0.000 C 
ATOM      2  C   UNL     1       0.025  10.695  19.474  0.00  0.00    +0.000 C 
ATOM      3  N   UNL     1       0.589   9.875  20.560  0.00  0.00    +0.000 N 
ATOM      4  C   UNL     1       0.441  10.175  21.937  0.00  0.00    +0.000 C 
ATOM      5  O   UNL     1       1.049   9.560  22.813  0.00  0.00    +0.000 OA
ATOM      6  C   UNL     1       1.275   8.710  20.080  0.00  0.00    +0.000 A 
ATOM      7  C   UNL     1       1.487   7.570  20.869  0.00  0.00    +0.000 A 
ATOM      8  C   UNL     1       2.118   6.431  20.350  0.00  0.00    +0.000 A 
ATOM      9  C   UNL     1       2.556   6.414  19.032  0.00  0.00    +0.000 A 
ATOM     10  C   UNL     1       2.356   7.535  18.232  0.00  0.00    +0.000 A 
ATOM     11  C   UNL     1       1.718   8.669  18.746  0.00  0.00    +0.000 A 
ATOM     12  O   UNL     1       1.602   9.690  17.841  0.00  0.00    +0.000 OA
ENDROOT
BRANCH   4  13
ATOM     13  C   UNL     1      -0.385  11.312  22.326  0.00  0.00    +0.000 A 
ATOM     14  C   UNL     1      -1.674  11.346  22.836  0.00  0.00    +0.000 A 
ATOM     15  C   UNL     1      -1.968  12.701  23.139  0.00  0.00    +0.000 A 
ATOM     16  C   UNL     1      -3.043  13.399  23.720  0.00  0.00    +0.000 A 
ATOM     17  C   UNL     1      -2.918  14.786  23.889  0.00  0.00    +0.000 A 
ATOM     18 CL   UNL     1      -4.223  15.668  24.589  0.00  0.00    +0.000 Cl
ATOM     19  C   UNL     1      -1.763  15.471  23.505  0.00  0.00    +0.000 A 
ATOM     20  C   UNL     1      -0.694  14.794  22.911  0.00  0.00    +0.000 A 
ATOM     21  C   UNL     1      -0.851  13.422  22.742  0.00  0.00    +0.000 A 
ATOM     22  O   UNL     1       0.069  12.595  22.182  0.00  0.00    +0.000 OA
ENDBRANCH   4  13
BRANCH   1  24
ATOM     23  N   UNL     1       2.705  12.465  17.543  0.00  0.00    +0.000 N 
ATOM     24  C   UNL     1       1.914  12.060  18.577  0.00  0.00    +0.000 C 
ATOM     25  O   UNL     1       1.956  12.648  19.654  0.00  0.00    +0.000 OA
ATOM     26  H   UNL     1       3.339  13.239  17.699  0.00  0.00    +0.000 HD
ATOM     27  H   UNL     1       2.715  11.976  16.657  0.00  0.00    +0.000 HD
ENDBRANCH   1  24
TORSDOF 2
ENDMDL
MODEL 6
REMARK VINA RESULT:      -7.9      3.367      5.862
REMARK  Name = 
REMARK  2 active torsions:
REMARK  status: ('A' for Active; 'I' for Inactive)
REMARK    1  A    between atoms: C_2  and  C_4
REMARK    2  A    between atoms: C_7  and  C_9
REMARK                            x       y       z     vdW  Elec       q    Type
REMARK                         _______ _______ _______ _____ _____    ______ ____
ROOT
ATOM      1  C   UNL     1       0.901  10.940  18.350  0.00  0.00    +0.000 C 
ATOM      2  C   UNL     1      -0.046  10.686  19.514  0.00  0.00    +0.000 C 
ATOM      3  N   UNL     1       0.542   9.852  20.576  0.00  0.00    +0.000 N 
ATOM      4  C   UNL     1       0.378  10.101  21.962  0.00  0.00    +0.000 C 
ATOM      5  O   UNL     1       1.004   9.482  22.821  0.00  0.00    +0.000 OA
ATOM      6  C   UNL     1       1.273   8.728  20.063  0.00  0.00    +0.000 A 
ATOM      7  C   UNL     1       1.522   7.572  20.816  0.00  0.00    +0.000 A 
ATOM      8  C   UNL     1       2.197   6.475  20.264  0.00  0.00    +0.000 A 
ATOM      9  C   UNL     1       2.640   6.516  18.949  0.00  0.00    +0.000 A 
ATOM     10  C   UNL     1       2.403   7.654  18.184  0.00  0.00    +0.000 A 
ATOM     11  C   UNL     1       1.722   8.747  18.730  0.00  0.00    +0.000 A 
ATOM     12  O   UNL     1       1.572   9.792  17.859  0.00  0.00    +0.000 OA
ENDROOT
BRANCH   4  13
ATOM     13  C   UNL     1      -0.491  11.195  22.383  0.00  0.00    +0.000 A 
ATOM     14  C   UNL     1      -0.374  12.560  22.170  0.00  0.00    +0.000 A 
ATOM     15  C   UNL     1      -1.542  13.167  22.704  0.00  0.00    +0.000 A 
ATOM     16  C   UNL     1      -2.069  14.470  22.763  0.00  0.00    +0.000 A 
ATOM     17  C   UNL     1      -3.323  14.651  23.362  0.00  0.00    +0.000 A 
ATOM     18 CL   UNL     1      -3.989  16.238  23.458  0.00  0.00    +0.000 Cl
ATOM     19  C   UNL     1      -4.050  13.576  23.883  0.00  0.00    +0.000 A 
ATOM     20  C   UNL     1      -3.532  12.279  23.846  0.00  0.00    +0.000 A 
ATOM     21  C   UNL     1      -2.278  12.131  23.260  0.00  0.00    +0.000 A 
ATOM     22  O   UNL     1      -1.609  10.957  23.136  0.00  0.00    +0.000 OA
ENDBRANCH   4  13
BRANCH   1  24
ATOM     23  N   UNL     1       2.492  12.682  17.629  0.00  0.00    +0.000 N 
ATOM     24  C   UNL     1       1.795  12.147  18.672  0.00  0.00    +0.000 C 
ATOM     25  O   UNL     1       1.880  12.643  19.792  0.00  0.00    +0.000 OA
ATOM     26  H   UNL     1       3.095  13.474  17.812  0.00  0.00    +0.000 HD
ATOM     27  H   UNL     1       2.466  12.271  16.705  0.00  0.00    +0.000 HD
ENDBRANCH   1  24
TORSDOF 2
ENDMDL
MODEL 7
REMARK VINA RESULT:      -7.7      3.834      6.537
REMARK  Name = 
REMARK  2 active torsions:
REMARK  status: ('A' for Active; 'I' for Inactive)
REMARK    1  A    between atoms: C_2  and  C_4
REMARK    2  A    between atoms: C_7  and  C_9
REMARK                            x       y       z     vdW  Elec       q    Type
REMARK                         _______ _______ _______ _____ _____    ______ ____
ROOT
ATOM      1  C   UNL     1       0.790  11.543  18.793  0.00  0.00    +0.000 C 
ATOM      2  C   UNL     1      -0.262  11.330  19.872  0.00  0.00    +0.000 C 
ATOM      3  N   UNL     1       0.186  10.444  20.960  0.00  0.00    +0.000 N 
ATOM      4  C   UNL     1      -0.074  10.681  22.333  0.00  0.00    +0.000 C 
ATOM      5  O   UNL     1       0.442  10.009  23.226  0.00  0.00    +0.000 OA
ATOM      6  C   UNL     1       0.887   9.286  20.482  0.00  0.00    +0.000 A 
ATOM      7  C   UNL     1       1.003   8.104  21.229  0.00  0.00    +0.000 A 
ATOM      8  C   UNL     1       1.653   6.976  20.709  0.00  0.00    +0.000 A 
ATOM      9  C   UNL     1       2.203   7.011  19.434  0.00  0.00    +0.000 A 
ATOM     10  C   UNL     1       2.098   8.173  18.677  0.00  0.00    +0.000 A 
ATOM     11  C   UNL     1       1.443   9.298  19.191  0.00  0.00    +0.000 A 
ATOM     12  O   UNL     1       1.428  10.364  18.332  0.00  0.00    +0.000 OA
ENDROOT
BRANCH   4  13
ATOM     13  C   UNL     1      -0.906  11.820  22.706  0.00  0.00    +0.000 A 
ATOM     14  C   UNL     1      -2.286  11.929  22.785  0.00  0.00    +0.000 A 
ATOM     15  C   UNL     1      -2.574  13.222  23.296  0.00  0.00    +0.000 A 
ATOM     16  C   UNL     1      -3.732  13.930  23.664  0.00  0.00    +0.000 A 
ATOM     17  C   UNL     1      -3.580  15.222  24.188  0.00  0.00    +0.000 A 
ATOM     18 CL   UNL     1      -4.982  16.117  24.639  0.00  0.00    +0.000 Cl
ATOM     19  C   UNL     1      -2.320  15.803  24.356  0.00  0.00    +0.000 A 
ATOM     20  C   UNL     1      -1.161  15.117  23.979  0.00  0.00    +0.000 A 
ATOM     21  C   UNL     1      -1.343  13.844  23.447  0.00  0.00    +0.000 A 
ATOM     22  O   UNL     1      -0.346  13.029  23.019  0.00  0.00    +0.000 OA
ENDBRANCH   4  13
BRANCH   1  24
ATOM     23  N   UNL     1       1.363  13.397  20.316  0.00  0.00    +0.000 N 
ATOM     24  C   UNL     1       1.727  12.687  19.210  0.00  0.00    +0.000 C 
ATOM     25  O   UNL     1       2.767  12.957  18.616  0.00  0.00    +0.000 OA
ATOM     26  H   UNL     1       1.958  14.162  20.611  0.00  0.00    +0.000 HD
ATOM     27  H   UNL     1       0.495  13.218  20.802  0.00  0.00    +0.000 HD
ENDBRANCH   1  24
TORSDOF 2
ENDMDL
MODEL 8
REMARK VINA RESULT:      -7.7      3.802      8.117
REMARK  Name = 
REMARK  2 active torsions:
REMARK  status: ('A' for Active; 'I' for Inactive)
REMARK    1  A    between atoms: C_2  and  C_4
REMARK    2  A    between atoms: C_7  and  C_9
REMARK                            x       y       z     vdW  Elec       q    Type
REMARK                         _______ _______ _______ _____ _____    ______ ____
ROOT
ATOM      1  C   UNL     1      -1.023  12.065  18.496  0.00  0.00    +0.000 C 
ATOM      2  C   UNL     1       0.109  11.314  19.183  0.00  0.00    +0.000 C 
ATOM      3  N   UNL     1      -0.288  10.693  20.457  0.00  0.00    +0.000 N 
ATOM      4  C   UNL     1       0.110   9.395  20.865  0.00  0.00    +0.000 C 
ATOM      5  O   UNL     1      -0.360   8.844  21.860  0.00  0.00    +0.000 OA
ATOM      6  C   UNL     1      -1.096  11.557  21.271  0.00  0.00    +0.000 A 
ATOM      7  C   UNL     1      -1.212  11.407  22.661  0.00  0.00    +0.000 A 
ATOM      8  C   UNL     1      -1.971  12.301  23.428  0.00  0.00    +0.000 A 
ATOM      9  C   UNL     1      -2.633  13.359  22.819  0.00  0.00    +0.000 A 
ATOM     10  C   UNL     1      -2.531  13.526  21.441  0.00  0.00    +0.000 A 
ATOM     11  C   UNL     1      -1.766  12.639  20.674  0.00  0.00    +0.000 A 
ATOM     12  O   UNL     1      -1.768  12.930  19.336  0.00  0.00    +0.000 OA
ENDROOT
BRANCH   4  13
ATOM     13  C   UNL     1       1.038   8.646  20.024  0.00  0.00    +0.000 A 
ATOM     14  C   UNL     1       1.552   8.950  18.773  0.00  0.00    +0.000 A 
ATOM     15  C   UNL     1       2.489   7.933  18.449  0.00  0.00    +0.000 A 
ATOM     16  C   UNL     1       3.380   7.677  17.391  0.00  0.00    +0.000 A 
ATOM     17  C   UNL     1       4.197   6.541  17.473  0.00  0.00    +0.000 A 
ATOM     18 CL   UNL     1       5.292   6.197  16.187  0.00  0.00    +0.000 Cl
ATOM     19  C   UNL     1       4.148   5.679  18.573  0.00  0.00    +0.000 A 
ATOM     20  C   UNL     1       3.256   5.911  19.623  0.00  0.00    +0.000 A 
ATOM     21  C   UNL     1       2.447   7.038  19.508  0.00  0.00    +0.000 A 
ATOM     22  O   UNL     1       1.518   7.426  20.418  0.00  0.00    +0.000 OA
ENDBRANCH   4  13
BRANCH   1  24
ATOM     23  N   UNL     1      -2.200  11.502  16.402  0.00  0.00    +0.000 N 
ATOM     24  C   UNL     1      -1.849  11.083  17.651  0.00  0.00    +0.000 C 
ATOM     25  O   UNL     1      -2.172   9.964  18.041  0.00  0.00    +0.000 OA
ATOM     26  H   UNL     1      -2.750  10.879  15.824  0.00  0.00    +0.000 HD
ATOM     27  H   UNL     1      -1.977  12.431  16.070  0.00  0.00    +0.000 HD
ENDBRANCH   1  24
TORSDOF 2
ENDMDL
MODEL 9
REMARK VINA RESULT:      -7.7      3.417      7.240
REMARK  Name = 
REMARK  2 active torsions:
REMARK  status: ('A' for Active; 'I' for Inactive)
REMARK    1  A    between atoms: C_2  and  C_4
REMARK    2  A    between atoms: C_7  and  C_9
REMARK                            x       y       z     vdW  Elec       q    Type
REMARK                         _______ _______ _______ _____ _____    ______ ____
ROOT
ATOM      1  C   UNL     1      -0.577   9.760  21.839  0.00  0.00    +0.000 C 
ATOM      2  C   UNL     1      -0.245   9.159  20.480  0.00  0.00    +0.000 C 
ATOM      3  N   UNL     1       0.575  10.042  19.634  0.00  0.00    +0.000 N 
ATOM      4  C   UNL     1       1.663   9.595  18.843  0.00  0.00    +0.000 C 
ATOM      5  O   UNL     1       2.423  10.374  18.268  0.00  0.00    +0.000 OA
ATOM      6  C   UNL     1       0.134  11.408  19.662  0.00  0.00    +0.000 A 
ATOM      7  C   UNL     1       0.424  12.323  18.639  0.00  0.00    +0.000 A 
ATOM      8  C   UNL     1      -0.066  13.636  18.677  0.00  0.00    +0.000 A 
ATOM      9  C   UNL     1      -0.850  14.059  19.742  0.00  0.00    +0.000 A 
ATOM     10  C   UNL     1      -1.149  13.167  20.767  0.00  0.00    +0.000 A 
ATOM     11  C   UNL     1      -0.668  11.853  20.727  0.00  0.00    +0.000 A 
ATOM     12  O   UNL     1      -1.040  11.100  21.807  0.00  0.00    +0.000 OA
ENDROOT
BRANCH   4  13
ATOM     13  C   UNL     1       1.950   8.165  18.783  0.00  0.00    +0.000 A 
ATOM     14  C   UNL     1       2.203   7.351  17.690  0.00  0.00    +0.000 A 
ATOM     15  C   UNL     1       2.521   6.063  18.194  0.00  0.00    +0.000 A 
ATOM     16  C   UNL     1       2.923   4.831  17.645  0.00  0.00    +0.000 A 
ATOM     17  C   UNL     1       3.193   3.771  18.522  0.00  0.00    +0.000 A 
ATOM     18 CL   UNL     1       3.678   2.248  17.877  0.00  0.00    +0.000 Cl
ATOM     19  C   UNL     1       3.079   3.918  19.907  0.00  0.00    +0.000 A 
ATOM     20  C   UNL     1       2.665   5.130  20.466  0.00  0.00    +0.000 A 
ATOM     21  C   UNL     1       2.390   6.160  19.572  0.00  0.00    +0.000 A 
ATOM     22  O   UNL     1       1.971   7.403  19.919  0.00  0.00    +0.000 OA
ENDBRANCH   4  13
BRANCH   1  24
ATOM     23  N   UNL     1       1.706   8.941  22.286  0.00  0.00    +0.000 N 
ATOM     24  C   UNL     1       0.571   9.475  22.819  0.00  0.00    +0.000 C 
ATOM     25  O   UNL     1       0.510   9.726  24.020  0.00  0.00    +0.000 OA
ATOM     26  H   UNL     1       2.478   8.736  22.909  0.00  0.00    +0.000 HD
ATOM     27  H   UNL     1       1.769   8.692  21.307  0.00  0.00    +0.000 HD
ENDBRANCH   1  24
TORSDOF 2
ENDMDL
