MODEL 1
REMARK VINA RESULT:      -7.9      0.000      0.000
REMARK  Name = 
REMARK  2 active torsions:
REMARK  status: ('A' for Active; 'I' for Inactive)
REMARK    1  A    between atoms: C_2  and  C_9
REMARK    2  A    between atoms: N_3  and  C_4
REMARK                            x       y       z     vdW  Elec       q    Type
REMARK                         _______ _______ _______ _____ _____    ______ ____
ROOT
ATOM      1  C   UNL     1       2.349   8.050  18.434  0.00  0.00    +0.000 A 
ATOM      2  C   UNL     1       2.615   9.202  17.725  0.00  0.00    +0.000 A 
ATOM      3  C   UNL     1       1.971  10.376  18.100  0.00  0.00    +0.000 A 
ATOM      4  C   UNL     1       1.085  10.390  19.176  0.00  0.00    +0.000 A 
ATOM      5  N   UNL     1       0.479  11.600  19.526  0.00  0.00    +0.000 N 
ATOM      6  C   UNL     1       0.047  11.782  20.917  0.00  0.00    +0.000 C 
ATOM      7  C   UNL     1      -1.416  12.163  21.123  0.00  0.00    +0.000 A 
ATOM      8  C   UNL     1      -1.854  12.461  22.424  0.00  0.00    +0.000 A 
ATOM      9  C   UNL     1      -3.177  12.820  22.657  0.00  0.00    +0.000 A 
ATOM     10  C   UNL     1      -4.066  12.913  21.589  0.00  0.00    +0.000 A 
ATOM     11  C   UNL     1      -3.642  12.619  20.288  0.00  0.00    +0.000 A 
ATOM     12  C   UNL     1      -2.323  12.215  20.036  0.00  0.00    +0.000 A 
ATOM     13  C   UNL     1      -1.804  11.745  18.694  0.00  0.00    +0.000 C 
ATOM     14  C   UNL     1      -2.542  11.391  17.422  0.00  0.00    +0.000 C 
ATOM     15  C   UNL     1      -2.306  10.315  18.421  0.00  0.00    +0.000 C 
ATOM     16  C   UNL     1      -0.366  12.184  18.489  0.00  0.00    +0.000 C 
ATOM     17  N   UNL     1       0.871   9.237  19.854  0.00  0.00    +0.000 NA
ATOM     18  N   UNL     1       1.490   8.045  19.478  0.00  0.00    +0.000 NA
ENDROOT
BRANCH   1  20
ATOM     19  O   UNL     1       2.450   5.698  18.233  0.00  0.00    +0.000 OA
ATOM     20  C   UNL     1       3.024   6.774  18.054  0.00  0.00    +0.000 C 
ATOM     21  N   UNL     1       4.284   6.868  17.512  0.00  0.00    +0.000 N 
ATOM     22  H   UNL     1       4.650   7.797  17.302  0.00  0.00    +0.000 HD
BRANCH  21  23
ATOM     23  C   UNL     1       4.986   5.685  17.054  0.00  0.00    +0.000 C 
ATOM     24  C   UNL     1       6.303   5.450  17.780  0.00  0.00    +0.000 C 
ATOM     25  C   UNL     1       7.127   4.580  16.833  0.00  0.00    +0.000 C 
ATOM     26  C   UNL     1       6.466   4.684  15.458  0.00  0.00    +0.000 C 
ATOM     27  C   UNL     1       5.398   5.763  15.588  0.00  0.00    +0.000 C 
ENDBRANCH  21  23
ENDBRANCH   1  20
TORSDOF 2
ENDMDL
MODEL 2
REMARK VINA RESULT:      -7.8      1.791      2.136
REMARK  Name = 
REMARK  2 active torsions:
REMARK  status: ('A' for Active; 'I' for Inactive)
REMARK    1  A    between atoms: C_2  and  C_9
REMARK    2  A    between atoms: N_3  and  C_4
REMARK                            x       y       z     vdW  Elec       q    Type
REMARK                         _______ _______ _______ _____ _____    ______ ____
ROOT
ATOM      1  C   UNL     1       2.255   8.166  18.525  0.00  0.00    +0.000 A 
ATOM      2  C   UNL     1       2.517   9.311  17.802  0.00  0.00    +0.000 A 
ATOM      3  C   UNL     1       1.836  10.476  18.136  0.00  0.00    +0.000 A 
ATOM      4  C   UNL     1       0.920  10.490  19.187  0.00  0.00    +0.000 A 
ATOM      5  N   UNL     1       0.278  11.693  19.496  0.00  0.00    +0.000 N 
ATOM      6  C   UNL     1      -0.197  11.891  20.871  0.00  0.00    +0.000 C 
ATOM      7  C   UNL     1      -1.674  12.242  21.028  0.00  0.00    +0.000 A 
ATOM      8  C   UNL     1      -2.155  12.554  22.310  0.00  0.00    +0.000 A 
ATOM      9  C   UNL     1      -3.492  12.888  22.499  0.00  0.00    +0.000 A 
ATOM     10  C   UNL     1      -4.352  12.942  21.405  0.00  0.00    +0.000 A 
ATOM     11  C   UNL     1      -3.884  12.634  20.122  0.00  0.00    +0.000 A 
ATOM     12  C   UNL     1      -2.551  12.255  19.915  0.00  0.00    +0.000 A 
ATOM     13  C   UNL     1      -1.983  11.772  18.597  0.00  0.00    +0.000 C 
ATOM     14  C   UNL     1      -2.676  11.379  17.312  0.00  0.00    +0.000 C 
ATOM     15  C   UNL     1      -2.446  10.326  18.338  0.00  0.00    +0.000 C 
ATOM     16  C   UNL     1      -0.549  12.239  18.425  0.00  0.00    +0.000 C 
ATOM     17  N   UNL     1       0.712   9.346  19.879  0.00  0.00    +0.000 NA
ATOM     18  N   UNL     1       1.368   8.161  19.544  0.00  0.00    +0.000 NA
ENDROOT
BRANCH   1  20
ATOM     19  O   UNL     1       3.993   6.933  17.503  0.00  0.00    +0.000 OA
ATOM     20  C   UNL     1       2.968   6.899  18.188  0.00  0.00    +0.000 C 
ATOM     21  N   UNL     1       2.430   5.729  18.670  0.00  0.00    +0.000 N 
ATOM     22  H   UNL     1       1.640   5.791  19.312  0.00  0.00    +0.000 HD
BRANCH  21  23
ATOM     23  C   UNL     1       3.092   4.459  18.447  0.00  0.00    +0.000 C 
ATOM     24  C   UNL     1       2.340   3.550  17.485  0.00  0.00    +0.000 C 
ATOM     25  C   UNL     1       2.826   2.140  17.811  0.00  0.00    +0.000 C 
ATOM     26  C   UNL     1       3.497   2.215  19.183  0.00  0.00    +0.000 C 
ATOM     27  C   UNL     1       3.212   3.615  19.711  0.00  0.00    +0.000 C 
ENDBRANCH  21  23
ENDBRANCH   1  20
TORSDOF 2
ENDMDL
MODEL 3
REMARK VINA RESULT:      -7.7      2.615      9.109
REMARK  Name = 
REMARK  2 active torsions:
REMARK  status: ('A' for Active; 'I' for Inactive)
REMARK    1  A    between atoms: C_2  and  C_9
REMARK    2  A    between atoms: N_3  and  C_4
REMARK                            x       y       z     vdW  Elec       q    Type
REMARK                         _______ _______ _______ _____ _____    ______ ____
ROOT
ATOM      1  C   UNL     1      -0.008   9.712  18.953  0.00  0.00    +0.000 A 
ATOM      2  C   UNL     1       0.539   9.268  20.139  0.00  0.00    +0.000 A 
ATOM      3  C   UNL     1       1.653   8.438  20.085  0.00  0.00    +0.000 A 
ATOM      4  C   UNL     1       2.211   8.073  18.861  0.00  0.00    +0.000 A 
ATOM      5  N   UNL     1       3.343   7.252  18.862  0.00  0.00    +0.000 N 
ATOM      6  C   UNL     1       4.259   7.333  17.718  0.00  0.00    +0.000 C 
ATOM      7  C   UNL     1       4.561   6.019  17.004  0.00  0.00    +0.000 A 
ATOM      8  C   UNL     1       5.518   6.021  15.975  0.00  0.00    +0.000 A 
ATOM      9  C   UNL     1       5.831   4.844  15.303  0.00  0.00    +0.000 A 
ATOM     10  C   UNL     1       5.213   3.652  15.672  0.00  0.00    +0.000 A 
ATOM     11  C   UNL     1       4.258   3.638  16.695  0.00  0.00    +0.000 A 
ATOM     12  C   UNL     1       3.898   4.819  17.358  0.00  0.00    +0.000 A 
ATOM     13  C   UNL     1       2.785   4.933  18.378  0.00  0.00    +0.000 C 
ATOM     14  C   UNL     1       1.699   3.953  18.764  0.00  0.00    +0.000 C 
ATOM     15  C   UNL     1       1.424   4.909  17.657  0.00  0.00    +0.000 C 
ATOM     16  C   UNL     1       3.145   5.935  19.459  0.00  0.00    +0.000 C 
ATOM     17  N   UNL     1       1.649   8.549  17.725  0.00  0.00    +0.000 NA
ATOM     18  N   UNL     1       0.518   9.364  17.758  0.00  0.00    +0.000 NA
ENDROOT
BRANCH   1  20
ATOM     19  O   UNL     1      -1.228  11.582  19.727  0.00  0.00    +0.000 OA
ATOM     20  C   UNL     1      -1.206  10.603  18.979  0.00  0.00    +0.000 C 
ATOM     21  N   UNL     1      -2.250  10.275  18.145  0.00  0.00    +0.000 N 
ATOM     22  H   UNL     1      -2.115   9.510  17.484  0.00  0.00    +0.000 HD
BRANCH  21  23
ATOM     23  C   UNL     1      -3.423  11.121  18.057  0.00  0.00    +0.000 C 
ATOM     24  C   UNL     1      -4.691  10.442  18.558  0.00  0.00    +0.000 C 
ATOM     25  C   UNL     1      -5.836  11.195  17.884  0.00  0.00    +0.000 C 
ATOM     26  C   UNL     1      -5.220  11.980  16.724  0.00  0.00    +0.000 C 
ATOM     27  C   UNL     1      -3.774  11.513  16.625  0.00  0.00    +0.000 C 
ENDBRANCH  21  23
ENDBRANCH   1  20
TORSDOF 2
ENDMDL
MODEL 4
REMARK VINA RESULT:      -7.5      1.203      1.576
REMARK  Name = 
REMARK  2 active torsions:
REMARK  status: ('A' for Active; 'I' for Inactive)
REMARK    1  A    between atoms: C_2  and  C_9
REMARK    2  A    between atoms: N_3  and  C_4
REMARK                            x       y       z     vdW  Elec       q    Type
REMARK                         _______ _______ _______ _____ _____    ______ ____
ROOT
ATOM      1  C   UNL     1       1.764   8.519  19.014  0.00  0.00    +0.000 A 
ATOM      2  C   UNL     1       1.962   9.539  18.108  0.00  0.00    +0.000 A 
ATOM      3  C   UNL     1       1.117  10.643  18.157  0.00  0.00    +0.000 A 
ATOM      4  C   UNL     1       0.102  10.721  19.109  0.00  0.00    +0.000 A 
ATOM      5  N   UNL     1      -0.707  11.861  19.129  0.00  0.00    +0.000 N 
ATOM      6  C   UNL     1      -1.343  12.237  20.398  0.00  0.00    +0.000 C 
ATOM      7  C   UNL     1      -2.859  12.407  20.366  0.00  0.00    +0.000 A 
ATOM      8  C   UNL     1      -3.504  12.877  21.522  0.00  0.00    +0.000 A 
ATOM      9  C   UNL     1      -4.884  13.054  21.535  0.00  0.00    +0.000 A 
ATOM     10  C   UNL     1      -5.625  12.793  20.386  0.00  0.00    +0.000 A 
ATOM     11  C   UNL     1      -4.994  12.326  19.228  0.00  0.00    +0.000 A 
ATOM     12  C   UNL     1      -3.610  12.100  19.205  0.00  0.00    +0.000 A 
ATOM     13  C   UNL     1      -2.856  11.470  18.053  0.00  0.00    +0.000 C 
ATOM     14  C   UNL     1      -3.360  10.761  16.816  0.00  0.00    +0.000 C 
ATOM     15  C   UNL     1      -3.115   9.952  18.040  0.00  0.00    +0.000 C 
ATOM     16  C   UNL     1      -1.477  12.088  17.910  0.00  0.00    +0.000 C 
ATOM     17  N   UNL     1      -0.041   9.702  19.989  0.00  0.00    +0.000 NA
ATOM     18  N   UNL     1       0.782   8.577  19.941  0.00  0.00    +0.000 NA
ENDROOT
BRANCH   1  20
ATOM     19  O   UNL     1       2.729   6.587  19.973  0.00  0.00    +0.000 OA
ATOM     20  C   UNL     1       2.653   7.320  18.985  0.00  0.00    +0.000 C 
ATOM     21  N   UNL     1       3.361   7.092  17.828  0.00  0.00    +0.000 N 
ATOM     22  H   UNL     1       3.168   7.685  17.021  0.00  0.00    +0.000 HD
BRANCH  21  23
ATOM     23  C   UNL     1       4.197   5.916  17.688  0.00  0.00    +0.000 C 
ATOM     24  C   UNL     1       5.140   5.988  16.494  0.00  0.00    +0.000 C 
ATOM     25  C   UNL     1       5.483   4.535  16.174  0.00  0.00    +0.000 C 
ATOM     26  C   UNL     1       4.439   3.672  16.885  0.00  0.00    +0.000 C 
ATOM     27  C   UNL     1       3.401   4.641  17.435  0.00  0.00    +0.000 C 
ENDBRANCH  21  23
ENDBRANCH   1  20
TORSDOF 2
ENDMDL
MODEL 5
REMARK VINA RESULT:      -7.4      2.082      9.272
REMARK  Name = 
REMARK  2 active torsions:
REMARK  status: ('A' for Active; 'I' for Inactive)
REMARK    1  A    between atoms: C_2  and  C_9
REMARK    2  A    between atoms: N_3  and  C_4
REMARK                            x       y       z     vdW  Elec       q    Type
REMARK                         _______ _______ _______ _____ _____    ______ ____
ROOT
ATOM      1  C   UNL     1       0.156   9.662  19.234  0.00  0.00    +0.000 A 
ATOM      2  C   UNL     1       0.661   9.103  20.389  0.00  0.00    +0.000 A 
ATOM      3  C   UNL     1       1.741   8.233  20.286  0.00  0.00    +0.000 A 
ATOM      4  C   UNL     1       2.308   7.944  19.046  0.00  0.00    +0.000 A 
ATOM      5  N   UNL     1       3.406   7.079  18.999  0.00  0.00    +0.000 N 
ATOM      6  C   UNL     1       4.346   7.213  17.880  0.00  0.00    +0.000 C 
ATOM      7  C   UNL     1       4.609   5.948  17.068  0.00  0.00    +0.000 A 
ATOM      8  C   UNL     1       5.585   5.992  16.059  0.00  0.00    +0.000 A 
ATOM      9  C   UNL     1       5.863   4.860  15.298  0.00  0.00    +0.000 A 
ATOM     10  C   UNL     1       5.190   3.670  15.560  0.00  0.00    +0.000 A 
ATOM     11  C   UNL     1       4.216   3.614  16.563  0.00  0.00    +0.000 A 
ATOM     12  C   UNL     1       3.890   4.752  17.314  0.00  0.00    +0.000 A 
ATOM     13  C   UNL     1       2.763   4.831  18.321  0.00  0.00    +0.000 C 
ATOM     14  C   UNL     1       1.631   3.871  18.609  0.00  0.00    +0.000 C 
ATOM     15  C   UNL     1       1.416   4.922  17.579  0.00  0.00    +0.000 C 
ATOM     16  C   UNL     1       3.143   5.728  19.485  0.00  0.00    +0.000 C 
ATOM     17  N   UNL     1       1.788   8.533  17.943  0.00  0.00    +0.000 NA
ATOM     18  N   UNL     1       0.691   9.390  18.024  0.00  0.00    +0.000 NA
ENDROOT
BRANCH   1  20
ATOM     19  O   UNL     1      -1.885  10.559  18.449  0.00  0.00    +0.000 OA
ATOM     20  C   UNL     1      -1.005  10.598  19.312  0.00  0.00    +0.000 C 
ATOM     21  N   UNL     1      -1.031  11.479  20.368  0.00  0.00    +0.000 N 
ATOM     22  H   UNL     1      -0.321  11.382  21.093  0.00  0.00    +0.000 HD
BRANCH  21  23
ATOM     23  C   UNL     1      -2.153  12.378  20.557  0.00  0.00    +0.000 C 
ATOM     24  C   UNL     1      -1.818  13.830  20.243  0.00  0.00    +0.000 C 
ATOM     25  C   UNL     1      -2.851  14.649  21.014  0.00  0.00    +0.000 C 
ATOM     26  C   UNL     1      -3.465  13.711  22.054  0.00  0.00    +0.000 C 
ATOM     27  C   UNL     1      -2.641  12.431  22.001  0.00  0.00    +0.000 C 
ENDBRANCH  21  23
ENDBRANCH   1  20
TORSDOF 2
ENDMDL
MODEL 6
REMARK VINA RESULT:      -6.9      2.081      9.225
REMARK  Name = 
REMARK  2 active torsions:
REMARK  status: ('A' for Active; 'I' for Inactive)
REMARK    1  A    between atoms: C_2  and  C_9
REMARK    2  A    between atoms: N_3  and  C_4
REMARK                            x       y       z     vdW  Elec       q    Type
REMARK                         _______ _______ _______ _____ _____    ______ ____
ROOT
ATOM      1  C   UNL     1       0.058   9.897  18.714  0.00  0.00    +0.000 A 
ATOM      2  C   UNL     1       0.486   9.443  19.944  0.00  0.00    +0.000 A 
ATOM      3  C   UNL     1       1.554   8.554  19.988  0.00  0.00    +0.000 A 
ATOM      4  C   UNL     1       2.187   8.142  18.816  0.00  0.00    +0.000 A 
ATOM      5  N   UNL     1       3.270   7.263  18.916  0.00  0.00    +0.000 N 
ATOM      6  C   UNL     1       4.276   7.279  17.847  0.00  0.00    +0.000 C 
ATOM      7  C   UNL     1       4.563   5.940  17.174  0.00  0.00    +0.000 A 
ATOM      8  C   UNL     1       5.596   5.876  16.225  0.00  0.00    +0.000 A 
ATOM      9  C   UNL     1       5.898   4.674  15.592  0.00  0.00    +0.000 A 
ATOM     10  C   UNL     1       5.189   3.522  15.923  0.00  0.00    +0.000 A 
ATOM     11  C   UNL     1       4.158   3.573  16.868  0.00  0.00    +0.000 A 
ATOM     12  C   UNL     1       3.810   4.781  17.488  0.00  0.00    +0.000 A 
ATOM     13  C   UNL     1       2.628   4.969  18.414  0.00  0.00    +0.000 C 
ATOM     14  C   UNL     1       1.464   4.054  18.723  0.00  0.00    +0.000 C 
ATOM     15  C   UNL     1       1.328   5.006  17.588  0.00  0.00    +0.000 C 
ATOM     16  C   UNL     1       2.955   5.967  19.510  0.00  0.00    +0.000 C 
ATOM     17  N   UNL     1       1.743   8.630  17.634  0.00  0.00    +0.000 NA
ATOM     18  N   UNL     1       0.658   9.504  17.568  0.00  0.00    +0.000 NA
ENDROOT
BRANCH   1  20
ATOM     19  O   UNL     1      -1.641  11.057  17.553  0.00  0.00    +0.000 OA
ATOM     20  C   UNL     1      -1.088  10.850  18.635  0.00  0.00    +0.000 C 
ATOM     21  N   UNL     1      -1.475  11.465  19.802  0.00  0.00    +0.000 N 
ATOM     22  H   UNL     1      -1.035  11.166  20.672  0.00  0.00    +0.000 HD
BRANCH  21  23
ATOM     23  C   UNL     1      -2.619  12.354  19.829  0.00  0.00    +0.000 C 
ATOM     24  C   UNL     1      -3.006  12.792  21.235  0.00  0.00    +0.000 C 
ATOM     25  C   UNL     1      -4.474  13.200  21.133  0.00  0.00    +0.000 C 
ATOM     26  C   UNL     1      -5.002  12.609  19.825  0.00  0.00    +0.000 C 
ATOM     27  C   UNL     1      -3.894  11.707  19.297  0.00  0.00    +0.000 C 
ENDBRANCH  21  23
ENDBRANCH   1  20
TORSDOF 2
ENDMDL
MODEL 7
REMARK VINA RESULT:      -6.9      1.443      1.536
REMARK  Name = 
REMARK  2 active torsions:
REMARK  status: ('A' for Active; 'I' for Inactive)
REMARK    1  A    between atoms: C_2  and  C_9
REMARK    2  A    between atoms: N_3  and  C_4
REMARK                            x       y       z     vdW  Elec       q    Type
REMARK                         _______ _______ _______ _____ _____    ______ ____
ROOT
ATOM      1  C   UNL     1       2.001   8.598  18.666  0.00  0.00    +0.000 A 
ATOM      2  C   UNL     1       2.202   9.742  17.923  0.00  0.00    +0.000 A 
ATOM      3  C   UNL     1       1.414  10.855  18.194  0.00  0.00    +0.000 A 
ATOM      4  C   UNL     1       0.452  10.819  19.203  0.00  0.00    +0.000 A 
ATOM      5  N   UNL     1      -0.300  11.971  19.449  0.00  0.00    +0.000 N 
ATOM      6  C   UNL     1      -0.853  12.164  20.795  0.00  0.00    +0.000 C 
ATOM      7  C   UNL     1      -2.359  12.395  20.877  0.00  0.00    +0.000 A 
ATOM      8  C   UNL     1      -2.923  12.698  22.128  0.00  0.00    +0.000 A 
ATOM      9  C   UNL     1      -4.290  12.924  22.248  0.00  0.00    +0.000 A 
ATOM     10  C   UNL     1      -5.099  12.879  21.116  0.00  0.00    +0.000 A 
ATOM     11  C   UNL     1      -4.549  12.580  19.864  0.00  0.00    +0.000 A 
ATOM     12  C   UNL     1      -3.181  12.307  19.727  0.00  0.00    +0.000 A 
ATOM     13  C   UNL     1      -2.516  11.841  18.449  0.00  0.00    +0.000 C 
ATOM     14  C   UNL     1      -3.115  11.360  17.147  0.00  0.00    +0.000 C 
ATOM     15  C   UNL     1      -2.847  10.356  18.211  0.00  0.00    +0.000 C 
ATOM     16  C   UNL     1      -1.119  12.421  18.327  0.00  0.00    +0.000 C 
ATOM     17  N   UNL     1       0.306   9.678  19.918  0.00  0.00    +0.000 NA
ATOM     18  N   UNL     1       1.071   8.545  19.645  0.00  0.00    +0.000 NA
ENDROOT
BRANCH   1  20
ATOM     19  O   UNL     1       3.719   7.426  17.544  0.00  0.00    +0.000 OA
ATOM     20  C   UNL     1       2.830   7.386  18.398  0.00  0.00    +0.000 C 
ATOM     21  N   UNL     1       2.550   6.258  19.133  0.00  0.00    +0.000 N 
ATOM     22  H   UNL     1       1.870   6.334  19.889  0.00  0.00    +0.000 HD
BRANCH  21  23
ATOM     23  C   UNL     1       3.348   5.057  18.984  0.00  0.00    +0.000 C 
ATOM     24  C   UNL     1       4.838   5.298  19.186  0.00  0.00    +0.000 C 
ATOM     25  C   UNL     1       5.527   4.147  18.455  0.00  0.00    +0.000 C 
ATOM     26  C   UNL     1       4.481   3.532  17.524  0.00  0.00    +0.000 C 
ATOM     27  C   UNL     1       3.272   4.457  17.585  0.00  0.00    +0.000 C 
ENDBRANCH  21  23
ENDBRANCH   1  20
TORSDOF 2
ENDMDL
MODEL 8
REMARK VINA RESULT:      -6.7      2.045      2.177
REMARK  Name = 
REMARK  2 active torsions:
REMARK  status: ('A' for Active; 'I' for Inactive)
REMARK    1  A    between atoms: C_2  and  C_9
REMARK    2  A    between atoms: N_3  and  C_4
REMARK                            x       y       z     vdW  Elec       q    Type
REMARK                         _______ _______ _______ _____ _____    ______ ____
ROOT
ATOM      1  C   UNL     1       2.263   7.420  18.826  0.00  0.00    +0.000 A 
ATOM      2  C   UNL     1       2.567   8.363  17.868  0.00  0.00    +0.000 A 
ATOM      3  C   UNL     1       2.139   9.672  18.067  0.00  0.00    +0.000 A 
ATOM      4  C   UNL     1       1.430  10.023  19.215  0.00  0.00    +0.000 A 
ATOM      5  N   UNL     1       1.041  11.356  19.377  0.00  0.00    +0.000 N 
ATOM      6  C   UNL     1       0.845  11.859  20.742  0.00  0.00    +0.000 C 
ATOM      7  C   UNL     1      -0.512  12.492  21.037  0.00  0.00    +0.000 A 
ATOM      8  C   UNL     1      -0.712  13.091  22.291  0.00  0.00    +0.000 A 
ATOM      9  C   UNL     1      -1.931  13.687  22.601  0.00  0.00    +0.000 A 
ATOM     10  C   UNL     1      -2.947  13.715  21.649  0.00  0.00    +0.000 A 
ATOM     11  C   UNL     1      -2.759  13.121  20.396  0.00  0.00    +0.000 A 
ATOM     12  C   UNL     1      -1.555  12.479  20.078  0.00  0.00    +0.000 A 
ATOM     13  C   UNL     1      -1.302  11.693  18.809  0.00  0.00    +0.000 C 
ATOM     14  C   UNL     1      -2.258  11.225  17.734  0.00  0.00    +0.000 C 
ATOM     15  C   UNL     1      -2.017  10.331  18.899  0.00  0.00    +0.000 C 
ATOM     16  C   UNL     1       0.134  11.859  18.349  0.00  0.00    +0.000 C 
ATOM     17  N   UNL     1       1.173   9.064  20.135  0.00  0.00    +0.000 NA
ATOM     18  N   UNL     1       1.574   7.742  19.942  0.00  0.00    +0.000 NA
ENDROOT
BRANCH   1  20
ATOM     19  O   UNL     1       3.763   5.766  18.051  0.00  0.00    +0.000 OA
ATOM     20  C   UNL     1       2.707   6.006  18.639  0.00  0.00    +0.000 C 
ATOM     21  N   UNL     1       1.891   5.021  19.144  0.00  0.00    +0.000 N 
ATOM     22  H   UNL     1       1.088   5.302  19.705  0.00  0.00    +0.000 HD
BRANCH  21  23
ATOM     23  C   UNL     1       2.277   3.626  19.066  0.00  0.00    +0.000 C 
ATOM     24  C   UNL     1       3.538   3.306  19.858  0.00  0.00    +0.000 C 
ATOM     25  C   UNL     1       4.091   2.032  19.223  0.00  0.00    +0.000 C 
ATOM     26  C   UNL     1       3.406   1.888  17.864  0.00  0.00    +0.000 C 
ATOM     27  C   UNL     1       2.624   3.178  17.651  0.00  0.00    +0.000 C 
ENDBRANCH  21  23
ENDBRANCH   1  20
TORSDOF 2
ENDMDL
MODEL 9
REMARK VINA RESULT:      -6.7      2.290      3.670
REMARK  Name = 
REMARK  2 active torsions:
REMARK  status: ('A' for Active; 'I' for Inactive)
REMARK    1  A    between atoms: C_2  and  C_9
REMARK    2  A    between atoms: N_3  and  C_4
REMARK                            x       y       z     vdW  Elec       q    Type
REMARK                         _______ _______ _______ _____ _____    ______ ____
ROOT
ATOM      1  C   UNL     1       0.944   9.489  20.444  0.00  0.00    +0.000 A 
ATOM      2  C   UNL     1       0.159  10.011  19.438  0.00  0.00    +0.000 A 
ATOM      3  C   UNL     1      -0.369  11.287  19.603  0.00  0.00    +0.000 A 
ATOM      4  C   UNL     1      -0.101  12.025  20.755  0.00  0.00    +0.000 A 
ATOM      5  N   UNL     1      -0.640  13.311  20.864  0.00  0.00    +0.000 N 
ATOM      6  C   UNL     1       0.058  14.285  21.711  0.00  0.00    +0.000 C 
ATOM      7  C   UNL     1      -0.777  14.947  22.803  0.00  0.00    +0.000 A 
ATOM      8  C   UNL     1      -0.190  15.969  23.567  0.00  0.00    +0.000 A 
ATOM      9  C   UNL     1      -0.916  16.606  24.569  0.00  0.00    +0.000 A 
ATOM     10  C   UNL     1      -2.243  16.247  24.794  0.00  0.00    +0.000 A 
ATOM     11  C   UNL     1      -2.839  15.231  24.038  0.00  0.00    +0.000 A 
ATOM     12  C   UNL     1      -2.113  14.548  23.053  0.00  0.00    +0.000 A 
ATOM     13  C   UNL     1      -2.620  13.349  22.280  0.00  0.00    +0.000 C 
ATOM     14  C   UNL     1      -3.844  12.487  22.492  0.00  0.00    +0.000 C 
ATOM     15  C   UNL     1      -2.585  12.103  23.185  0.00  0.00    +0.000 C 
ATOM     16  C   UNL     1      -2.099  13.367  20.855  0.00  0.00    +0.000 C 
ATOM     17  N   UNL     1       0.691  11.477  21.706  0.00  0.00    +0.000 NA
ATOM     18  N   UNL     1       1.211  10.190  21.568  0.00  0.00    +0.000 NA
ENDROOT
BRANCH   1  20
ATOM     19  O   UNL     1       1.356   7.283  21.184  0.00  0.00    +0.000 OA
ATOM     20  C   UNL     1       1.524   8.122  20.296  0.00  0.00    +0.000 C 
ATOM     21  N   UNL     1       2.236   7.863  19.148  0.00  0.00    +0.000 N 
ATOM     22  H   UNL     1       2.245   8.573  18.417  0.00  0.00    +0.000 HD
BRANCH  21  23
ATOM     23  C   UNL     1       2.778   6.543  18.892  0.00  0.00    +0.000 C 
ATOM     24  C   UNL     1       3.952   6.553  17.922  0.00  0.00    +0.000 C 
ATOM     25  C   UNL     1       4.002   5.140  17.346  0.00  0.00    +0.000 C 
ATOM     26  C   UNL     1       2.652   4.493  17.657  0.00  0.00    +0.000 C 
ATOM     27  C   UNL     1       1.778   5.603  18.226  0.00  0.00    +0.000 C 
ENDBRANCH  21  23
ENDBRANCH   1  20
TORSDOF 2
ENDMDL
