MODEL 1
REMARK VINA RESULT:      -9.1      0.000      0.000
REMARK  Name = 
REMARK  6 active torsions:
REMARK  status: ('A' for Active; 'I' for Inactive)
REMARK    1  A    between atoms: C_1  and  C_2
REMARK    2  A    between atoms: C_7  and  C_8
REMARK    3  A    between atoms: C_10  and  N_11
REMARK    4  A    between atoms: C_12  and  C_14
REMARK    5  A    between atoms: N_22  and  S_23
REMARK    6  A    between atoms: S_23  and  C_24
REMARK                            x       y       z     vdW  Elec       q    Type
REMARK                         _______ _______ _______ _____ _____    ______ ____
ROOT
ATOM      1  N   UNL     1       7.467   8.813  17.253  0.00  0.00    +0.000 N 
ATOM      2  C   UNL     1       8.449   9.167  18.245  0.00  0.00    +0.000 C 
ATOM      3  O   UNL     1       8.839   8.362  19.077  0.00  0.00    +0.000 OA
ATOM      4  H   UNL     1       7.218   9.478  16.537  0.00  0.00    +0.000 HD
ENDROOT
BRANCH   2   5
ATOM      5  C   UNL     1       9.010  10.538  18.231  0.00  0.00    +0.000 A 
ATOM      6  C   UNL     1       8.363  11.620  17.608  0.00  0.00    +0.000 A 
ATOM      7  C   UNL     1       8.890  12.917  17.722  0.00  0.00    +0.000 A 
ATOM      8  C   UNL     1      10.061  13.109  18.438  0.00  0.00    +0.000 A 
ATOM      9  C   UNL     1      10.702  12.032  19.048  0.00  0.00    +0.000 A 
ATOM     10  C   UNL     1      10.197  10.747  18.953  0.00  0.00    +0.000 A 
ATOM     11  C   UNL     1      11.949  12.461  19.759  0.00  0.00    +0.000 C 
ATOM     12  C   UNL     1      11.869  13.998  19.699  0.00  0.00    +0.000 C 
ATOM     13  N   UNL     1      10.734  14.302  18.793  0.00  0.00    +0.000 N 
BRANCH  13  14
ATOM     14  S   UNL     1      10.577  15.796  18.074  0.00  0.00    +0.000 S 
ATOM     15  C   UNL     1      11.789  16.740  18.975  0.00  0.00    +0.000 C 
ATOM     16  O   UNL     1      11.047  15.685  16.709  0.00  0.00    +0.000 OA
ATOM     17  O   UNL     1       9.282  16.365  18.372  0.00  0.00    +0.000 OA
ENDBRANCH  13  14
ENDBRANCH   2   5
BRANCH   1  20
ATOM     18  C   UNL     1       5.519   5.774  17.351  0.00  0.00    +0.000 A 
ATOM     19  C   UNL     1       5.613   7.173  17.573  0.00  0.00    +0.000 A 
ATOM     20  C   UNL     1       6.882   7.546  17.207  0.00  0.00    +0.000 A 
ATOM     21  N   UNL     1       7.472   6.385  16.779  0.00  0.00    +0.000 N 
ATOM     22  N   UNL     1       6.686   5.298  16.889  0.00  0.00    +0.000 NA
ATOM     23  H   UNL     1       8.405   6.252  16.409  0.00  0.00    +0.000 HD
BRANCH  18  30
ATOM     24  C   UNL     1       3.524   1.289  18.364  0.00  0.00    +0.000 C 
ATOM     25  C   UNL     1       3.363   2.763  18.133  0.00  0.00    +0.000 A 
ATOM     26  C   UNL     1       2.107   3.369  18.269  0.00  0.00    +0.000 A 
ATOM     27  C   UNL     1       1.965   4.740  18.070  0.00  0.00    +0.000 A 
ATOM     28  C   UNL     1       3.080   5.507  17.747  0.00  0.00    +0.000 A 
ATOM     29  F   UNL     1       2.896   6.826  17.565  0.00  0.00    +0.000 F 
ATOM     30  C   UNL     1       4.351   4.935  17.613  0.00  0.00    +0.000 A 
ATOM     31  C   UNL     1       4.480   3.550  17.796  0.00  0.00    +0.000 A 
ENDBRANCH  18  30
ENDBRANCH   1  20
TORSDOF 4
ENDMDL
MODEL 2
REMARK VINA RESULT:      -8.9      1.081      1.250
REMARK  Name = 
REMARK  6 active torsions:
REMARK  status: ('A' for Active; 'I' for Inactive)
REMARK    1  A    between atoms: C_1  and  C_2
REMARK    2  A    between atoms: C_7  and  C_8
REMARK    3  A    between atoms: C_10  and  N_11
REMARK    4  A    between atoms: C_12  and  C_14
REMARK    5  A    between atoms: N_22  and  S_23
REMARK    6  A    between atoms: S_23  and  C_24
REMARK                            x       y       z     vdW  Elec       q    Type
REMARK                         _______ _______ _______ _____ _____    ______ ____
ROOT
ATOM      1  N   UNL     1       7.419   8.516  17.408  0.00  0.00    +0.000 N 
ATOM      2  C   UNL     1       8.424   8.964  18.338  0.00  0.00    +0.000 C 
ATOM      3  O   UNL     1       8.898   8.216  19.178  0.00  0.00    +0.000 OA
ATOM      4  H   UNL     1       7.099   9.138  16.681  0.00  0.00    +0.000 HD
ENDROOT
BRANCH   2   5
ATOM      5  C   UNL     1       8.904  10.363  18.245  0.00  0.00    +0.000 A 
ATOM      6  C   UNL     1       8.228  11.354  17.511  0.00  0.00    +0.000 A 
ATOM      7  C   UNL     1       8.671  12.686  17.551  0.00  0.00    +0.000 A 
ATOM      8  C   UNL     1       9.790  13.002  18.305  0.00  0.00    +0.000 A 
ATOM      9  C   UNL     1      10.460  12.016  19.025  0.00  0.00    +0.000 A 
ATOM     10  C   UNL     1      10.037  10.698  19.005  0.00  0.00    +0.000 A 
ATOM     11  C   UNL     1      11.640  12.573  19.760  0.00  0.00    +0.000 C 
ATOM     12  C   UNL     1      11.474  14.093  19.579  0.00  0.00    +0.000 C 
ATOM     13  N   UNL     1      10.372  14.258  18.600  0.00  0.00    +0.000 N 
BRANCH  13  14
ATOM     14  S   UNL     1      10.165  15.682  17.761  0.00  0.00    +0.000 S 
ATOM     15  C   UNL     1      10.932  16.847  18.869  0.00  0.00    +0.000 C 
ATOM     16  O   UNL     1      10.984  15.620  16.569  0.00  0.00    +0.000 OA
ATOM     17  O   UNL     1       8.763  16.023  17.685  0.00  0.00    +0.000 OA
ENDBRANCH  13  14
ENDBRANCH   2   5
BRANCH   1  20
ATOM     18  C   UNL     1       5.642   5.384  17.680  0.00  0.00    +0.000 A 
ATOM     19  C   UNL     1       5.655   6.798  17.809  0.00  0.00    +0.000 A 
ATOM     20  C   UNL     1       6.907   7.218  17.438  0.00  0.00    +0.000 A 
ATOM     21  N   UNL     1       7.569   6.067  17.095  0.00  0.00    +0.000 N 
ATOM     22  N   UNL     1       6.842   4.946  17.267  0.00  0.00    +0.000 NA
ATOM     23  H   UNL     1       8.514   5.964  16.749  0.00  0.00    +0.000 HD
BRANCH  18  30
ATOM     24  C   UNL     1       2.407   3.423  20.966  0.00  0.00    +0.000 C 
ATOM     25  C   UNL     1       2.917   3.552  19.561  0.00  0.00    +0.000 A 
ATOM     26  C   UNL     1       2.258   2.909  18.505  0.00  0.00    +0.000 A 
ATOM     27  C   UNL     1       2.725   3.046  17.201  0.00  0.00    +0.000 A 
ATOM     28  C   UNL     1       3.843   3.834  16.949  0.00  0.00    +0.000 A 
ATOM     29  F   UNL     1       4.257   3.938  15.675  0.00  0.00    +0.000 F 
ATOM     30  C   UNL     1       4.519   4.499  17.979  0.00  0.00    +0.000 A 
ATOM     31  C   UNL     1       4.053   4.339  19.293  0.00  0.00    +0.000 A 
ENDBRANCH  18  30
ENDBRANCH   1  20
TORSDOF 4
ENDMDL
MODEL 3
REMARK VINA RESULT:      -8.8      7.623      9.631
REMARK  Name = 
REMARK  6 active torsions:
REMARK  status: ('A' for Active; 'I' for Inactive)
REMARK    1  A    between atoms: C_1  and  C_2
REMARK    2  A    between atoms: C_7  and  C_8
REMARK    3  A    between atoms: C_10  and  N_11
REMARK    4  A    between atoms: C_12  and  C_14
REMARK    5  A    between atoms: N_22  and  S_23
REMARK    6  A    between atoms: S_23  and  C_24
REMARK                            x       y       z     vdW  Elec       q    Type
REMARK                         _______ _______ _______ _____ _____    ______ ____
ROOT
ATOM      1  N   UNL     1       1.309   8.050  20.060  0.00  0.00    +0.000 N 
ATOM      2  C   UNL     1       1.227   8.682  21.351  0.00  0.00    +0.000 C 
ATOM      3  O   UNL     1       2.008   8.406  22.250  0.00  0.00    +0.000 OA
ATOM      4  H   UNL     1       0.695   8.350  19.318  0.00  0.00    +0.000 HD
ENDROOT
BRANCH   2   5
ATOM      5  C   UNL     1       0.182   9.707  21.576  0.00  0.00    +0.000 A 
ATOM      6  C   UNL     1      -0.366   9.973  22.843  0.00  0.00    +0.000 A 
ATOM      7  C   UNL     1      -1.275  11.031  23.011  0.00  0.00    +0.000 A 
ATOM      8  C   UNL     1      -1.635  11.791  21.910  0.00  0.00    +0.000 A 
ATOM      9  C   UNL     1      -1.095  11.519  20.654  0.00  0.00    +0.000 A 
ATOM     10  C   UNL     1      -0.193  10.485  20.468  0.00  0.00    +0.000 A 
ATOM     11  C   UNL     1      -1.625  12.453  19.610  0.00  0.00    +0.000 C 
ATOM     12  C   UNL     1      -2.400  13.494  20.439  0.00  0.00    +0.000 C 
ATOM     13  N   UNL     1      -2.430  12.958  21.822  0.00  0.00    +0.000 N 
BRANCH  13  14
ATOM     14  S   UNL     1      -3.542  13.503  22.937  0.00  0.00    +0.000 S 
ATOM     15  C   UNL     1      -4.363  14.780  22.007  0.00  0.00    +0.000 C 
ATOM     16  O   UNL     1      -4.505  12.445  23.158  0.00  0.00    +0.000 OA
ATOM     17  O   UNL     1      -2.871  14.143  24.045  0.00  0.00    +0.000 OA
ENDBRANCH  13  14
ENDBRANCH   2   5
BRANCH   1  20
ATOM     18  C   UNL     1       3.892   5.814  18.891  0.00  0.00    +0.000 A 
ATOM     19  C   UNL     1       3.178   7.033  18.756  0.00  0.00    +0.000 A 
ATOM     20  C   UNL     1       2.257   7.067  19.773  0.00  0.00    +0.000 A 
ATOM     21  N   UNL     1       2.465   5.901  20.463  0.00  0.00    +0.000 N 
ATOM     22  N   UNL     1       3.418   5.112  19.932  0.00  0.00    +0.000 NA
ATOM     23  H   UNL     1       1.993   5.569  21.295  0.00  0.00    +0.000 HD
BRANCH  18  30
ATOM     24  C   UNL     1       5.499   4.335  14.380  0.00  0.00    +0.000 C 
ATOM     25  C   UNL     1       5.773   4.642  15.823  0.00  0.00    +0.000 A 
ATOM     26  C   UNL     1       7.080   4.581  16.326  0.00  0.00    +0.000 A 
ATOM     27  C   UNL     1       7.331   4.883  17.661  0.00  0.00    +0.000 A 
ATOM     28  C   UNL     1       6.281   5.259  18.492  0.00  0.00    +0.000 A 
ATOM     29  F   UNL     1       6.571   5.542  19.772  0.00  0.00    +0.000 F 
ATOM     30  C   UNL     1       4.965   5.341  18.019  0.00  0.00    +0.000 A 
ATOM     31  C   UNL     1       4.718   5.014  16.677  0.00  0.00    +0.000 A 
ENDBRANCH  18  30
ENDBRANCH   1  20
TORSDOF 4
ENDMDL
MODEL 4
REMARK VINA RESULT:      -8.6      7.609     10.495
REMARK  Name = 
REMARK  6 active torsions:
REMARK  status: ('A' for Active; 'I' for Inactive)
REMARK    1  A    between atoms: C_1  and  C_2
REMARK    2  A    between atoms: C_7  and  C_8
REMARK    3  A    between atoms: C_10  and  N_11
REMARK    4  A    between atoms: C_12  and  C_14
REMARK    5  A    between atoms: N_22  and  S_23
REMARK    6  A    between atoms: S_23  and  C_24
REMARK                            x       y       z     vdW  Elec       q    Type
REMARK                         _______ _______ _______ _____ _____    ______ ____
ROOT
ATOM      1  N   UNL     1       1.525   9.163  20.689  0.00  0.00    +0.000 N 
ATOM      2  C   UNL     1       1.556   7.734  20.509  0.00  0.00    +0.000 C 
ATOM      3  O   UNL     1       0.822   6.992  21.143  0.00  0.00    +0.000 OA
ATOM      4  H   UNL     1       2.093   9.753  20.100  0.00  0.00    +0.000 HD
ENDROOT
BRANCH   2   5
ATOM      5  C   UNL     1       2.491   7.165  19.510  0.00  0.00    +0.000 A 
ATOM      6  C   UNL     1       2.849   7.839  18.329  0.00  0.00    +0.000 A 
ATOM      7  C   UNL     1       3.823   7.296  17.475  0.00  0.00    +0.000 A 
ATOM      8  C   UNL     1       4.407   6.084  17.803  0.00  0.00    +0.000 A 
ATOM      9  C   UNL     1       4.044   5.416  18.971  0.00  0.00    +0.000 A 
ATOM     10  C   UNL     1       3.091   5.936  19.830  0.00  0.00    +0.000 A 
ATOM     11  C   UNL     1       4.790   4.126  19.125  0.00  0.00    +0.000 C 
ATOM     12  C   UNL     1       5.839   4.197  18.000  0.00  0.00    +0.000 C 
ATOM     13  N   UNL     1       5.470   5.382  17.187  0.00  0.00    +0.000 N 
BRANCH  13  14
ATOM     14  S   UNL     1       6.029   5.570  15.629  0.00  0.00    +0.000 S 
ATOM     15  C   UNL     1       5.639   3.979  14.930  0.00  0.00    +0.000 C 
ATOM     16  O   UNL     1       5.188   6.547  14.969  0.00  0.00    +0.000 OA
ATOM     17  O   UNL     1       7.468   5.700  15.622  0.00  0.00    +0.000 OA
ENDBRANCH  13  14
ENDBRANCH   2   5
BRANCH   1  20
ATOM     18  C   UNL     1      -0.736  11.123  22.709  0.00  0.00    +0.000 A 
ATOM     19  C   UNL     1      -0.074  10.911  21.472  0.00  0.00    +0.000 A 
ATOM     20  C   UNL     1       0.682   9.775  21.618  0.00  0.00    +0.000 A 
ATOM     21  N   UNL     1       0.433   9.359  22.900  0.00  0.00    +0.000 N 
ATOM     22  N   UNL     1      -0.389  10.172  23.591  0.00  0.00    +0.000 NA
ATOM     23  H   UNL     1       0.791   8.541  23.377  0.00  0.00    +0.000 HD
BRANCH  18  30
ATOM     24  C   UNL     1      -5.202  12.772  24.278  0.00  0.00    +0.000 C 
ATOM     25  C   UNL     1      -3.802  13.049  23.814  0.00  0.00    +0.000 A 
ATOM     26  C   UNL     1      -3.312  14.361  23.781  0.00  0.00    +0.000 A 
ATOM     27  C   UNL     1      -2.007  14.611  23.367  0.00  0.00    +0.000 A 
ATOM     28  C   UNL     1      -1.187  13.550  22.996  0.00  0.00    +0.000 A 
ATOM     29  F   UNL     1       0.065  13.839  22.604  0.00  0.00    +0.000 F 
ATOM     30  C   UNL     1      -1.642  12.226  23.027  0.00  0.00    +0.000 A 
ATOM     31  C   UNL     1      -2.964  11.986  23.427  0.00  0.00    +0.000 A 
ENDBRANCH  18  30
ENDBRANCH   1  20
TORSDOF 4
ENDMDL
MODEL 5
REMARK VINA RESULT:      -8.6      7.080     10.197
REMARK  Name = 
REMARK  6 active torsions:
REMARK  status: ('A' for Active; 'I' for Inactive)
REMARK    1  A    between atoms: C_1  and  C_2
REMARK    2  A    between atoms: C_7  and  C_8
REMARK    3  A    between atoms: C_10  and  N_11
REMARK    4  A    between atoms: C_12  and  C_14
REMARK    5  A    between atoms: N_22  and  S_23
REMARK    6  A    between atoms: S_23  and  C_24
REMARK                            x       y       z     vdW  Elec       q    Type
REMARK                         _______ _______ _______ _____ _____    ______ ____
ROOT
ATOM      1  N   UNL     1       0.834   9.469  17.871  0.00  0.00    +0.000 N 
ATOM      2  C   UNL     1       1.493   8.660  18.864  0.00  0.00    +0.000 C 
ATOM      3  O   UNL     1       1.150   8.680  20.037  0.00  0.00    +0.000 OA
ATOM      4  H   UNL     1       1.093   9.377  16.901  0.00  0.00    +0.000 HD
ENDROOT
BRANCH   2   5
ATOM      5  C   UNL     1       2.596   7.769  18.437  0.00  0.00    +0.000 A 
ATOM      6  C   UNL     1       3.491   8.104  17.405  0.00  0.00    +0.000 A 
ATOM      7  C   UNL     1       4.582   7.267  17.119  0.00  0.00    +0.000 A 
ATOM      8  C   UNL     1       4.751   6.104  17.852  0.00  0.00    +0.000 A 
ATOM      9  C   UNL     1       3.858   5.773  18.869  0.00  0.00    +0.000 A 
ATOM     10  C   UNL     1       2.779   6.586  19.171  0.00  0.00    +0.000 A 
ATOM     11  C   UNL     1       4.221   4.476  19.523  0.00  0.00    +0.000 C 
ATOM     12  C   UNL     1       5.603   4.160  18.921  0.00  0.00    +0.000 C 
ATOM     13  N   UNL     1       5.803   5.159  17.843  0.00  0.00    +0.000 N 
BRANCH  13  14
ATOM     14  S   UNL     1       6.922   4.913  16.634  0.00  0.00    +0.000 S 
ATOM     15  C   UNL     1       6.004   3.868  15.522  0.00  0.00    +0.000 C 
ATOM     16  O   UNL     1       7.133   6.177  15.959  0.00  0.00    +0.000 OA
ATOM     17  O   UNL     1       8.037   4.139  17.129  0.00  0.00    +0.000 OA
ENDBRANCH  13  14
ENDBRANCH   2   5
BRANCH   1  20
ATOM     18  C   UNL     1      -2.175  11.381  18.443  0.00  0.00    +0.000 A 
ATOM     19  C   UNL     1      -1.544  10.223  17.918  0.00  0.00    +0.000 A 
ATOM     20  C   UNL     1      -0.205  10.342  18.195  0.00  0.00    +0.000 A 
ATOM     21  N   UNL     1      -0.098  11.530  18.871  0.00  0.00    +0.000 N 
ATOM     22  N   UNL     1      -1.263  12.193  19.002  0.00  0.00    +0.000 NA
ATOM     23  H   UNL     1       0.731  11.959  19.263  0.00  0.00    +0.000 HD
BRANCH  18  30
ATOM     24  C   UNL     1      -6.403  12.936  20.639  0.00  0.00    +0.000 C 
ATOM     25  C   UNL     1      -5.664  12.477  19.417  0.00  0.00    +0.000 A 
ATOM     26  C   UNL     1      -6.304  12.447  18.171  0.00  0.00    +0.000 A 
ATOM     27  C   UNL     1      -5.610  12.037  17.036  0.00  0.00    +0.000 A 
ATOM     28  C   UNL     1      -4.273  11.668  17.143  0.00  0.00    +0.000 A 
ATOM     29  F   UNL     1      -3.643  11.280  16.022  0.00  0.00    +0.000 F 
ATOM     30  C   UNL     1      -3.600  11.697  18.371  0.00  0.00    +0.000 A 
ATOM     31  C   UNL     1      -4.314  12.092  19.512  0.00  0.00    +0.000 A 
ENDBRANCH  18  30
ENDBRANCH   1  20
TORSDOF 4
ENDMDL
MODEL 6
REMARK VINA RESULT:      -8.6      7.070      8.432
REMARK  Name = 
REMARK  6 active torsions:
REMARK  status: ('A' for Active; 'I' for Inactive)
REMARK    1  A    between atoms: C_1  and  C_2
REMARK    2  A    between atoms: C_7  and  C_8
REMARK    3  A    between atoms: C_10  and  N_11
REMARK    4  A    between atoms: C_12  and  C_14
REMARK    5  A    between atoms: N_22  and  S_23
REMARK    6  A    between atoms: S_23  and  C_24
REMARK                            x       y       z     vdW  Elec       q    Type
REMARK                         _______ _______ _______ _____ _____    ______ ____
ROOT
ATOM      1  N   UNL     1       3.638   7.444  17.882  0.00  0.00    +0.000 N 
ATOM      2  C   UNL     1       2.522   7.160  18.749  0.00  0.00    +0.000 C 
ATOM      3  O   UNL     1       2.150   6.016  18.961  0.00  0.00    +0.000 OA
ATOM      4  H   UNL     1       3.965   8.393  17.784  0.00  0.00    +0.000 HD
ENDROOT
BRANCH   2   5
ATOM      5  C   UNL     1       1.833   8.291  19.413  0.00  0.00    +0.000 A 
ATOM      6  C   UNL     1       1.432   9.449  18.724  0.00  0.00    +0.000 A 
ATOM      7  C   UNL     1       0.686  10.440  19.385  0.00  0.00    +0.000 A 
ATOM      8  C   UNL     1       0.372  10.267  20.723  0.00  0.00    +0.000 A 
ATOM      9  C   UNL     1       0.778   9.121  21.403  0.00  0.00    +0.000 A 
ATOM     10  C   UNL     1       1.509   8.130  20.770  0.00  0.00    +0.000 A 
ATOM     11  C   UNL     1       0.341   9.143  22.835  0.00  0.00    +0.000 C 
ATOM     12  C   UNL     1      -0.597  10.363  22.891  0.00  0.00    +0.000 C 
ATOM     13  N   UNL     1      -0.444  11.042  21.581  0.00  0.00    +0.000 N 
BRANCH  13  14
ATOM     14  S   UNL     1      -0.896  12.631  21.372  0.00  0.00    +0.000 S 
ATOM     15  C   UNL     1      -1.442  13.052  23.014  0.00  0.00    +0.000 C 
ATOM     16  O   UNL     1       0.300  13.403  21.106  0.00  0.00    +0.000 OA
ATOM     17  O   UNL     1      -2.047  12.718  20.502  0.00  0.00    +0.000 OA
ENDBRANCH  13  14
ENDBRANCH   2   5
BRANCH   1  20
ATOM     18  C   UNL     1       5.392   5.155  15.710  0.00  0.00    +0.000 A 
ATOM     19  C   UNL     1       4.752   6.406  15.906  0.00  0.00    +0.000 A 
ATOM     20  C   UNL     1       4.331   6.435  17.211  0.00  0.00    +0.000 A 
ATOM     21  N   UNL     1       4.741   5.235  17.732  0.00  0.00    +0.000 N 
ATOM     22  N   UNL     1       5.350   4.430  16.840  0.00  0.00    +0.000 NA
ATOM     23  H   UNL     1       4.634   4.889  18.677  0.00  0.00    +0.000 HD
BRANCH  18  30
ATOM     24  C   UNL     1       5.042   2.549  11.443  0.00  0.00    +0.000 C 
ATOM     25  C   UNL     1       5.828   3.431  12.369  0.00  0.00    +0.000 A 
ATOM     26  C   UNL     1       7.100   3.890  12.002  0.00  0.00    +0.000 A 
ATOM     27  C   UNL     1       7.817   4.722  12.857  0.00  0.00    +0.000 A 
ATOM     28  C   UNL     1       7.260   5.106  14.072  0.00  0.00    +0.000 A 
ATOM     29  F   UNL     1       7.988   5.911  14.864  0.00  0.00    +0.000 F 
ATOM     30  C   UNL     1       5.988   4.674  14.465  0.00  0.00    +0.000 A 
ATOM     31  C   UNL     1       5.280   3.819  13.606  0.00  0.00    +0.000 A 
ENDBRANCH  18  30
ENDBRANCH   1  20
TORSDOF 4
ENDMDL
MODEL 7
REMARK VINA RESULT:      -8.6      1.078      1.134
REMARK  Name = 
REMARK  6 active torsions:
REMARK  status: ('A' for Active; 'I' for Inactive)
REMARK    1  A    between atoms: C_1  and  C_2
REMARK    2  A    between atoms: C_7  and  C_8
REMARK    3  A    between atoms: C_10  and  N_11
REMARK    4  A    between atoms: C_12  and  C_14
REMARK    5  A    between atoms: N_22  and  S_23
REMARK    6  A    between atoms: S_23  and  C_24
REMARK                            x       y       z     vdW  Elec       q    Type
REMARK                         _______ _______ _______ _____ _____    ______ ____
ROOT
ATOM      1  N   UNL     1       6.793   8.501  17.233  0.00  0.00    +0.000 N 
ATOM      2  C   UNL     1       7.961   8.659  18.061  0.00  0.00    +0.000 C 
ATOM      3  O   UNL     1       8.482   7.707  18.621  0.00  0.00    +0.000 OA
ATOM      4  H   UNL     1       6.429   9.294  16.727  0.00  0.00    +0.000 HD
ENDROOT
BRANCH   2   5
ATOM      5  C   UNL     1       8.549  10.011  18.209  0.00  0.00    +0.000 A 
ATOM      6  C   UNL     1       8.180  11.096  17.395  0.00  0.00    +0.000 A 
ATOM      7  C   UNL     1       8.692  12.379  17.655  0.00  0.00    +0.000 A 
ATOM      8  C   UNL     1       9.575  12.551  18.708  0.00  0.00    +0.000 A 
ATOM      9  C   UNL     1       9.943  11.471  19.508  0.00  0.00    +0.000 A 
ATOM     10  C   UNL     1       9.446  10.200  19.273  0.00  0.00    +0.000 A 
ATOM     11  C   UNL     1      10.909  11.878  20.577  0.00  0.00    +0.000 C 
ATOM     12  C   UNL     1      10.913  13.415  20.472  0.00  0.00    +0.000 C 
ATOM     13  N   UNL     1      10.143  13.731  19.244  0.00  0.00    +0.000 N 
BRANCH  13  14
ATOM     14  S   UNL     1      10.284  15.210  18.491  0.00  0.00    +0.000 S 
ATOM     15  C   UNL     1      11.302  14.788  17.092  0.00  0.00    +0.000 C 
ATOM     16  O   UNL     1       8.980  15.575  17.979  0.00  0.00    +0.000 OA
ATOM     17  O   UNL     1      11.044  16.123  19.314  0.00  0.00    +0.000 OA
ENDBRANCH  13  14
ENDBRANCH   2   5
BRANCH   1  20
ATOM     18  C   UNL     1       4.880   5.439  17.188  0.00  0.00    +0.000 A 
ATOM     19  C   UNL     1       5.119   6.723  17.744  0.00  0.00    +0.000 A 
ATOM     20  C   UNL     1       6.173   7.264  17.052  0.00  0.00    +0.000 A 
ATOM     21  N   UNL     1       6.502   6.309  16.125  0.00  0.00    +0.000 N 
ATOM     22  N   UNL     1       5.763   5.186  16.209  0.00  0.00    +0.000 NA
ATOM     23  H   UNL     1       7.219   6.344  15.412  0.00  0.00    +0.000 HD
BRANCH  18  30
ATOM     24  C   UNL     1       3.578   0.847  18.717  0.00  0.00    +0.000 C 
ATOM     25  C   UNL     1       3.207   2.264  18.390  0.00  0.00    +0.000 A 
ATOM     26  C   UNL     1       1.898   2.720  18.593  0.00  0.00    +0.000 A 
ATOM     27  C   UNL     1       1.562   4.039  18.304  0.00  0.00    +0.000 A 
ATOM     28  C   UNL     1       2.537   4.908  17.823  0.00  0.00    +0.000 A 
ATOM     29  F   UNL     1       2.168   6.172  17.559  0.00  0.00    +0.000 F 
ATOM     30  C   UNL     1       3.857   4.488  17.618  0.00  0.00    +0.000 A 
ATOM     31  C   UNL     1       4.180   3.151  17.893  0.00  0.00    +0.000 A 
ENDBRANCH  18  30
ENDBRANCH   1  20
TORSDOF 4
ENDMDL
MODEL 8
REMARK VINA RESULT:      -8.5      8.172     11.640
REMARK  Name = 
REMARK  6 active torsions:
REMARK  status: ('A' for Active; 'I' for Inactive)
REMARK    1  A    between atoms: C_1  and  C_2
REMARK    2  A    between atoms: C_7  and  C_8
REMARK    3  A    between atoms: C_10  and  N_11
REMARK    4  A    between atoms: C_12  and  C_14
REMARK    5  A    between atoms: N_22  and  S_23
REMARK    6  A    between atoms: S_23  and  C_24
REMARK                            x       y       z     vdW  Elec       q    Type
REMARK                         _______ _______ _______ _____ _____    ______ ____
ROOT
ATOM      1  N   UNL     1       0.995   9.049  21.194  0.00  0.00    +0.000 N 
ATOM      2  C   UNL     1       1.488   8.714  19.882  0.00  0.00    +0.000 C 
ATOM      3  O   UNL     1       1.466   9.520  18.965  0.00  0.00    +0.000 OA
ATOM      4  H   UNL     1       1.092   8.385  21.947  0.00  0.00    +0.000 HD
ENDROOT
BRANCH   2   5
ATOM      5  C   UNL     1       2.053   7.363  19.659  0.00  0.00    +0.000 A 
ATOM      6  C   UNL     1       1.749   6.264  20.481  0.00  0.00    +0.000 A 
ATOM      7  C   UNL     1       2.230   4.985  20.155  0.00  0.00    +0.000 A 
ATOM      8  C   UNL     1       3.021   4.829  19.027  0.00  0.00    +0.000 A 
ATOM      9  C   UNL     1       3.325   5.923  18.220  0.00  0.00    +0.000 A 
ATOM     10  C   UNL     1       2.857   7.191  18.520  0.00  0.00    +0.000 A 
ATOM     11  C   UNL     1       4.195   5.533  17.065  0.00  0.00    +0.000 C 
ATOM     12  C   UNL     1       4.200   3.995  17.140  0.00  0.00    +0.000 C 
ATOM     13  N   UNL     1       3.535   3.658  18.423  0.00  0.00    +0.000 N 
BRANCH  13  14
ATOM     14  S   UNL     1       3.731   2.164  19.133  0.00  0.00    +0.000 S 
ATOM     15  C   UNL     1       2.117   1.904  19.837  0.00  0.00    +0.000 C 
ATOM     16  O   UNL     1       3.902   1.188  18.077  0.00  0.00    +0.000 OA
ATOM     17  O   UNL     1       4.669   2.247  20.229  0.00  0.00    +0.000 OA
ENDBRANCH  13  14
ENDBRANCH   2   5
BRANCH   1  20
ATOM     18  C   UNL     1      -0.751  12.008  22.304  0.00  0.00    +0.000 A 
ATOM     19  C   UNL     1      -0.507  10.615  22.425  0.00  0.00    +0.000 A 
ATOM     20  C   UNL     1       0.436  10.294  21.481  0.00  0.00    +0.000 A 
ATOM     21  N   UNL     1       0.721  11.484  20.862  0.00  0.00    +0.000 N 
ATOM     22  N   UNL     1      -0.006  12.524  21.313  0.00  0.00    +0.000 NA
ATOM     23  H   UNL     1       1.386  11.665  20.121  0.00  0.00    +0.000 HD
BRANCH  18  30
ATOM     24  C   UNL     1      -5.150  12.428  24.668  0.00  0.00    +0.000 C 
ATOM     25  C   UNL     1      -3.822  13.007  24.277  0.00  0.00    +0.000 A 
ATOM     26  C   UNL     1      -3.428  14.264  24.755  0.00  0.00    +0.000 A 
ATOM     27  C   UNL     1      -2.188  14.789  24.403  0.00  0.00    +0.000 A 
ATOM     28  C   UNL     1      -1.336  14.056  23.584  0.00  0.00    +0.000 A 
ATOM     29  F   UNL     1      -0.149  14.602  23.272  0.00  0.00    +0.000 F 
ATOM     30  C   UNL     1      -1.695  12.792  23.097  0.00  0.00    +0.000 A 
ATOM     31  C   UNL     1      -2.954  12.280  23.440  0.00  0.00    +0.000 A 
ENDBRANCH  18  30
ENDBRANCH   1  20
TORSDOF 4
ENDMDL
MODEL 9
REMARK VINA RESULT:      -8.5      2.070      2.914
REMARK  Name = 
REMARK  6 active torsions:
REMARK  status: ('A' for Active; 'I' for Inactive)
REMARK    1  A    between atoms: C_1  and  C_2
REMARK    2  A    between atoms: C_7  and  C_8
REMARK    3  A    between atoms: C_10  and  N_11
REMARK    4  A    between atoms: C_12  and  C_14
REMARK    5  A    between atoms: N_22  and  S_23
REMARK    6  A    between atoms: S_23  and  C_24
REMARK                            x       y       z     vdW  Elec       q    Type
REMARK                         _______ _______ _______ _____ _____    ______ ____
ROOT
ATOM      1  N   UNL     1       8.637  10.206  17.996  0.00  0.00    +0.000 N 
ATOM      2  C   UNL     1       9.245  10.865  19.123  0.00  0.00    +0.000 C 
ATOM      3  O   UNL     1       9.479  10.269  20.163  0.00  0.00    +0.000 OA
ATOM      4  H   UNL     1       8.522  10.707  17.128  0.00  0.00    +0.000 HD
ENDROOT
BRANCH   2   5
ATOM      5  C   UNL     1       9.613  12.294  18.997  0.00  0.00    +0.000 A 
ATOM      6  C   UNL     1       9.057  13.299  19.807  0.00  0.00    +0.000 A 
ATOM      7  C   UNL     1       9.525  14.620  19.714  0.00  0.00    +0.000 A 
ATOM      8  C   UNL     1      10.525  14.918  18.802  0.00  0.00    +0.000 A 
ATOM      9  C   UNL     1      11.068  13.920  17.996  0.00  0.00    +0.000 A 
ATOM     10  C   UNL     1      10.625  12.611  18.075  0.00  0.00    +0.000 A 
ATOM     11  C   UNL     1      12.124  14.461  17.081  0.00  0.00    +0.000 C 
ATOM     12  C   UNL     1      12.323  15.899  17.596  0.00  0.00    +0.000 C 
ATOM     13  N   UNL     1      11.240  16.120  18.585  0.00  0.00    +0.000 N 
BRANCH  13  14
ATOM     14  S   UNL     1      10.784  17.656  19.039  0.00  0.00    +0.000 S 
ATOM     15  C   UNL     1       9.270  17.850  18.121  0.00  0.00    +0.000 C 
ATOM     16  O   UNL     1      10.433  17.619  20.444  0.00  0.00    +0.000 OA
ATOM     17  O   UNL     1      11.721  18.631  18.531  0.00  0.00    +0.000 OA
ENDBRANCH  13  14
ENDBRANCH   2   5
BRANCH   1  20
ATOM     18  C   UNL     1       7.306   6.863  17.697  0.00  0.00    +0.000 A 
ATOM     19  C   UNL     1       7.363   8.202  17.230  0.00  0.00    +0.000 A 
ATOM     20  C   UNL     1       8.250   8.866  18.039  0.00  0.00    +0.000 A 
ATOM     21  N   UNL     1       8.686   7.914  18.925  0.00  0.00    +0.000 N 
ATOM     22  N   UNL     1       8.107   6.709  18.764  0.00  0.00    +0.000 NA
ATOM     23  H   UNL     1       9.365   8.011  19.669  0.00  0.00    +0.000 HD
BRANCH  18  30
ATOM     24  C   UNL     1       6.031   3.875  13.881  0.00  0.00    +0.000 C 
ATOM     25  C   UNL     1       5.862   4.307  15.307  0.00  0.00    +0.000 A 
ATOM     26  C   UNL     1       4.987   3.620  16.159  0.00  0.00    +0.000 A 
ATOM     27  C   UNL     1       4.846   4.014  17.486  0.00  0.00    +0.000 A 
ATOM     28  C   UNL     1       5.588   5.087  17.968  0.00  0.00    +0.000 A 
ATOM     29  F   UNL     1       5.421   5.432  19.255  0.00  0.00    +0.000 F 
ATOM     30  C   UNL     1       6.480   5.790  17.147  0.00  0.00    +0.000 A 
ATOM     31  C   UNL     1       6.599   5.398  15.805  0.00  0.00    +0.000 A 
ENDBRANCH  18  30
ENDBRANCH   1  20
TORSDOF 4
ENDMDL
