MODEL 1
REMARK VINA RESULT:      -8.8      0.000      0.000
REMARK  Name = 
REMARK  6 active torsions:
REMARK  status: ('A' for Active; 'I' for Inactive)
REMARK    1  A    between atoms: C_2  and  C_3
REMARK    2  A    between atoms: C_3  and  C_4
REMARK    3  A    between atoms: C_4  and  N_5
REMARK    4  A    between atoms: N_16  and  C_17
REMARK    5  A    between atoms: C_21  and  S_22
REMARK    6  A    between atoms: S_22  and  N_25
REMARK                            x       y       z     vdW  Elec       q    Type
REMARK                         _______ _______ _______ _____ _____    ______ ____
ROOT
ATOM      1  O   UNL     1       1.976   8.174  19.920  0.00  0.00    +0.000 OA
ATOM      2  C   UNL     1       1.914   8.387  18.713  0.00  0.00    +0.000 C 
ATOM      3  N   UNL     1       2.488   7.610  17.715  0.00  0.00    +0.000 N 
ATOM      4  H   UNL     1       2.393   7.942  16.762  0.00  0.00    +0.000 HD
ENDROOT
BRANCH   3   5
ATOM      5  C   UNL     1       3.260   6.434  17.876  0.00  0.00    +0.000 A 
ATOM      6  C   UNL     1       2.720   5.182  18.178  0.00  0.00    +0.000 A 
ATOM      7  C   UNL     1       3.547   4.067  18.362  0.00  0.00    +0.000 A 
ATOM      8  C   UNL     1       4.930   4.182  18.235  0.00  0.00    +0.000 A 
ATOM      9  C   UNL     1       5.479   5.420  17.906  0.00  0.00    +0.000 A 
ATOM     10  C   UNL     1       4.646   6.536  17.712  0.00  0.00    +0.000 A 
BRANCH   9  11
ATOM     11  S   UNL     1       7.212   5.548  17.539  0.00  0.00    +0.000 S 
ATOM     12  O   UNL     1       7.729   6.705  18.238  0.00  0.00    +0.000 OA
ATOM     13  O   UNL     1       7.828   4.253  17.736  0.00  0.00    +0.000 OA
BRANCH  11  14
ATOM     14  N   UNL     1       7.322   5.939  15.917  0.00  0.00    +0.000 N 
ATOM     15  C   UNL     1       7.000   5.064  14.884  0.00  0.00    +0.000 C 
ATOM     16  N   UNL     1       6.123   4.131  15.012  0.00  0.00    +0.000 NA
ATOM     17  C   UNL     1       6.091   3.424  13.728  0.00  0.00    +0.000 C 
ATOM     18  C   UNL     1       6.753   4.349  12.723  0.00  0.00    +0.000 C 
ATOM     19  C   UNL     1       7.693   5.180  13.569  0.00  0.00    +0.000 C 
ATOM     20  H   UNL     1       7.941   6.731  15.768  0.00  0.00    +0.000 HD
ENDBRANCH  11  14
ENDBRANCH   9  11
ENDBRANCH   3   5
BRANCH   2  21
ATOM     21  C   UNL     1       1.115   9.556  18.161  0.00  0.00    +0.000 C 
BRANCH  21  22
ATOM     22  C   UNL     1       1.410  10.842  18.935  0.00  0.00    +0.000 C 
BRANCH  22  23
ATOM     23  N   UNL     1       0.308  11.213  19.810  0.00  0.00    +0.000 N 
ATOM     24  C   UNL     1      -0.819  11.871  19.397  0.00  0.00    +0.000 C 
ATOM     25  O   UNL     1      -1.117  12.267  18.286  0.00  0.00    +0.000 OA
ATOM     26  C   UNL     1      -1.650  12.064  20.587  0.00  0.00    +0.000 A 
ATOM     27  C   UNL     1      -2.891  12.653  20.732  0.00  0.00    +0.000 A 
ATOM     28  C   UNL     1      -3.429  12.703  22.023  0.00  0.00    +0.000 A 
ATOM     29  C   UNL     1      -2.722  12.173  23.122  0.00  0.00    +0.000 A 
ATOM     30  C   UNL     1      -1.467  11.582  22.949  0.00  0.00    +0.000 A 
ATOM     31  C   UNL     1      -0.959  11.542  21.665  0.00  0.00    +0.000 A 
ATOM     32  C   UNL     1       0.308  11.011  21.164  0.00  0.00    +0.000 C 
ATOM     33  O   UNL     1       1.173  10.523  21.864  0.00  0.00    +0.000 OA
ENDBRANCH  22  23
ENDBRANCH  21  22
ENDBRANCH   2  21
TORSDOF 6
ENDMDL
MODEL 2
REMARK VINA RESULT:      -8.8      1.788      2.368
REMARK  Name = 
REMARK  6 active torsions:
REMARK  status: ('A' for Active; 'I' for Inactive)
REMARK    1  A    between atoms: C_2  and  C_3
REMARK    2  A    between atoms: C_3  and  C_4
REMARK    3  A    between atoms: C_4  and  N_5
REMARK    4  A    between atoms: N_16  and  C_17
REMARK    5  A    between atoms: C_21  and  S_22
REMARK    6  A    between atoms: S_22  and  N_25
REMARK                            x       y       z     vdW  Elec       q    Type
REMARK                         _______ _______ _______ _____ _____    ______ ____
ROOT
ATOM      1  O   UNL     1       2.161   7.950  19.394  0.00  0.00    +0.000 OA
ATOM      2  C   UNL     1       1.866   7.474  20.485  0.00  0.00    +0.000 C 
ATOM      3  N   UNL     1       2.082   6.164  20.892  0.00  0.00    +0.000 N 
ATOM      4  H   UNL     1       1.737   5.904  21.809  0.00  0.00    +0.000 HD
ENDROOT
BRANCH   3   5
ATOM      5  C   UNL     1       2.672   5.116  20.143  0.00  0.00    +0.000 A 
ATOM      6  C   UNL     1       2.137   3.830  20.046  0.00  0.00    +0.000 A 
ATOM      7  C   UNL     1       2.794   2.829  19.319  0.00  0.00    +0.000 A 
ATOM      8  C   UNL     1       3.994   3.102  18.665  0.00  0.00    +0.000 A 
ATOM      9  C   UNL     1       4.524   4.390  18.731  0.00  0.00    +0.000 A 
ATOM     10  C   UNL     1       3.857   5.395  19.453  0.00  0.00    +0.000 A 
BRANCH   9  11
ATOM     11  S   UNL     1       5.938   4.815  17.743  0.00  0.00    +0.000 S 
ATOM     12  O   UNL     1       5.775   6.182  17.301  0.00  0.00    +0.000 OA
ATOM     13  O   UNL     1       7.138   4.425  18.453  0.00  0.00    +0.000 OA
BRANCH  11  14
ATOM     14  N   UNL     1       5.832   3.895  16.351  0.00  0.00    +0.000 N 
ATOM     15  C   UNL     1       6.365   4.278  15.125  0.00  0.00    +0.000 C 
ATOM     16  N   UNL     1       7.400   5.037  15.024  0.00  0.00    +0.000 NA
ATOM     17  C   UNL     1       7.629   5.224  13.587  0.00  0.00    +0.000 C 
ATOM     18  C   UNL     1       6.848   4.124  12.891  0.00  0.00    +0.000 C 
ATOM     19  C   UNL     1       5.726   3.816  13.859  0.00  0.00    +0.000 C 
ATOM     20  H   UNL     1       5.078   3.216  16.413  0.00  0.00    +0.000 HD
ENDBRANCH  11  14
ENDBRANCH   9  11
ENDBRANCH   3   5
BRANCH   2  21
ATOM     21  C   UNL     1       1.249   8.333  21.576  0.00  0.00    +0.000 C 
BRANCH  21  22
ATOM     22  C   UNL     1      -0.177   8.749  21.212  0.00  0.00    +0.000 C 
BRANCH  22  23
ATOM     23  N   UNL     1      -0.259  10.162  20.871  0.00  0.00    +0.000 N 
ATOM     24  C   UNL     1      -0.232  10.651  19.592  0.00  0.00    +0.000 C 
ATOM     25  O   UNL     1      -0.132  10.050  18.539  0.00  0.00    +0.000 OA
ATOM     26  C   UNL     1      -0.315  12.108  19.701  0.00  0.00    +0.000 A 
ATOM     27  C   UNL     1      -0.343  13.084  18.723  0.00  0.00    +0.000 A 
ATOM     28  C   UNL     1      -0.409  14.416  19.148  0.00  0.00    +0.000 A 
ATOM     29  C   UNL     1      -0.442  14.736  20.521  0.00  0.00    +0.000 A 
ATOM     30  C   UNL     1      -0.413  13.729  21.492  0.00  0.00    +0.000 A 
ATOM     31  C   UNL     1      -0.351  12.424  21.047  0.00  0.00    +0.000 A 
ATOM     32  C   UNL     1      -0.297  11.169  21.796  0.00  0.00    +0.000 C 
ATOM     33  O   UNL     1      -0.263  11.095  23.009  0.00  0.00    +0.000 OA
ENDBRANCH  22  23
ENDBRANCH  21  22
ENDBRANCH   2  21
TORSDOF 6
ENDMDL
MODEL 3
REMARK VINA RESULT:      -8.7      1.575      1.930
REMARK  Name = 
REMARK  6 active torsions:
REMARK  status: ('A' for Active; 'I' for Inactive)
REMARK    1  A    between atoms: C_2  and  C_3
REMARK    2  A    between atoms: C_3  and  C_4
REMARK    3  A    between atoms: C_4  and  N_5
REMARK    4  A    between atoms: N_16  and  C_17
REMARK    5  A    between atoms: C_21  and  S_22
REMARK    6  A    between atoms: S_22  and  N_25
REMARK                            x       y       z     vdW  Elec       q    Type
REMARK                         _______ _______ _______ _____ _____    ______ ____
ROOT
ATOM      1  O   UNL     1       1.948   7.451  19.191  0.00  0.00    +0.000 OA
ATOM      2  C   UNL     1       1.850   7.049  20.346  0.00  0.00    +0.000 C 
ATOM      3  N   UNL     1       2.325   5.838  20.834  0.00  0.00    +0.000 N 
ATOM      4  H   UNL     1       2.123   5.623  21.804  0.00  0.00    +0.000 HD
ENDROOT
BRANCH   3   5
ATOM      5  C   UNL     1       3.004   4.826  20.113  0.00  0.00    +0.000 A 
ATOM      6  C   UNL     1       2.603   3.489  20.079  0.00  0.00    +0.000 A 
ATOM      7  C   UNL     1       3.345   2.532  19.375  0.00  0.00    +0.000 A 
ATOM      8  C   UNL     1       4.497   2.899  18.683  0.00  0.00    +0.000 A 
ATOM      9  C   UNL     1       4.893   4.236  18.686  0.00  0.00    +0.000 A 
ATOM     10  C   UNL     1       4.141   5.197  19.384  0.00  0.00    +0.000 A 
BRANCH   9  11
ATOM     11  S   UNL     1       6.236   4.762  17.649  0.00  0.00    +0.000 S 
ATOM     12  O   UNL     1       5.950   6.108  17.203  0.00  0.00    +0.000 OA
ATOM     13  O   UNL     1       7.486   4.476  18.321  0.00  0.00    +0.000 OA
BRANCH  11  14
ATOM     14  N   UNL     1       6.158   3.823  16.268  0.00  0.00    +0.000 N 
ATOM     15  C   UNL     1       6.593   4.246  15.016  0.00  0.00    +0.000 C 
ATOM     16  N   UNL     1       7.541   5.103  14.863  0.00  0.00    +0.000 NA
ATOM     17  C   UNL     1       7.683   5.299  13.416  0.00  0.00    +0.000 C 
ATOM     18  C   UNL     1       6.985   4.119  12.763  0.00  0.00    +0.000 C 
ATOM     19  C   UNL     1       5.946   3.710  13.784  0.00  0.00    +0.000 C 
ATOM     20  H   UNL     1       5.481   3.072  16.368  0.00  0.00    +0.000 HD
ENDBRANCH  11  14
ENDBRANCH   9  11
ENDBRANCH   3   5
BRANCH   2  21
ATOM     21  C   UNL     1       1.210   7.907  21.425  0.00  0.00    +0.000 C 
BRANCH  21  22
ATOM     22  C   UNL     1       1.559   9.383  21.237  0.00  0.00    +0.000 C 
BRANCH  22  23
ATOM     23  N   UNL     1       0.384  10.236  21.340  0.00  0.00    +0.000 N 
ATOM     24  C   UNL     1      -0.175  10.912  20.289  0.00  0.00    +0.000 C 
ATOM     25  O   UNL     1       0.172  10.948  19.124  0.00  0.00    +0.000 OA
ATOM     26  C   UNL     1      -1.313  11.657  20.830  0.00  0.00    +0.000 A 
ATOM     27  C   UNL     1      -2.226  12.485  20.205  0.00  0.00    +0.000 A 
ATOM     28  C   UNL     1      -3.207  13.079  21.007  0.00  0.00    +0.000 A 
ATOM     29  C   UNL     1      -3.248  12.838  22.396  0.00  0.00    +0.000 A 
ATOM     30  C   UNL     1      -2.312  11.996  23.005  0.00  0.00    +0.000 A 
ATOM     31  C   UNL     1      -1.357  11.419  22.191  0.00  0.00    +0.000 A 
ATOM     32  C   UNL     1      -0.253  10.518  22.519  0.00  0.00    +0.000 C 
ATOM     33  O   UNL     1       0.021  10.147  23.643  0.00  0.00    +0.000 OA
ENDBRANCH  22  23
ENDBRANCH  21  22
ENDBRANCH   2  21
TORSDOF 6
ENDMDL
MODEL 4
REMARK VINA RESULT:      -8.6      2.802      9.987
REMARK  Name = 
REMARK  6 active torsions:
REMARK  status: ('A' for Active; 'I' for Inactive)
REMARK    1  A    between atoms: C_2  and  C_3
REMARK    2  A    between atoms: C_3  and  C_4
REMARK    3  A    between atoms: C_4  and  N_5
REMARK    4  A    between atoms: N_16  and  C_17
REMARK    5  A    between atoms: C_21  and  S_22
REMARK    6  A    between atoms: S_22  and  N_25
REMARK                            x       y       z     vdW  Elec       q    Type
REMARK                         _______ _______ _______ _____ _____    ______ ____
ROOT
ATOM      1  O   UNL     1       1.196   4.543  19.267  0.00  0.00    +0.000 OA
ATOM      2  C   UNL     1       2.132   4.853  19.996  0.00  0.00    +0.000 C 
ATOM      3  N   UNL     1       2.629   6.135  20.190  0.00  0.00    +0.000 N 
ATOM      4  H   UNL     1       3.443   6.228  20.787  0.00  0.00    +0.000 HD
ENDROOT
BRANCH   3   5
ATOM      5  C   UNL     1       2.173   7.335  19.590  0.00  0.00    +0.000 A 
ATOM      6  C   UNL     1       2.290   7.620  18.229  0.00  0.00    +0.000 A 
ATOM      7  C   UNL     1       1.852   8.845  17.709  0.00  0.00    +0.000 A 
ATOM      8  C   UNL     1       1.277   9.802  18.543  0.00  0.00    +0.000 A 
ATOM      9  C   UNL     1       1.131   9.519  19.900  0.00  0.00    +0.000 A 
ATOM     10  C   UNL     1       1.561   8.285  20.417  0.00  0.00    +0.000 A 
BRANCH   9  11
ATOM     11  S   UNL     1       0.221  10.634  20.942  0.00  0.00    +0.000 S 
ATOM     12  O   UNL     1      -0.584   9.840  21.844  0.00  0.00    +0.000 OA
ATOM     13  O   UNL     1       1.133  11.626  21.472  0.00  0.00    +0.000 OA
BRANCH  11  14
ATOM     14  N   UNL     1      -0.879  11.411  19.951  0.00  0.00    +0.000 N 
ATOM     15  C   UNL     1      -2.015  12.065  20.415  0.00  0.00    +0.000 C 
ATOM     16  N   UNL     1      -2.078  12.606  21.582  0.00  0.00    +0.000 NA
ATOM     17  C   UNL     1      -3.428  13.164  21.700  0.00  0.00    +0.000 C 
ATOM     18  C   UNL     1      -3.974  13.244  20.285  0.00  0.00    +0.000 C 
ATOM     19  C   UNL     1      -3.229  12.149  19.553  0.00  0.00    +0.000 C 
ATOM     20  H   UNL     1      -0.812  11.079  18.993  0.00  0.00    +0.000 HD
ENDBRANCH  11  14
ENDBRANCH   9  11
ENDBRANCH   3   5
BRANCH   2  21
ATOM     21  C   UNL     1       2.844   3.813  20.845  0.00  0.00    +0.000 C 
BRANCH  21  22
ATOM     22  C   UNL     1       3.570   2.789  19.972  0.00  0.00    +0.000 C 
BRANCH  22  23
ATOM     23  N   UNL     1       4.253   3.420  18.852  0.00  0.00    +0.000 N 
ATOM     24  C   UNL     1       3.876   3.287  17.543  0.00  0.00    +0.000 C 
ATOM     25  O   UNL     1       2.956   2.650  17.066  0.00  0.00    +0.000 OA
ATOM     26  C   UNL     1       4.836   4.058  16.751  0.00  0.00    +0.000 A 
ATOM     27  C   UNL     1       4.911   4.275  15.388  0.00  0.00    +0.000 A 
ATOM     28  C   UNL     1       5.974   5.057  14.922  0.00  0.00    +0.000 A 
ATOM     29  C   UNL     1       6.925   5.592  15.815  0.00  0.00    +0.000 A 
ATOM     30  C   UNL     1       6.826   5.358  17.190  0.00  0.00    +0.000 A 
ATOM     31  C   UNL     1       5.767   4.587  17.626  0.00  0.00    +0.000 A 
ATOM     32  C   UNL     1       5.398   4.160  18.975  0.00  0.00    +0.000 C 
ATOM     33  O   UNL     1       6.040   4.415  19.976  0.00  0.00    +0.000 OA
ENDBRANCH  22  23
ENDBRANCH  21  22
ENDBRANCH   2  21
TORSDOF 6
ENDMDL
MODEL 5
REMARK VINA RESULT:      -8.6      2.902     10.105
REMARK  Name = 
REMARK  6 active torsions:
REMARK  status: ('A' for Active; 'I' for Inactive)
REMARK    1  A    between atoms: C_2  and  C_3
REMARK    2  A    between atoms: C_3  and  C_4
REMARK    3  A    between atoms: C_4  and  N_5
REMARK    4  A    between atoms: N_16  and  C_17
REMARK    5  A    between atoms: C_21  and  S_22
REMARK    6  A    between atoms: S_22  and  N_25
REMARK                            x       y       z     vdW  Elec       q    Type
REMARK                         _______ _______ _______ _____ _____    ______ ____
ROOT
ATOM      1  O   UNL     1       1.199   4.612  19.414  0.00  0.00    +0.000 OA
ATOM      2  C   UNL     1       2.200   4.932  20.046  0.00  0.00    +0.000 C 
ATOM      3  N   UNL     1       2.735   6.210  20.139  0.00  0.00    +0.000 N 
ATOM      4  H   UNL     1       3.599   6.310  20.660  0.00  0.00    +0.000 HD
ENDROOT
BRANCH   3   5
ATOM      5  C   UNL     1       2.251   7.393  19.529  0.00  0.00    +0.000 A 
ATOM      6  C   UNL     1       2.522   7.756  18.208  0.00  0.00    +0.000 A 
ATOM      7  C   UNL     1       2.042   8.962  17.680  0.00  0.00    +0.000 A 
ATOM      8  C   UNL     1       1.271   9.820  18.462  0.00  0.00    +0.000 A 
ATOM      9  C   UNL     1       0.970   9.455  19.773  0.00  0.00    +0.000 A 
ATOM     10  C   UNL     1       1.444   8.240  20.298  0.00  0.00    +0.000 A 
BRANCH   9  11
ATOM     11  S   UNL     1      -0.175  10.429  20.720  0.00  0.00    +0.000 S 
ATOM     12  O   UNL     1      -1.256  10.820  19.841  0.00  0.00    +0.000 OA
ATOM     13  O   UNL     1      -0.467   9.735  21.957  0.00  0.00    +0.000 OA
BRANCH  11  14
ATOM     14  N   UNL     1       0.616  11.853  21.093  0.00  0.00    +0.000 N 
ATOM     15  C   UNL     1       0.025  12.915  21.771  0.00  0.00    +0.000 C 
ATOM     16  N   UNL     1      -0.927  12.753  22.621  0.00  0.00    +0.000 NA
ATOM     17  C   UNL     1      -1.286  14.095  23.091  0.00  0.00    +0.000 C 
ATOM     18  C   UNL     1      -0.123  14.995  22.716  0.00  0.00    +0.000 C 
ATOM     19  C   UNL     1       0.486  14.309  21.512  0.00  0.00    +0.000 C 
ATOM     20  H   UNL     1       1.432  11.988  20.503  0.00  0.00    +0.000 HD
ENDBRANCH  11  14
ENDBRANCH   9  11
ENDBRANCH   3   5
BRANCH   2  21
ATOM     21  C   UNL     1       2.964   3.913  20.876  0.00  0.00    +0.000 C 
BRANCH  21  22
ATOM     22  C   UNL     1       3.583   2.831  19.991  0.00  0.00    +0.000 C 
BRANCH  22  23
ATOM     23  N   UNL     1       4.307   3.400  18.864  0.00  0.00    +0.000 N 
ATOM     24  C   UNL     1       5.451   4.143  18.977  0.00  0.00    +0.000 C 
ATOM     25  O   UNL     1       6.062   4.471  19.977  0.00  0.00    +0.000 OA
ATOM     26  C   UNL     1       5.831   4.534  17.619  0.00  0.00    +0.000 A 
ATOM     27  C   UNL     1       6.908   5.271  17.162  0.00  0.00    +0.000 A 
ATOM     28  C   UNL     1       6.990   5.496  15.783  0.00  0.00    +0.000 A 
ATOM     29  C   UNL     1       6.008   4.989  14.907  0.00  0.00    +0.000 A 
ATOM     30  C   UNL     1       4.928   4.246  15.395  0.00  0.00    +0.000 A 
ATOM     31  C   UNL     1       4.871   4.034  16.758  0.00  0.00    +0.000 A 
ATOM     32  C   UNL     1       3.883   3.321  17.565  0.00  0.00    +0.000 C 
ATOM     33  O   UNL     1       2.878   2.801  17.120  0.00  0.00    +0.000 OA
ENDBRANCH  22  23
ENDBRANCH  21  22
ENDBRANCH   2  21
TORSDOF 6
ENDMDL
MODEL 6
REMARK VINA RESULT:      -8.5      2.970      8.819
REMARK  Name = 
REMARK  6 active torsions:
REMARK  status: ('A' for Active; 'I' for Inactive)
REMARK    1  A    between atoms: C_2  and  C_3
REMARK    2  A    between atoms: C_3  and  C_4
REMARK    3  A    between atoms: C_4  and  N_5
REMARK    4  A    between atoms: N_16  and  C_17
REMARK    5  A    between atoms: C_21  and  S_22
REMARK    6  A    between atoms: S_22  and  N_25
REMARK                            x       y       z     vdW  Elec       q    Type
REMARK                         _______ _______ _______ _____ _____    ______ ____
ROOT
ATOM      1  O   UNL     1       5.432   6.974  17.876  0.00  0.00    +0.000 OA
ATOM      2  C   UNL     1       4.555   6.327  17.313  0.00  0.00    +0.000 C 
ATOM      3  N   UNL     1       3.199   6.351  17.614  0.00  0.00    +0.000 N 
ATOM      4  H   UNL     1       2.601   5.722  17.093  0.00  0.00    +0.000 HD
ENDROOT
BRANCH   3   5
ATOM      5  C   UNL     1       2.555   7.108  18.623  0.00  0.00    +0.000 A 
ATOM      6  C   UNL     1       2.340   6.651  19.925  0.00  0.00    +0.000 A 
ATOM      7  C   UNL     1       1.660   7.439  20.862  0.00  0.00    +0.000 A 
ATOM      8  C   UNL     1       1.194   8.706  20.517  0.00  0.00    +0.000 A 
ATOM      9  C   UNL     1       1.427   9.185  19.229  0.00  0.00    +0.000 A 
ATOM     10  C   UNL     1       2.119   8.397  18.292  0.00  0.00    +0.000 A 
BRANCH   9  11
ATOM     11  S   UNL     1       1.025  10.869  18.827  0.00  0.00    +0.000 S 
ATOM     12  O   UNL     1       0.526  11.503  20.027  0.00  0.00    +0.000 OA
ATOM     13  O   UNL     1       2.138  11.456  18.111  0.00  0.00    +0.000 OA
BRANCH  11  14
ATOM     14  N   UNL     1      -0.287  10.805  17.794  0.00  0.00    +0.000 N 
ATOM     15  C   UNL     1      -1.586  11.134  18.167  0.00  0.00    +0.000 C 
ATOM     16  N   UNL     1      -1.847  11.991  19.091  0.00  0.00    +0.000 NA
ATOM     17  C   UNL     1      -3.309  12.039  19.200  0.00  0.00    +0.000 C 
ATOM     18  C   UNL     1      -3.846  11.418  17.923  0.00  0.00    +0.000 C 
ATOM     19  C   UNL     1      -2.743  10.474  17.495  0.00  0.00    +0.000 C 
ATOM     20  H   UNL     1      -0.101  10.204  16.996  0.00  0.00    +0.000 HD
ENDBRANCH  11  14
ENDBRANCH   9  11
ENDBRANCH   3   5
BRANCH   2  21
ATOM     21  C   UNL     1       4.878   5.427  16.131  0.00  0.00    +0.000 C 
BRANCH  21  22
ATOM     22  C   UNL     1       5.078   3.978  16.579  0.00  0.00    +0.000 C 
BRANCH  22  23
ATOM     23  N   UNL     1       4.185   3.621  17.671  0.00  0.00    +0.000 N 
ATOM     24  C   UNL     1       2.840   3.406  17.531  0.00  0.00    +0.000 C 
ATOM     25  O   UNL     1       2.149   3.471  16.532  0.00  0.00    +0.000 OA
ATOM     26  C   UNL     1       2.325   3.095  18.865  0.00  0.00    +0.000 A 
ATOM     27  C   UNL     1       1.047   2.783  19.287  0.00  0.00    +0.000 A 
ATOM     28  C   UNL     1       0.863   2.550  20.655  0.00  0.00    +0.000 A 
ATOM     29  C   UNL     1       1.945   2.636  21.555  0.00  0.00    +0.000 A 
ATOM     30  C   UNL     1       3.229   2.954  21.103  0.00  0.00    +0.000 A 
ATOM     31  C   UNL     1       3.386   3.176  19.749  0.00  0.00    +0.000 A 
ATOM     32  C   UNL     1       4.577   3.532  18.979  0.00  0.00    +0.000 C 
ATOM     33  O   UNL     1       5.674   3.729  19.463  0.00  0.00    +0.000 OA
ENDBRANCH  22  23
ENDBRANCH  21  22
ENDBRANCH   2  21
TORSDOF 6
ENDMDL
MODEL 7
REMARK VINA RESULT:      -8.5      1.197      1.485
REMARK  Name = 
REMARK  6 active torsions:
REMARK  status: ('A' for Active; 'I' for Inactive)
REMARK    1  A    between atoms: C_2  and  C_3
REMARK    2  A    between atoms: C_3  and  C_4
REMARK    3  A    between atoms: C_4  and  N_5
REMARK    4  A    between atoms: N_16  and  C_17
REMARK    5  A    between atoms: C_21  and  S_22
REMARK    6  A    between atoms: S_22  and  N_25
REMARK                            x       y       z     vdW  Elec       q    Type
REMARK                         _______ _______ _______ _____ _____    ______ ____
ROOT
ATOM      1  O   UNL     1       1.746   8.172  21.221  0.00  0.00    +0.000 OA
ATOM      2  C   UNL     1       1.521   8.459  20.050  0.00  0.00    +0.000 C 
ATOM      3  N   UNL     1       2.009   7.790  18.935  0.00  0.00    +0.000 N 
ATOM      4  H   UNL     1       1.776   8.177  18.027  0.00  0.00    +0.000 HD
ENDROOT
BRANCH   3   5
ATOM      5  C   UNL     1       2.861   6.659  18.914  0.00  0.00    +0.000 A 
ATOM      6  C   UNL     1       2.593   5.468  19.591  0.00  0.00    +0.000 A 
ATOM      7  C   UNL     1       3.501   4.401  19.559  0.00  0.00    +0.000 A 
ATOM      8  C   UNL     1       4.688   4.504  18.837  0.00  0.00    +0.000 A 
ATOM      9  C   UNL     1       4.954   5.678  18.134  0.00  0.00    +0.000 A 
ATOM     10  C   UNL     1       4.038   6.743  18.159  0.00  0.00    +0.000 A 
BRANCH   9  11
ATOM     11  S   UNL     1       6.357   5.757  17.046  0.00  0.00    +0.000 S 
ATOM     12  O   UNL     1       6.248   6.973  16.271  0.00  0.00    +0.000 OA
ATOM     13  O   UNL     1       7.558   5.496  17.812  0.00  0.00    +0.000 OA
BRANCH  11  14
ATOM     14  N   UNL     1       6.163   4.520  15.939  0.00  0.00    +0.000 N 
ATOM     15  C   UNL     1       6.585   4.589  14.615  0.00  0.00    +0.000 C 
ATOM     16  N   UNL     1       7.588   5.305  14.242  0.00  0.00    +0.000 NA
ATOM     17  C   UNL     1       7.695   5.131  12.790  0.00  0.00    +0.000 C 
ATOM     18  C   UNL     1       6.890   3.887  12.457  0.00  0.00    +0.000 C 
ATOM     19  C   UNL     1       5.859   3.823  13.562  0.00  0.00    +0.000 C 
ATOM     20  H   UNL     1       5.436   3.873  16.231  0.00  0.00    +0.000 HD
ENDBRANCH  11  14
ENDBRANCH   9  11
ENDBRANCH   3   5
BRANCH   2  21
ATOM     21  C   UNL     1       0.593   9.607  19.686  0.00  0.00    +0.000 C 
BRANCH  21  22
ATOM     22  C   UNL     1       0.850  10.827  20.572  0.00  0.00    +0.000 C 
BRANCH  22  23
ATOM     23  N   UNL     1      -0.388  11.387  21.094  0.00  0.00    +0.000 N 
ATOM     24  C   UNL     1      -1.225  12.206  20.385  0.00  0.00    +0.000 C 
ATOM     25  O   UNL     1      -1.117  12.620  19.247  0.00  0.00    +0.000 OA
ATOM     26  C   UNL     1      -2.328  12.554  21.283  0.00  0.00    +0.000 A 
ATOM     27  C   UNL     1      -3.448  13.336  21.073  0.00  0.00    +0.000 A 
ATOM     28  C   UNL     1      -4.327  13.499  22.150  0.00  0.00    +0.000 A 
ATOM     29  C   UNL     1      -4.067  12.888  23.394  0.00  0.00    +0.000 A 
ATOM     30  C   UNL     1      -2.926  12.101  23.581  0.00  0.00    +0.000 A 
ATOM     31  C   UNL     1      -2.077  11.953  22.503  0.00  0.00    +0.000 A 
ATOM     32  C   UNL     1      -0.819  11.217  22.383  0.00  0.00    +0.000 C 
ATOM     33  O   UNL     1      -0.286  10.613  23.293  0.00  0.00    +0.000 OA
ENDBRANCH  22  23
ENDBRANCH  21  22
ENDBRANCH   2  21
TORSDOF 6
ENDMDL
MODEL 8
REMARK VINA RESULT:      -8.4      3.259      9.394
REMARK  Name = 
REMARK  6 active torsions:
REMARK  status: ('A' for Active; 'I' for Inactive)
REMARK    1  A    between atoms: C_2  and  C_3
REMARK    2  A    between atoms: C_3  and  C_4
REMARK    3  A    between atoms: C_4  and  N_5
REMARK    4  A    between atoms: N_16  and  C_17
REMARK    5  A    between atoms: C_21  and  S_22
REMARK    6  A    between atoms: S_22  and  N_25
REMARK                            x       y       z     vdW  Elec       q    Type
REMARK                         _______ _______ _______ _____ _____    ______ ____
ROOT
ATOM      1  O   UNL     1       1.090   4.441  19.521  0.00  0.00    +0.000 OA
ATOM      2  C   UNL     1       2.114   4.712  20.139  0.00  0.00    +0.000 C 
ATOM      3  N   UNL     1       2.743   5.950  20.177  0.00  0.00    +0.000 N 
ATOM      4  H   UNL     1       3.614   6.008  20.693  0.00  0.00    +0.000 HD
ENDROOT
BRANCH   3   5
ATOM      5  C   UNL     1       2.346   7.138  19.517  0.00  0.00    +0.000 A 
ATOM      6  C   UNL     1       2.550   7.380  18.157  0.00  0.00    +0.000 A 
ATOM      7  C   UNL     1       2.166   8.596  17.577  0.00  0.00    +0.000 A 
ATOM      8  C   UNL     1       1.559   9.587  18.345  0.00  0.00    +0.000 A 
ATOM      9  C   UNL     1       1.325   9.347  19.699  0.00  0.00    +0.000 A 
ATOM     10  C   UNL     1       1.702   8.122  20.277  0.00  0.00    +0.000 A 
BRANCH   9  11
ATOM     11  S   UNL     1       0.374  10.507  20.650  0.00  0.00    +0.000 S 
ATOM     12  O   UNL     1      -0.914   9.906  20.922  0.00  0.00    +0.000 OA
ATOM     13  O   UNL     1       1.188  10.992  21.745  0.00  0.00    +0.000 OA
BRANCH  11  14
ATOM     14  N   UNL     1       0.045  11.791  19.633  0.00  0.00    +0.000 N 
ATOM     15  C   UNL     1       0.850  12.920  19.521  0.00  0.00    +0.000 C 
ATOM     16  N   UNL     1       2.120  12.890  19.729  0.00  0.00    +0.000 NA
ATOM     17  C   UNL     1       2.596  14.264  19.538  0.00  0.00    +0.000 C 
ATOM     18  C   UNL     1       1.499  14.986  18.776  0.00  0.00    +0.000 C 
ATOM     19  C   UNL     1       0.244  14.234  19.160  0.00  0.00    +0.000 C 
ATOM     20  H   UNL     1      -0.936  11.811  19.367  0.00  0.00    +0.000 HD
ENDBRANCH  11  14
ENDBRANCH   9  11
ENDBRANCH   3   5
BRANCH   2  21
ATOM     21  C   UNL     1       2.804   3.676  21.012  0.00  0.00    +0.000 C 
BRANCH  21  22
ATOM     22  C   UNL     1       3.621   2.697  20.167  0.00  0.00    +0.000 C 
BRANCH  22  23
ATOM     23  N   UNL     1       4.240   3.353  19.025  0.00  0.00    +0.000 N 
ATOM     24  C   UNL     1       3.826   3.202  17.729  0.00  0.00    +0.000 C 
ATOM     25  O   UNL     1       2.918   2.527  17.283  0.00  0.00    +0.000 OA
ATOM     26  C   UNL     1       4.727   4.010  16.906  0.00  0.00    +0.000 A 
ATOM     27  C   UNL     1       4.749   4.227  15.541  0.00  0.00    +0.000 A 
ATOM     28  C   UNL     1       5.764   5.051  15.039  0.00  0.00    +0.000 A 
ATOM     29  C   UNL     1       6.720   5.626  15.901  0.00  0.00    +0.000 A 
ATOM     30  C   UNL     1       6.677   5.391  17.279  0.00  0.00    +0.000 A 
ATOM     31  C   UNL     1       5.664   4.578  17.749  0.00  0.00    +0.000 A 
ATOM     32  C   UNL     1       5.358   4.139  19.110  0.00  0.00    +0.000 C 
ATOM     33  O   UNL     1       6.021   4.422  20.089  0.00  0.00    +0.000 OA
ENDBRANCH  22  23
ENDBRANCH  21  22
ENDBRANCH   2  21
TORSDOF 6
ENDMDL
MODEL 9
REMARK VINA RESULT:      -8.4      2.992      8.946
REMARK  Name = 
REMARK  6 active torsions:
REMARK  status: ('A' for Active; 'I' for Inactive)
REMARK    1  A    between atoms: C_2  and  C_3
REMARK    2  A    between atoms: C_3  and  C_4
REMARK    3  A    between atoms: C_4  and  N_5
REMARK    4  A    between atoms: N_16  and  C_17
REMARK    5  A    between atoms: C_21  and  S_22
REMARK    6  A    between atoms: S_22  and  N_25
REMARK                            x       y       z     vdW  Elec       q    Type
REMARK                         _______ _______ _______ _____ _____    ______ ____
ROOT
ATOM      1  O   UNL     1       5.433   6.553  18.413  0.00  0.00    +0.000 OA
ATOM      2  C   UNL     1       4.583   6.190  17.606  0.00  0.00    +0.000 C 
ATOM      3  N   UNL     1       3.225   6.470  17.666  0.00  0.00    +0.000 N 
ATOM      4  H   UNL     1       2.638   6.057  16.950  0.00  0.00    +0.000 HD
ENDROOT
BRANCH   3   5
ATOM      5  C   UNL     1       2.542   7.215  18.659  0.00  0.00    +0.000 A 
ATOM      6  C   UNL     1       2.274   6.739  19.944  0.00  0.00    +0.000 A 
ATOM      7  C   UNL     1       1.559   7.516  20.865  0.00  0.00    +0.000 A 
ATOM      8  C   UNL     1       1.110   8.789  20.519  0.00  0.00    +0.000 A 
ATOM      9  C   UNL     1       1.395   9.286  19.249  0.00  0.00    +0.000 A 
ATOM     10  C   UNL     1       2.122   8.509  18.330  0.00  0.00    +0.000 A 
BRANCH   9  11
ATOM     11  S   UNL     1       1.013  10.976  18.855  0.00  0.00    +0.000 S 
ATOM     12  O   UNL     1       0.532  11.613  20.061  0.00  0.00    +0.000 OA
ATOM     13  O   UNL     1       2.128  11.551  18.132  0.00  0.00    +0.000 OA
BRANCH  11  14
ATOM     14  N   UNL     1      -0.308  10.933  17.832  0.00  0.00    +0.000 N 
ATOM     15  C   UNL     1      -1.606  11.243  18.226  0.00  0.00    +0.000 C 
ATOM     16  N   UNL     1      -1.864  12.072  19.176  0.00  0.00    +0.000 NA
ATOM     17  C   UNL     1      -3.325  12.108  19.299  0.00  0.00    +0.000 C 
ATOM     18  C   UNL     1      -3.868  11.520  18.009  0.00  0.00    +0.000 C 
ATOM     19  C   UNL     1      -2.764  10.596  17.545  0.00  0.00    +0.000 C 
ATOM     20  H   UNL     1      -0.124  10.356  17.015  0.00  0.00    +0.000 HD
ENDBRANCH  11  14
ENDBRANCH   9  11
ENDBRANCH   3   5
BRANCH   2  21
ATOM     21  C   UNL     1       4.965   5.399  16.365  0.00  0.00    +0.000 C 
BRANCH  21  22
ATOM     22  C   UNL     1       4.803   3.896  16.597  0.00  0.00    +0.000 C 
BRANCH  22  23
ATOM     23  N   UNL     1       3.952   3.613  17.743  0.00  0.00    +0.000 N 
ATOM     24  C   UNL     1       4.414   3.385  19.011  0.00  0.00    +0.000 C 
ATOM     25  O   UNL     1       5.559   3.364  19.422  0.00  0.00    +0.000 OA
ATOM     26  C   UNL     1       3.239   3.123  19.843  0.00  0.00    +0.000 A 
ATOM     27  C   UNL     1       3.134   2.851  21.194  0.00  0.00    +0.000 A 
ATOM     28  C   UNL     1       1.851   2.623  21.704  0.00  0.00    +0.000 A 
ATOM     29  C   UNL     1       0.720   2.668  20.863  0.00  0.00    +0.000 A 
ATOM     30  C   UNL     1       0.852   2.945  19.499  0.00  0.00    +0.000 A 
ATOM     31  C   UNL     1       2.128   3.170  19.021  0.00  0.00    +0.000 A 
ATOM     32  C   UNL     1       2.593   3.468  17.667  0.00  0.00    +0.000 C 
ATOM     33  O   UNL     1       1.871   3.533  16.691  0.00  0.00    +0.000 OA
ENDBRANCH  22  23
ENDBRANCH  21  22
ENDBRANCH   2  21
TORSDOF 6
ENDMDL
