MODEL 1
REMARK VINA RESULT:      -8.5      0.000      0.000
REMARK  Name = 
REMARK  4 active torsions:
REMARK  status: ('A' for Active; 'I' for Inactive)
REMARK    1  A    between atoms: C_1  and  S_2
REMARK    2  A    between atoms: S_2  and  C_5
REMARK    3  A    between atoms: C_10  and  C_11
REMARK    4  A    between atoms: C_16  and  C_17
REMARK                            x       y       z     vdW  Elec       q    Type
REMARK                         _______ _______ _______ _____ _____    ______ ____
ROOT
ATOM      1  C   UNL     1       2.324   6.238  19.349  0.00  0.00    +0.000 C 
ATOM      2  O   UNL     1       2.018   6.229  20.538  0.00  0.00    +0.000 OA
ATOM      3  N   UNL     1       2.294   7.331  18.526  0.00  0.00    +0.000 N 
ATOM      4  C   UNL     1       1.773   8.533  18.924  0.00  0.00    +0.000 A 
ATOM      5  N   UNL     1       0.991   8.801  19.935  0.00  0.00    +0.000 NA
ATOM      6  C   UNL     1       0.657  10.148  19.923  0.00  0.00    +0.000 A 
ATOM      7  C   UNL     1       1.260  10.881  18.919  0.00  0.00    +0.000 A 
ATOM      8  S   UNL     1       2.180   9.843  17.909  0.00  0.00    +0.000 S 
ATOM      9  H   UNL     1       2.809   7.357  17.651  0.00  0.00    +0.000 HD
ENDROOT
BRANCH   6  10
ATOM     10  C   UNL     1      -0.264  10.697  20.913  0.00  0.00    +0.000 A 
ATOM     11  C   UNL     1      -0.297  10.213  22.239  0.00  0.00    +0.000 A 
ATOM     12  C   UNL     1      -1.164  10.763  23.188  0.00  0.00    +0.000 A 
ATOM     13  C   UNL     1      -1.980  11.813  22.807  0.00  0.00    +0.000 A 
ATOM     14  C   UNL     1      -1.945  12.312  21.504  0.00  0.00    +0.000 A 
ATOM     15  C   UNL     1      -1.106  11.758  20.549  0.00  0.00    +0.000 A 
ATOM     16  C   UNL     1      -2.910  13.438  21.322  0.00  0.00    +0.000 C 
ATOM     17  C   UNL     1      -3.328  13.748  22.768  0.00  0.00    +0.000 C 
ATOM     18  C   UNL     1      -3.004  12.521  23.631  0.00  0.00    +0.000 C 
ENDBRANCH   6  10
BRANCH   1  24
ATOM     19  C   UNL     1       3.923   4.500  18.185  0.00  0.00    +0.000 A 
ATOM     20  C   UNL     1       4.033   3.209  17.623  0.00  0.00    +0.000 A 
ATOM     21  C   UNL     1       2.973   2.307  17.667  0.00  0.00    +0.000 A 
ATOM     22  C   UNL     1       1.785   2.682  18.274  0.00  0.00    +0.000 A 
ATOM     23  C   UNL     1       1.653   3.970  18.794  0.00  0.00    +0.000 A 
ATOM     24  C   UNL     1       2.705   4.917  18.746  0.00  0.00    +0.000 A 
BRANCH  19  26
ATOM     25  C   UNL     1       6.522   4.491  17.173  0.00  0.00    +0.000 C 
ATOM     26  S   UNL     1       5.440   5.427  18.219  0.00  0.00    +0.000 S 
ATOM     27  O   UNL     1       5.960   5.434  19.573  0.00  0.00    +0.000 OA
ATOM     28  O   UNL     1       5.187   6.698  17.565  0.00  0.00    +0.000 OA
ENDBRANCH  19  26
ENDBRANCH   1  24
TORSDOF 3
ENDMDL
MODEL 2
REMARK VINA RESULT:      -8.0      1.032      1.143
REMARK  Name = 
REMARK  4 active torsions:
REMARK  status: ('A' for Active; 'I' for Inactive)
REMARK    1  A    between atoms: C_1  and  S_2
REMARK    2  A    between atoms: S_2  and  C_5
REMARK    3  A    between atoms: C_10  and  C_11
REMARK    4  A    between atoms: C_16  and  C_17
REMARK                            x       y       z     vdW  Elec       q    Type
REMARK                         _______ _______ _______ _____ _____    ______ ____
ROOT
ATOM      1  C   UNL     1       2.223   6.131  19.340  0.00  0.00    +0.000 C 
ATOM      2  O   UNL     1       2.027   6.196  20.551  0.00  0.00    +0.000 OA
ATOM      3  N   UNL     1       2.193   7.188  18.471  0.00  0.00    +0.000 N 
ATOM      4  C   UNL     1       1.794   8.441  18.855  0.00  0.00    +0.000 A 
ATOM      5  N   UNL     1       1.129   8.808  19.917  0.00  0.00    +0.000 NA
ATOM      6  C   UNL     1       0.889  10.174  19.869  0.00  0.00    +0.000 A 
ATOM      7  C   UNL     1       1.447  10.818  18.781  0.00  0.00    +0.000 A 
ATOM      8  S   UNL     1       2.196   9.673  17.745  0.00  0.00    +0.000 S 
ATOM      9  H   UNL     1       2.625   7.139  17.554  0.00  0.00    +0.000 HD
ENDROOT
BRANCH   6  10
ATOM     10  C   UNL     1       0.104  10.830  20.909  0.00  0.00    +0.000 A 
ATOM     11  C   UNL     1      -0.374  10.121  22.032  0.00  0.00    +0.000 A 
ATOM     12  C   UNL     1      -1.103  10.764  23.037  0.00  0.00    +0.000 A 
ATOM     13  C   UNL     1      -1.331  12.123  22.920  0.00  0.00    +0.000 A 
ATOM     14  C   UNL     1      -0.850  12.840  21.824  0.00  0.00    +0.000 A 
ATOM     15  C   UNL     1      -0.146  12.207  20.811  0.00  0.00    +0.000 A 
ATOM     16  C   UNL     1      -1.218  14.286  21.909  0.00  0.00    +0.000 C 
ATOM     17  C   UNL     1      -1.738  14.407  23.350  0.00  0.00    +0.000 C 
ATOM     18  C   UNL     1      -2.113  13.002  23.841  0.00  0.00    +0.000 C 
ENDBRANCH   6  10
BRANCH   1  24
ATOM     19  C   UNL     1       3.527   4.272  18.009  0.00  0.00    +0.000 A 
ATOM     20  C   UNL     1       3.503   2.943  17.532  0.00  0.00    +0.000 A 
ATOM     21  C   UNL     1       2.460   2.078  17.854  0.00  0.00    +0.000 A 
ATOM     22  C   UNL     1       1.425   2.528  18.658  0.00  0.00    +0.000 A 
ATOM     23  C   UNL     1       1.420   3.852  19.098  0.00  0.00    +0.000 A 
ATOM     24  C   UNL     1       2.454   4.763  18.772  0.00  0.00    +0.000 A 
BRANCH  19  26
ATOM     25  C   UNL     1       5.772   5.347  19.268  0.00  0.00    +0.000 C 
ATOM     26  S   UNL     1       5.033   5.155  17.669  0.00  0.00    +0.000 S 
ATOM     27  O   UNL     1       4.704   6.459  17.126  0.00  0.00    +0.000 OA
ATOM     28  O   UNL     1       5.887   4.275  16.892  0.00  0.00    +0.000 OA
ENDBRANCH  19  26
ENDBRANCH   1  24
TORSDOF 3
ENDMDL
MODEL 3
REMARK VINA RESULT:      -7.9      2.975      8.838
REMARK  Name = 
REMARK  4 active torsions:
REMARK  status: ('A' for Active; 'I' for Inactive)
REMARK    1  A    between atoms: C_1  and  S_2
REMARK    2  A    between atoms: S_2  and  C_5
REMARK    3  A    between atoms: C_10  and  C_11
REMARK    4  A    between atoms: C_16  and  C_17
REMARK                            x       y       z     vdW  Elec       q    Type
REMARK                         _______ _______ _______ _____ _____    ______ ____
ROOT
ATOM      1  C   UNL     1      -0.231  10.695  21.299  0.00  0.00    +0.000 C 
ATOM      2  O   UNL     1      -0.555   9.618  21.791  0.00  0.00    +0.000 OA
ATOM      3  N   UNL     1       0.538  10.860  20.179  0.00  0.00    +0.000 N 
ATOM      4  C   UNL     1       1.154   9.810  19.552  0.00  0.00    +0.000 A 
ATOM      5  N   UNL     1       1.391   8.605  19.997  0.00  0.00    +0.000 NA
ATOM      6  C   UNL     1       2.098   7.886  19.044  0.00  0.00    +0.000 A 
ATOM      7  C   UNL     1       2.322   8.564  17.860  0.00  0.00    +0.000 A 
ATOM      8  S   UNL     1       1.727  10.169  17.985  0.00  0.00    +0.000 S 
ATOM      9  H   UNL     1       0.547  11.733  19.660  0.00  0.00    +0.000 HD
ENDROOT
BRANCH   6  10
ATOM     10  C   UNL     1       2.547   6.525  19.318  0.00  0.00    +0.000 A 
ATOM     11  C   UNL     1       3.734   6.011  18.752  0.00  0.00    +0.000 A 
ATOM     12  C   UNL     1       4.170   4.715  19.042  0.00  0.00    +0.000 A 
ATOM     13  C   UNL     1       3.423   3.946  19.916  0.00  0.00    +0.000 A 
ATOM     14  C   UNL     1       2.258   4.449  20.497  0.00  0.00    +0.000 A 
ATOM     15  C   UNL     1       1.804   5.724  20.198  0.00  0.00    +0.000 A 
ATOM     16  C   UNL     1       1.619   3.446  21.401  0.00  0.00    +0.000 C 
ATOM     17  C   UNL     1       2.710   2.369  21.519  0.00  0.00    +0.000 C 
ATOM     18  C   UNL     1       3.672   2.535  20.335  0.00  0.00    +0.000 C 
ENDBRANCH   6  10
BRANCH   1  24
ATOM     19  C   UNL     1      -0.128  13.222  22.032  0.00  0.00    +0.000 A 
ATOM     20  C   UNL     1      -0.687  14.223  22.857  0.00  0.00    +0.000 A 
ATOM     21  C   UNL     1      -1.816  13.971  23.634  0.00  0.00    +0.000 A 
ATOM     22  C   UNL     1      -2.402  12.716  23.599  0.00  0.00    +0.000 A 
ATOM     23  C   UNL     1      -1.829  11.710  22.820  0.00  0.00    +0.000 A 
ATOM     24  C   UNL     1      -0.671  11.927  22.034  0.00  0.00    +0.000 A 
BRANCH  19  26
ATOM     25  C   UNL     1       1.404  15.476  21.440  0.00  0.00    +0.000 C 
ATOM     26  S   UNL     1       1.175  13.786  20.960  0.00  0.00    +0.000 S 
ATOM     27  O   UNL     1       0.714  13.729  19.586  0.00  0.00    +0.000 OA
ATOM     28  O   UNL     1       2.379  13.059  21.319  0.00  0.00    +0.000 OA
ENDBRANCH  19  26
ENDBRANCH   1  24
TORSDOF 3
ENDMDL
MODEL 4
REMARK VINA RESULT:      -7.8      2.614      3.879
REMARK  Name = 
REMARK  4 active torsions:
REMARK  status: ('A' for Active; 'I' for Inactive)
REMARK    1  A    between atoms: C_1  and  S_2
REMARK    2  A    between atoms: S_2  and  C_5
REMARK    3  A    between atoms: C_10  and  C_11
REMARK    4  A    between atoms: C_16  and  C_17
REMARK                            x       y       z     vdW  Elec       q    Type
REMARK                         _______ _______ _______ _____ _____    ______ ____
ROOT
ATOM      1  C   UNL     1       2.615   7.362  18.209  0.00  0.00    +0.000 C 
ATOM      2  O   UNL     1       2.262   8.106  17.299  0.00  0.00    +0.000 OA
ATOM      3  N   UNL     1       2.246   7.478  19.522  0.00  0.00    +0.000 N 
ATOM      4  C   UNL     1       1.533   8.550  19.990  0.00  0.00    +0.000 A 
ATOM      5  N   UNL     1       1.339   9.718  19.440  0.00  0.00    +0.000 NA
ATOM      6  C   UNL     1       0.605  10.523  20.299  0.00  0.00    +0.000 A 
ATOM      7  C   UNL     1       0.205   9.903  21.468  0.00  0.00    +0.000 A 
ATOM      8  S   UNL     1       0.853   8.316  21.537  0.00  0.00    +0.000 S 
ATOM      9  H   UNL     1       2.328   6.703  20.172  0.00  0.00    +0.000 HD
ENDROOT
BRANCH   6  10
ATOM     10  C   UNL     1       0.304  11.908  19.949  0.00  0.00    +0.000 A 
ATOM     11  C   UNL     1      -0.969  12.469  20.185  0.00  0.00    +0.000 A 
ATOM     12  C   UNL     1      -1.240  13.805  19.871  0.00  0.00    +0.000 A 
ATOM     13  C   UNL     1      -0.223  14.577  19.341  0.00  0.00    +0.000 A 
ATOM     14  C   UNL     1       1.045  14.040  19.119  0.00  0.00    +0.000 A 
ATOM     15  C   UNL     1       1.318  12.711  19.405  0.00  0.00    +0.000 A 
ATOM     16  C   UNL     1       1.978  15.054  18.541  0.00  0.00    +0.000 C 
ATOM     17  C   UNL     1       1.188  16.361  18.712  0.00  0.00    +0.000 C 
ATOM     18  C   UNL     1      -0.293  16.001  18.896  0.00  0.00    +0.000 C 
ENDBRANCH   6  10
BRANCH   1  24
ATOM     19  C   UNL     1       3.426   4.877  17.897  0.00  0.00    +0.000 A 
ATOM     20  C   UNL     1       4.507   4.036  17.552  0.00  0.00    +0.000 A 
ATOM     21  C   UNL     1       5.715   4.561  17.098  0.00  0.00    +0.000 A 
ATOM     22  C   UNL     1       5.861   5.933  16.982  0.00  0.00    +0.000 A 
ATOM     23  C   UNL     1       4.813   6.772  17.362  0.00  0.00    +0.000 A 
ATOM     24  C   UNL     1       3.580   6.272  17.847  0.00  0.00    +0.000 A 
BRANCH  19  26
ATOM     25  C   UNL     1       2.394   2.323  18.331  0.00  0.00    +0.000 C 
ATOM     26  S   UNL     1       1.907   4.024  18.252  0.00  0.00    +0.000 S 
ATOM     27  O   UNL     1       0.987   4.216  17.147  0.00  0.00    +0.000 OA
ATOM     28  O   UNL     1       1.485   4.423  19.583  0.00  0.00    +0.000 OA
ENDBRANCH  19  26
ENDBRANCH   1  24
TORSDOF 3
ENDMDL
MODEL 5
REMARK VINA RESULT:      -7.8      4.520      9.688
REMARK  Name = 
REMARK  4 active torsions:
REMARK  status: ('A' for Active; 'I' for Inactive)
REMARK    1  A    between atoms: C_1  and  S_2
REMARK    2  A    between atoms: S_2  and  C_5
REMARK    3  A    between atoms: C_10  and  C_11
REMARK    4  A    between atoms: C_16  and  C_17
REMARK                            x       y       z     vdW  Elec       q    Type
REMARK                         _______ _______ _______ _____ _____    ______ ____
ROOT
ATOM      1  C   UNL     1      -3.794  11.656  18.337  0.00  0.00    +0.000 C 
ATOM      2  O   UNL     1      -3.742  10.459  18.068  0.00  0.00    +0.000 OA
ATOM      3  N   UNL     1      -2.718  12.468  18.569  0.00  0.00    +0.000 N 
ATOM      4  C   UNL     1      -1.441  11.982  18.662  0.00  0.00    +0.000 A 
ATOM      5  N   UNL     1      -1.034  10.756  18.849  0.00  0.00    +0.000 NA
ATOM      6  C   UNL     1       0.350  10.731  18.941  0.00  0.00    +0.000 A 
ATOM      7  C   UNL     1       0.961  11.957  18.754  0.00  0.00    +0.000 A 
ATOM      8  S   UNL     1      -0.228  13.179  18.564  0.00  0.00    +0.000 S 
ATOM      9  H   UNL     1      -2.787  13.479  18.510  0.00  0.00    +0.000 HD
ENDROOT
BRANCH   6  10
ATOM     10  C   UNL     1       1.057   9.485  19.216  0.00  0.00    +0.000 A 
ATOM     11  C   UNL     1       0.905   8.804  20.444  0.00  0.00    +0.000 A 
ATOM     12  C   UNL     1       1.567   7.597  20.688  0.00  0.00    +0.000 A 
ATOM     13  C   UNL     1       2.362   7.066  19.689  0.00  0.00    +0.000 A 
ATOM     14  C   UNL     1       2.508   7.719  18.465  0.00  0.00    +0.000 A 
ATOM     15  C   UNL     1       1.875   8.929  18.220  0.00  0.00    +0.000 A 
ATOM     16  C   UNL     1       3.413   6.966  17.545  0.00  0.00    +0.000 C 
ATOM     17  C   UNL     1       3.567   5.619  18.268  0.00  0.00    +0.000 C 
ATOM     18  C   UNL     1       3.188   5.823  19.741  0.00  0.00    +0.000 C 
ENDBRANCH   6  10
BRANCH   1  24
ATOM     19  C   UNL     1      -5.849  12.676  19.628  0.00  0.00    +0.000 A 
ATOM     20  C   UNL     1      -7.171  13.162  19.522  0.00  0.00    +0.000 A 
ATOM     21  C   UNL     1      -7.797  13.290  18.284  0.00  0.00    +0.000 A 
ATOM     22  C   UNL     1      -7.112  12.935  17.134  0.00  0.00    +0.000 A 
ATOM     23  C   UNL     1      -5.821  12.414  17.234  0.00  0.00    +0.000 A 
ATOM     24  C   UNL     1      -5.164  12.252  18.478  0.00  0.00    +0.000 A 
BRANCH  19  26
ATOM     25  C   UNL     1      -5.405  14.475  21.713  0.00  0.00    +0.000 C 
ATOM     26  S   UNL     1      -5.149  12.782  21.259  0.00  0.00    +0.000 S 
ATOM     27  O   UNL     1      -3.726  12.509  21.182  0.00  0.00    +0.000 OA
ATOM     28  O   UNL     1      -5.966  11.963  22.137  0.00  0.00    +0.000 OA
ENDBRANCH  19  26
ENDBRANCH   1  24
TORSDOF 3
ENDMDL
MODEL 6
REMARK VINA RESULT:      -7.7      1.285      1.636
REMARK  Name = 
REMARK  4 active torsions:
REMARK  status: ('A' for Active; 'I' for Inactive)
REMARK    1  A    between atoms: C_1  and  S_2
REMARK    2  A    between atoms: S_2  and  C_5
REMARK    3  A    between atoms: C_10  and  C_11
REMARK    4  A    between atoms: C_16  and  C_17
REMARK                            x       y       z     vdW  Elec       q    Type
REMARK                         _______ _______ _______ _____ _____    ______ ____
ROOT
ATOM      1  C   UNL     1       1.959   6.717  20.112  0.00  0.00    +0.000 C 
ATOM      2  O   UNL     1       1.899   7.019  21.300  0.00  0.00    +0.000 OA
ATOM      3  N   UNL     1       1.886   7.592  19.063  0.00  0.00    +0.000 N 
ATOM      4  C   UNL     1       1.593   8.919  19.234  0.00  0.00    +0.000 A 
ATOM      5  N   UNL     1       1.065   9.523  20.265  0.00  0.00    +0.000 NA
ATOM      6  C   UNL     1       0.888  10.868  19.978  0.00  0.00    +0.000 A 
ATOM      7  C   UNL     1       1.354  11.258  18.736  0.00  0.00    +0.000 A 
ATOM      8  S   UNL     1       1.930   9.892  17.873  0.00  0.00    +0.000 S 
ATOM      9  H   UNL     1       2.213   7.343  18.134  0.00  0.00    +0.000 HD
ENDROOT
BRANCH   6  10
ATOM     10  C   UNL     1       0.253  11.760  20.943  0.00  0.00    +0.000 A 
ATOM     11  C   UNL     1       0.716  13.077  21.148  0.00  0.00    +0.000 A 
ATOM     12  C   UNL     1       0.085  13.932  22.056  0.00  0.00    +0.000 A 
ATOM     13  C   UNL     1      -1.023  13.468  22.740  0.00  0.00    +0.000 A 
ATOM     14  C   UNL     1      -1.503  12.174  22.534  0.00  0.00    +0.000 A 
ATOM     15  C   UNL     1      -0.870  11.309  21.653  0.00  0.00    +0.000 A 
ATOM     16  C   UNL     1      -2.702  11.892  23.379  0.00  0.00    +0.000 C 
ATOM     17  C   UNL     1      -3.063  13.287  23.912  0.00  0.00    +0.000 C 
ATOM     18  C   UNL     1      -1.823  14.183  23.778  0.00  0.00    +0.000 C 
ENDBRANCH   6  10
BRANCH   1  24
ATOM     19  C   UNL     1       2.978   4.566  18.987  0.00  0.00    +0.000 A 
ATOM     20  C   UNL     1       2.844   3.173  18.795  0.00  0.00    +0.000 A 
ATOM     21  C   UNL     1       1.851   2.446  19.447  0.00  0.00    +0.000 A 
ATOM     22  C   UNL     1       0.977   3.099  20.300  0.00  0.00    +0.000 A 
ATOM     23  C   UNL     1       1.076   4.482  20.462  0.00  0.00    +0.000 A 
ATOM     24  C   UNL     1       2.061   5.253  19.798  0.00  0.00    +0.000 A 
BRANCH  19  26
ATOM     25  C   UNL     1       4.967   4.035  17.105  0.00  0.00    +0.000 C 
ATOM     26  S   UNL     1       4.425   5.282  18.240  0.00  0.00    +0.000 S 
ATOM     27  O   UNL     1       5.435   5.481  19.262  0.00  0.00    +0.000 OA
ATOM     28  O   UNL     1       3.991   6.428  17.462  0.00  0.00    +0.000 OA
ENDBRANCH  19  26
ENDBRANCH   1  24
TORSDOF 3
ENDMDL
MODEL 7
REMARK VINA RESULT:      -7.7      2.877      8.990
REMARK  Name = 
REMARK  4 active torsions:
REMARK  status: ('A' for Active; 'I' for Inactive)
REMARK    1  A    between atoms: C_1  and  S_2
REMARK    2  A    between atoms: S_2  and  C_5
REMARK    3  A    between atoms: C_10  and  C_11
REMARK    4  A    between atoms: C_16  and  C_17
REMARK                            x       y       z     vdW  Elec       q    Type
REMARK                         _______ _______ _______ _____ _____    ______ ____
ROOT
ATOM      1  C   UNL     1      -0.241  10.784  21.200  0.00  0.00    +0.000 C 
ATOM      2  O   UNL     1      -0.673   9.715  21.623  0.00  0.00    +0.000 OA
ATOM      3  N   UNL     1       0.604  10.935  20.134  0.00  0.00    +0.000 N 
ATOM      4  C   UNL     1       1.178   9.867  19.498  0.00  0.00    +0.000 A 
ATOM      5  N   UNL     1       1.299   8.631  19.900  0.00  0.00    +0.000 NA
ATOM      6  C   UNL     1       2.008   7.899  18.958  0.00  0.00    +0.000 A 
ATOM      7  C   UNL     1       2.352   8.606  17.821  0.00  0.00    +0.000 A 
ATOM      8  S   UNL     1       1.870  10.245  17.984  0.00  0.00    +0.000 S 
ATOM      9  H   UNL     1       0.709  11.825  19.656  0.00  0.00    +0.000 HD
ENDROOT
BRANCH   6  10
ATOM     10  C   UNL     1       2.338   6.498  19.197  0.00  0.00    +0.000 A 
ATOM     11  C   UNL     1       2.094   5.883  20.444  0.00  0.00    +0.000 A 
ATOM     12  C   UNL     1       2.390   4.533  20.654  0.00  0.00    +0.000 A 
ATOM     13  C   UNL     1       2.911   3.800  19.604  0.00  0.00    +0.000 A 
ATOM     14  C   UNL     1       3.141   4.390  18.361  0.00  0.00    +0.000 A 
ATOM     15  C   UNL     1       2.873   5.734  18.148  0.00  0.00    +0.000 A 
ATOM     16  C   UNL     1       3.708   3.412  17.384  0.00  0.00    +0.000 C 
ATOM     17  C   UNL     1       3.518   2.073  18.115  0.00  0.00    +0.000 C 
ATOM     18  C   UNL     1       3.337   2.369  19.611  0.00  0.00    +0.000 C 
ENDBRANCH   6  10
BRANCH   1  24
ATOM     19  C   UNL     1      -0.063  13.297  21.961  0.00  0.00    +0.000 A 
ATOM     20  C   UNL     1      -0.578  14.299  22.814  0.00  0.00    +0.000 A 
ATOM     21  C   UNL     1      -1.688  14.061  23.621  0.00  0.00    +0.000 A 
ATOM     22  C   UNL     1      -2.301  12.819  23.587  0.00  0.00    +0.000 A 
ATOM     23  C   UNL     1      -1.773  11.811  22.779  0.00  0.00    +0.000 A 
ATOM     24  C   UNL     1      -0.634  12.014  21.963  0.00  0.00    +0.000 A 
BRANCH  19  26
ATOM     25  C   UNL     1       1.461  15.543  21.318  0.00  0.00    +0.000 C 
ATOM     26  S   UNL     1       1.219  13.849  20.859  0.00  0.00    +0.000 S 
ATOM     27  O   UNL     1       0.733  13.779  19.494  0.00  0.00    +0.000 OA
ATOM     28  O   UNL     1       2.429  13.123  21.203  0.00  0.00    +0.000 OA
ENDBRANCH  19  26
ENDBRANCH   1  24
TORSDOF 3
ENDMDL
MODEL 8
REMARK VINA RESULT:      -7.6      2.519      3.689
REMARK  Name = 
REMARK  4 active torsions:
REMARK  status: ('A' for Active; 'I' for Inactive)
REMARK    1  A    between atoms: C_1  and  S_2
REMARK    2  A    between atoms: S_2  and  C_5
REMARK    3  A    between atoms: C_10  and  C_11
REMARK    4  A    between atoms: C_16  and  C_17
REMARK                            x       y       z     vdW  Elec       q    Type
REMARK                         _______ _______ _______ _____ _____    ______ ____
ROOT
ATOM      1  C   UNL     1       2.621   7.432  18.107  0.00  0.00    +0.000 C 
ATOM      2  O   UNL     1       2.274   8.196  17.211  0.00  0.00    +0.000 OA
ATOM      3  N   UNL     1       2.256   7.529  19.423  0.00  0.00    +0.000 N 
ATOM      4  C   UNL     1       1.556   8.600  19.911  0.00  0.00    +0.000 A 
ATOM      5  N   UNL     1       1.373   9.779  19.383  0.00  0.00    +0.000 NA
ATOM      6  C   UNL     1       0.649  10.577  20.257  0.00  0.00    +0.000 A 
ATOM      7  C   UNL     1       0.246   9.941  21.416  0.00  0.00    +0.000 A 
ATOM      8  S   UNL     1       0.877   8.346  21.456  0.00  0.00    +0.000 S 
ATOM      9  H   UNL     1       2.332   6.742  20.059  0.00  0.00    +0.000 HD
ENDROOT
BRANCH   6  10
ATOM     10  C   UNL     1       0.362  11.970  19.933  0.00  0.00    +0.000 A 
ATOM     11  C   UNL     1      -0.097  12.352  18.654  0.00  0.00    +0.000 A 
ATOM     12  C   UNL     1      -0.395  13.686  18.360  0.00  0.00    +0.000 A 
ATOM     13  C   UNL     1      -0.249  14.630  19.360  0.00  0.00    +0.000 A 
ATOM     14  C   UNL     1       0.187  14.265  20.634  0.00  0.00    +0.000 A 
ATOM     15  C   UNL     1       0.507  12.948  20.929  0.00  0.00    +0.000 A 
ATOM     16  C   UNL     1       0.271  15.445  21.546  0.00  0.00    +0.000 C 
ATOM     17  C   UNL     1      -0.452  16.534  20.738  0.00  0.00    +0.000 C 
ATOM     18  C   UNL     1      -0.466  16.104  19.264  0.00  0.00    +0.000 C 
ENDBRANCH   6  10
BRANCH   1  24
ATOM     19  C   UNL     1       3.429   4.945  17.807  0.00  0.00    +0.000 A 
ATOM     20  C   UNL     1       4.497   4.101  17.430  0.00  0.00    +0.000 A 
ATOM     21  C   UNL     1       5.681   4.621  16.913  0.00  0.00    +0.000 A 
ATOM     22  C   UNL     1       5.816   5.991  16.764  0.00  0.00    +0.000 A 
ATOM     23  C   UNL     1       4.782   6.834  17.174  0.00  0.00    +0.000 A 
ATOM     24  C   UNL     1       3.574   6.339  17.723  0.00  0.00    +0.000 A 
BRANCH  19  26
ATOM     25  C   UNL     1       2.417   2.391  18.289  0.00  0.00    +0.000 C 
ATOM     26  S   UNL     1       1.930   4.094  18.246  0.00  0.00    +0.000 S 
ATOM     27  O   UNL     1       0.949   4.292  17.196  0.00  0.00    +0.000 OA
ATOM     28  O   UNL     1       1.587   4.488  19.601  0.00  0.00    +0.000 OA
ENDBRANCH  19  26
ENDBRANCH   1  24
TORSDOF 3
ENDMDL
MODEL 9
REMARK VINA RESULT:      -7.6      2.667      9.570
REMARK  Name = 
REMARK  4 active torsions:
REMARK  status: ('A' for Active; 'I' for Inactive)
REMARK    1  A    between atoms: C_1  and  S_2
REMARK    2  A    between atoms: S_2  and  C_5
REMARK    3  A    between atoms: C_10  and  C_11
REMARK    4  A    between atoms: C_16  and  C_17
REMARK                            x       y       z     vdW  Elec       q    Type
REMARK                         _______ _______ _______ _____ _____    ______ ____
ROOT
ATOM      1  C   UNL     1       1.903   8.685  18.533  0.00  0.00    +0.000 C 
ATOM      2  O   UNL     1       2.611   9.189  17.666  0.00  0.00    +0.000 OA
ATOM      3  N   UNL     1       2.095   7.455  19.102  0.00  0.00    +0.000 N 
ATOM      4  C   UNL     1       3.046   6.580  18.651  0.00  0.00    +0.000 A 
ATOM      5  N   UNL     1       3.695   6.574  17.518  0.00  0.00    +0.000 NA
ATOM      6  C   UNL     1       4.521   5.462  17.457  0.00  0.00    +0.000 A 
ATOM      7  C   UNL     1       4.518   4.679  18.597  0.00  0.00    +0.000 A 
ATOM      8  S   UNL     1       3.378   5.294  19.723  0.00  0.00    +0.000 S 
ATOM      9  H   UNL     1       1.667   7.203  19.987  0.00  0.00    +0.000 HD
ENDROOT
BRANCH   6  10
ATOM     10  C   UNL     1       5.311   5.183  16.262  0.00  0.00    +0.000 A 
ATOM     11  C   UNL     1       6.689   5.484  16.201  0.00  0.00    +0.000 A 
ATOM     12  C   UNL     1       7.443   5.189  15.062  0.00  0.00    +0.000 A 
ATOM     13  C   UNL     1       6.815   4.573  13.995  0.00  0.00    +0.000 A 
ATOM     14  C   UNL     1       5.458   4.254  14.048  0.00  0.00    +0.000 A 
ATOM     15  C   UNL     1       4.695   4.564  15.165  0.00  0.00    +0.000 A 
ATOM     16  C   UNL     1       4.996   3.601  12.786  0.00  0.00    +0.000 C 
ATOM     17  C   UNL     1       6.322   3.301  12.070  0.00  0.00    +0.000 C 
ATOM     18  C   UNL     1       7.405   4.206  12.673  0.00  0.00    +0.000 C 
ENDBRANCH   6  10
BRANCH   1  24
ATOM     19  C   UNL     1       0.173   9.709  20.232  0.00  0.00    +0.000 A 
ATOM     20  C   UNL     1      -1.024  10.444  20.380  0.00  0.00    +0.000 A 
ATOM     21  C   UNL     1      -1.673  10.997  19.278  0.00  0.00    +0.000 A 
ATOM     22  C   UNL     1      -1.137  10.823  18.013  0.00  0.00    +0.000 A 
ATOM     23  C   UNL     1       0.022  10.062  17.854  0.00  0.00    +0.000 A 
ATOM     24  C   UNL     1       0.695   9.470  18.950  0.00  0.00    +0.000 A 
BRANCH  19  26
ATOM     25  C   UNL     1      -0.288   9.563  22.979  0.00  0.00    +0.000 C 
ATOM     26  S   UNL     1       0.964   9.264  21.761  0.00  0.00    +0.000 S 
ATOM     27  O   UNL     1       2.087  10.154  21.990  0.00  0.00    +0.000 OA
ATOM     28  O   UNL     1       1.209   7.834  21.724  0.00  0.00    +0.000 OA
ENDBRANCH  19  26
ENDBRANCH   1  24
TORSDOF 3
ENDMDL
