MODEL 1
REMARK VINA RESULT:      -8.8      0.000      0.000
REMARK  Name = 
REMARK  6 active torsions:
REMARK  status: ('A' for Active; 'I' for Inactive)
REMARK    1  A    between atoms: C_1  and  C_2
REMARK    2  A    between atoms: C_7  and  N_8
REMARK    3  A    between atoms: C_12  and  S_13
REMARK    4  A    between atoms: S_13  and  C_16
REMARK    5  A    between atoms: C_16  and  C_17
REMARK    6  A    between atoms: C_20  and  C_21
REMARK                            x       y       z     vdW  Elec       q    Type
REMARK                         _______ _______ _______ _____ _____    ______ ____
ROOT
ATOM      1  S   UNL     1       5.530   4.583  18.044  0.00  0.00    +0.000 S 
ATOM      2  O   UNL     1       6.057   4.355  19.379  0.00  0.00    +0.000 OA
ATOM      3  O   UNL     1       4.869   3.531  17.305  0.00  0.00    +0.000 OA
ENDROOT
BRANCH   1   8
ATOM      4  N   UNL     1       3.046   5.835  18.758  0.00  0.00    +0.000 N 
ATOM      5  C   UNL     1       2.498   7.077  18.476  0.00  0.00    +0.000 A 
ATOM      6  C   UNL     1       3.426   7.794  17.775  0.00  0.00    +0.000 A 
ATOM      7  N   UNL     1       4.576   7.090  17.675  0.00  0.00    +0.000 NA
ATOM      8  C   UNL     1       4.343   5.898  18.211  0.00  0.00    +0.000 A 
BRANCH   4  15
ATOM      9  C   UNL     1       1.210   3.689  17.430  0.00  0.00    +0.000 C 
ATOM     10  C   UNL     1       1.542   3.806  18.895  0.00  0.00    +0.000 A 
ATOM     11  C   UNL     1       0.950   2.815  19.717  0.00  0.00    +0.000 A 
ATOM     12  C   UNL     1       1.164   2.774  21.090  0.00  0.00    +0.000 A 
ATOM     13  C   UNL     1       1.933   3.757  21.678  0.00  0.00    +0.000 A 
ATOM     14  C   UNL     1       2.502   4.762  20.891  0.00  0.00    +0.000 A 
ATOM     15  C   UNL     1       2.374   4.790  19.494  0.00  0.00    +0.000 A 
ENDBRANCH   4  15
ENDBRANCH   1   8
BRANCH   1  16
ATOM     16  C   UNL     1       6.895   5.239  17.138  0.00  0.00    +0.000 C 
BRANCH  16  17
ATOM     17  C   UNL     1       6.958   4.892  15.714  0.00  0.00    +0.000 A 
ATOM     18  N   UNL     1       7.698   5.605  14.851  0.00  0.00    +0.000 NA
ATOM     19  O   UNL     1       7.346   5.074  13.611  0.00  0.00    +0.000 OA
ATOM     20  C   UNL     1       6.407   4.109  13.846  0.00  0.00    +0.000 A 
ATOM     21  N   UNL     1       6.113   3.990  15.123  0.00  0.00    +0.000 NA
BRANCH  20  22
ATOM     22  C   UNL     1       5.892   3.386  12.691  0.00  0.00    +0.000 A 
ATOM     23  C   UNL     1       6.636   2.362  12.081  0.00  0.00    +0.000 A 
ATOM     24  C   UNL     1       6.119   1.654  10.994  0.00  0.00    +0.000 A 
ATOM     25  C   UNL     1       4.854   1.964  10.501  0.00  0.00    +0.000 A 
ATOM     26  C   UNL     1       4.107   2.984  11.086  0.00  0.00    +0.000 A 
ATOM     27  C   UNL     1       4.624   3.693  12.175  0.00  0.00    +0.000 A 
ENDBRANCH  20  22
ENDBRANCH  16  17
ENDBRANCH   1  16
TORSDOF 5
ENDMDL
MODEL 2
REMARK VINA RESULT:      -8.7      3.559      6.157
REMARK  Name = 
REMARK  6 active torsions:
REMARK  status: ('A' for Active; 'I' for Inactive)
REMARK    1  A    between atoms: C_1  and  C_2
REMARK    2  A    between atoms: C_7  and  N_8
REMARK    3  A    between atoms: C_12  and  S_13
REMARK    4  A    between atoms: S_13  and  C_16
REMARK    5  A    between atoms: C_16  and  C_17
REMARK    6  A    between atoms: C_20  and  C_21
REMARK                            x       y       z     vdW  Elec       q    Type
REMARK                         _______ _______ _______ _____ _____    ______ ____
ROOT
ATOM      1  S   UNL     1       5.279   5.203  17.851  0.00  0.00    +0.000 S 
ATOM      2  O   UNL     1       5.970   5.021  19.117  0.00  0.00    +0.000 OA
ATOM      3  O   UNL     1       4.681   4.088  17.152  0.00  0.00    +0.000 OA
ENDROOT
BRANCH   1   8
ATOM      4  N   UNL     1       2.722   6.099  18.804  0.00  0.00    +0.000 N 
ATOM      5  C   UNL     1       2.013   7.279  18.640  0.00  0.00    +0.000 A 
ATOM      6  C   UNL     1       2.798   8.143  17.930  0.00  0.00    +0.000 A 
ATOM      7  N   UNL     1       4.012   7.592  17.710  0.00  0.00    +0.000 NA
ATOM      8  C   UNL     1       3.960   6.352  18.181  0.00  0.00    +0.000 A 
BRANCH   4  15
ATOM      9  C   UNL     1       1.174   3.763  17.433  0.00  0.00    +0.000 C 
ATOM     10  C   UNL     1       1.532   3.869  18.893  0.00  0.00    +0.000 A 
ATOM     11  C   UNL     1       1.117   2.771  19.686  0.00  0.00    +0.000 A 
ATOM     12  C   UNL     1       1.379   2.707  21.049  0.00  0.00    +0.000 A 
ATOM     13  C   UNL     1       2.017   3.768  21.660  0.00  0.00    +0.000 A 
ATOM     14  C   UNL     1       2.409   4.875  20.902  0.00  0.00    +0.000 A 
ATOM     15  C   UNL     1       2.233   4.940  19.512  0.00  0.00    +0.000 A 
ENDBRANCH   4  15
ENDBRANCH   1   8
BRANCH   1  16
ATOM     16  C   UNL     1       6.447   6.045  16.830  0.00  0.00    +0.000 C 
BRANCH  16  17
ATOM     17  C   UNL     1       7.378   6.948  17.515  0.00  0.00    +0.000 A 
ATOM     18  N   UNL     1       8.100   6.542  18.570  0.00  0.00    +0.000 NA
ATOM     19  O   UNL     1       8.696   7.718  19.024  0.00  0.00    +0.000 OA
ATOM     20  C   UNL     1       8.253   8.724  18.212  0.00  0.00    +0.000 A 
ATOM     21  N   UNL     1       7.412   8.300  17.293  0.00  0.00    +0.000 NA
BRANCH  20  22
ATOM     22  C   UNL     1       8.759  10.064  18.477  0.00  0.00    +0.000 A 
ATOM     23  C   UNL     1       8.437  11.144  17.639  0.00  0.00    +0.000 A 
ATOM     24  C   UNL     1       8.901  12.431  17.920  0.00  0.00    +0.000 A 
ATOM     25  C   UNL     1       9.697  12.652  19.042  0.00  0.00    +0.000 A 
ATOM     26  C   UNL     1      10.036  11.590  19.877  0.00  0.00    +0.000 A 
ATOM     27  C   UNL     1       9.571  10.302  19.596  0.00  0.00    +0.000 A 
ENDBRANCH  20  22
ENDBRANCH  16  17
ENDBRANCH   1  16
TORSDOF 5
ENDMDL
MODEL 3
REMARK VINA RESULT:      -8.5      3.594      5.968
REMARK  Name = 
REMARK  6 active torsions:
REMARK  status: ('A' for Active; 'I' for Inactive)
REMARK    1  A    between atoms: C_1  and  C_2
REMARK    2  A    between atoms: C_7  and  N_8
REMARK    3  A    between atoms: C_12  and  S_13
REMARK    4  A    between atoms: S_13  and  C_16
REMARK    5  A    between atoms: C_16  and  C_17
REMARK    6  A    between atoms: C_20  and  C_21
REMARK                            x       y       z     vdW  Elec       q    Type
REMARK                         _______ _______ _______ _____ _____    ______ ____
ROOT
ATOM      1  S   UNL     1       5.774   4.471  17.940  0.00  0.00    +0.000 S 
ATOM      2  O   UNL     1       5.473   3.462  18.942  0.00  0.00    +0.000 OA
ATOM      3  O   UNL     1       5.818   4.146  16.533  0.00  0.00    +0.000 OA
ENDROOT
BRANCH   1   8
ATOM      4  N   UNL     1       3.246   5.598  18.708  0.00  0.00    +0.000 N 
ATOM      5  C   UNL     1       2.625   6.804  18.427  0.00  0.00    +0.000 A 
ATOM      6  C   UNL     1       3.493   7.560  17.690  0.00  0.00    +0.000 A 
ATOM      7  N   UNL     1       4.676   6.918  17.568  0.00  0.00    +0.000 NA
ATOM      8  C   UNL     1       4.523   5.723  18.125  0.00  0.00    +0.000 A 
BRANCH   4  15
ATOM      9  C   UNL     1       2.230   2.927  17.457  0.00  0.00    +0.000 C 
ATOM     10  C   UNL     1       2.193   3.308  18.914  0.00  0.00    +0.000 A 
ATOM     11  C   UNL     1       1.646   2.320  19.771  0.00  0.00    +0.000 A 
ATOM     12  C   UNL     1       1.550   2.509  21.144  0.00  0.00    +0.000 A 
ATOM     13  C   UNL     1       1.951   3.714  21.685  0.00  0.00    +0.000 A 
ATOM     14  C   UNL     1       2.467   4.713  20.855  0.00  0.00    +0.000 A 
ATOM     15  C   UNL     1       2.652   4.529  19.477  0.00  0.00    +0.000 A 
ENDBRANCH   4  15
ENDBRANCH   1   8
BRANCH   1  16
ATOM     16  C   UNL     1       7.295   5.186  18.479  0.00  0.00    +0.000 C 
BRANCH  16  17
ATOM     17  C   UNL     1       7.552   6.566  18.054  0.00  0.00    +0.000 A 
ATOM     18  N   UNL     1       7.590   6.904  16.756  0.00  0.00    +0.000 NA
ATOM     19  O   UNL     1       8.033   8.226  16.781  0.00  0.00    +0.000 OA
ATOM     20  C   UNL     1       8.244   8.548  18.092  0.00  0.00    +0.000 A 
ATOM     21  N   UNL     1       7.996   7.544  18.906  0.00  0.00    +0.000 NA
BRANCH  20  22
ATOM     22  C   UNL     1       8.695   9.902  18.380  0.00  0.00    +0.000 A 
ATOM     23  C   UNL     1       9.540  10.173  19.470  0.00  0.00    +0.000 A 
ATOM     24  C   UNL     1       9.993  11.470  19.717  0.00  0.00    +0.000 A 
ATOM     25  C   UNL     1       9.604  12.514  18.880  0.00  0.00    +0.000 A 
ATOM     26  C   UNL     1       8.759  12.265  17.802  0.00  0.00    +0.000 A 
ATOM     27  C   UNL     1       8.305  10.966  17.553  0.00  0.00    +0.000 A 
ENDBRANCH  20  22
ENDBRANCH  16  17
ENDBRANCH   1  16
TORSDOF 5
ENDMDL
MODEL 4
REMARK VINA RESULT:      -8.4      1.418      2.918
REMARK  Name = 
REMARK  6 active torsions:
REMARK  status: ('A' for Active; 'I' for Inactive)
REMARK    1  A    between atoms: C_1  and  C_2
REMARK    2  A    between atoms: C_7  and  N_8
REMARK    3  A    between atoms: C_12  and  S_13
REMARK    4  A    between atoms: S_13  and  C_16
REMARK    5  A    between atoms: C_16  and  C_17
REMARK    6  A    between atoms: C_20  and  C_21
REMARK                            x       y       z     vdW  Elec       q    Type
REMARK                         _______ _______ _______ _____ _____    ______ ____
ROOT
ATOM      1  S   UNL     1       6.053   5.333  18.431  0.00  0.00    +0.000 S 
ATOM      2  O   UNL     1       5.933   6.668  17.865  0.00  0.00    +0.000 OA
ATOM      3  O   UNL     1       6.266   5.131  19.846  0.00  0.00    +0.000 OA
ENDROOT
BRANCH   1   8
ATOM      4  N   UNL     1       3.214   4.969  18.194  0.00  0.00    +0.000 N 
ATOM      5  C   UNL     1       2.424   3.869  17.901  0.00  0.00    +0.000 A 
ATOM      6  C   UNL     1       3.254   2.821  17.618  0.00  0.00    +0.000 A 
ATOM      7  N   UNL     1       4.541   3.233  17.634  0.00  0.00    +0.000 NA
ATOM      8  C   UNL     1       4.533   4.500  18.030  0.00  0.00    +0.000 A 
BRANCH   4  15
ATOM      9  C   UNL     1       1.966   5.665  20.968  0.00  0.00    +0.000 C 
ATOM     10  C   UNL     1       2.142   6.602  19.801  0.00  0.00    +0.000 A 
ATOM     11  C   UNL     1       1.693   7.926  20.032  0.00  0.00    +0.000 A 
ATOM     12  C   UNL     1       1.794   8.916  19.062  0.00  0.00    +0.000 A 
ATOM     13  C   UNL     1       2.297   8.589  17.819  0.00  0.00    +0.000 A 
ATOM     14  C   UNL     1       2.718   7.282  17.560  0.00  0.00    +0.000 A 
ATOM     15  C   UNL     1       2.705   6.276  18.538  0.00  0.00    +0.000 A 
ENDBRANCH   4  15
ENDBRANCH   1   8
BRANCH   1  16
ATOM     16  C   UNL     1       7.324   4.564  17.478  0.00  0.00    +0.000 C 
BRANCH  16  17
ATOM     17  C   UNL     1       7.138   4.567  16.023  0.00  0.00    +0.000 A 
ATOM     18  N   UNL     1       7.446   5.641  15.279  0.00  0.00    +0.000 NA
ATOM     19  O   UNL     1       6.961   5.306  14.015  0.00  0.00    +0.000 OA
ATOM     20  C   UNL     1       6.384   4.072  14.128  0.00  0.00    +0.000 A 
ATOM     21  N   UNL     1       6.439   3.597  15.353  0.00  0.00    +0.000 NA
BRANCH  20  22
ATOM     22  C   UNL     1       5.816   3.490  12.919  0.00  0.00    +0.000 A 
ATOM     23  C   UNL     1       6.465   2.447  12.237  0.00  0.00    +0.000 A 
ATOM     24  C   UNL     1       5.896   1.876  11.097  0.00  0.00    +0.000 A 
ATOM     25  C   UNL     1       4.672   2.343  10.623  0.00  0.00    +0.000 A 
ATOM     26  C   UNL     1       4.020   3.384  11.280  0.00  0.00    +0.000 A 
ATOM     27  C   UNL     1       4.590   3.956  12.421  0.00  0.00    +0.000 A 
ENDBRANCH  20  22
ENDBRANCH  16  17
ENDBRANCH   1  16
TORSDOF 5
ENDMDL
MODEL 5
REMARK VINA RESULT:      -8.4      3.838      6.395
REMARK  Name = 
REMARK  6 active torsions:
REMARK  status: ('A' for Active; 'I' for Inactive)
REMARK    1  A    between atoms: C_1  and  C_2
REMARK    2  A    between atoms: C_7  and  N_8
REMARK    3  A    between atoms: C_12  and  S_13
REMARK    4  A    between atoms: S_13  and  C_16
REMARK    5  A    between atoms: C_16  and  C_17
REMARK    6  A    between atoms: C_20  and  C_21
REMARK                            x       y       z     vdW  Elec       q    Type
REMARK                         _______ _______ _______ _____ _____    ______ ____
ROOT
ATOM      1  S   UNL     1       6.081   5.033  18.722  0.00  0.00    +0.000 S 
ATOM      2  O   UNL     1       6.509   5.392  20.064  0.00  0.00    +0.000 OA
ATOM      3  O   UNL     1       5.785   3.664  18.367  0.00  0.00    +0.000 OA
ENDROOT
BRANCH   1   8
ATOM      4  N   UNL     1       3.263   5.586  18.713  0.00  0.00    +0.000 N 
ATOM      5  C   UNL     1       2.496   6.576  18.120  0.00  0.00    +0.000 A 
ATOM      6  C   UNL     1       3.346   7.447  17.499  0.00  0.00    +0.000 A 
ATOM      7  N   UNL     1       4.629   7.099  17.748  0.00  0.00    +0.000 NA
ATOM      8  C   UNL     1       4.591   5.959  18.426  0.00  0.00    +0.000 A 
BRANCH   4  15
ATOM      9  C   UNL     1       2.436   2.854  17.452  0.00  0.00    +0.000 C 
ATOM     10  C   UNL     1       2.357   3.233  18.908  0.00  0.00    +0.000 A 
ATOM     11  C   UNL     1       1.863   2.212  19.759  0.00  0.00    +0.000 A 
ATOM     12  C   UNL     1       1.738   2.395  21.131  0.00  0.00    +0.000 A 
ATOM     13  C   UNL     1       2.054   3.623  21.675  0.00  0.00    +0.000 A 
ATOM     14  C   UNL     1       2.515   4.653  20.851  0.00  0.00    +0.000 A 
ATOM     15  C   UNL     1       2.729   4.481  19.475  0.00  0.00    +0.000 A 
ENDBRANCH   4  15
ENDBRANCH   1   8
BRANCH   1  16
ATOM     16  C   UNL     1       7.323   5.712  17.668  0.00  0.00    +0.000 C 
BRANCH  16  17
ATOM     17  C   UNL     1       7.556   7.156  17.783  0.00  0.00    +0.000 A 
ATOM     18  N   UNL     1       7.053   8.020  16.888  0.00  0.00    +0.000 NA
ATOM     19  O   UNL     1       7.644   9.232  17.245  0.00  0.00    +0.000 OA
ATOM     20  C   UNL     1       8.466   8.974  18.306  0.00  0.00    +0.000 A 
ATOM     21  N   UNL     1       8.470   7.703  18.645  0.00  0.00    +0.000 NA
BRANCH  20  22
ATOM     22  C   UNL     1       9.187  10.102  18.878  0.00  0.00    +0.000 A 
ATOM     23  C   UNL     1       9.147  10.370  20.256  0.00  0.00    +0.000 A 
ATOM     24  C   UNL     1       9.869  11.436  20.799  0.00  0.00    +0.000 A 
ATOM     25  C   UNL     1      10.636  12.249  19.968  0.00  0.00    +0.000 A 
ATOM     26  C   UNL     1      10.679  12.005  18.598  0.00  0.00    +0.000 A 
ATOM     27  C   UNL     1       9.956  10.938  18.054  0.00  0.00    +0.000 A 
ENDBRANCH  20  22
ENDBRANCH  16  17
ENDBRANCH   1  16
TORSDOF 5
ENDMDL
MODEL 6
REMARK VINA RESULT:      -8.4      0.677      1.687
REMARK  Name = 
REMARK  6 active torsions:
REMARK  status: ('A' for Active; 'I' for Inactive)
REMARK    1  A    between atoms: C_1  and  C_2
REMARK    2  A    between atoms: C_7  and  N_8
REMARK    3  A    between atoms: C_12  and  S_13
REMARK    4  A    between atoms: S_13  and  C_16
REMARK    5  A    between atoms: C_16  and  C_17
REMARK    6  A    between atoms: C_20  and  C_21
REMARK                            x       y       z     vdW  Elec       q    Type
REMARK                         _______ _______ _______ _____ _____    ______ ____
ROOT
ATOM      1  S   UNL     1       5.737   4.587  18.394  0.00  0.00    +0.000 S 
ATOM      2  O   UNL     1       6.139   4.774  19.778  0.00  0.00    +0.000 OA
ATOM      3  O   UNL     1       5.149   3.346  17.941  0.00  0.00    +0.000 OA
ENDROOT
BRANCH   1   8
ATOM      4  N   UNL     1       3.133   5.775  18.153  0.00  0.00    +0.000 N 
ATOM      5  C   UNL     1       2.687   6.972  17.615  0.00  0.00    +0.000 A 
ATOM      6  C   UNL     1       3.782   7.682  17.210  0.00  0.00    +0.000 A 
ATOM      7  N   UNL     1       4.912   7.023  17.548  0.00  0.00    +0.000 NA
ATOM      8  C   UNL     1       4.537   5.858  18.063  0.00  0.00    +0.000 A 
BRANCH   4  15
ATOM      9  C   UNL     1       2.056   5.806  21.081  0.00  0.00    +0.000 C 
ATOM     10  C   UNL     1       1.775   4.762  20.031  0.00  0.00    +0.000 A 
ATOM     11  C   UNL     1       0.922   3.713  20.453  0.00  0.00    +0.000 A 
ATOM     12  C   UNL     1       0.554   2.677  19.602  0.00  0.00    +0.000 A 
ATOM     13  C   UNL     1       1.077   2.639  18.326  0.00  0.00    +0.000 A 
ATOM     14  C   UNL     1       1.945   3.648  17.898  0.00  0.00    +0.000 A 
ATOM     15  C   UNL     1       2.275   4.751  18.701  0.00  0.00    +0.000 A 
ENDBRANCH   4  15
ENDBRANCH   1   8
BRANCH   1  16
ATOM     16  C   UNL     1       7.179   4.989  17.459  0.00  0.00    +0.000 C 
BRANCH  16  17
ATOM     17  C   UNL     1       7.087   4.801  16.007  0.00  0.00    +0.000 A 
ATOM     18  N   UNL     1       7.631   5.680  15.151  0.00  0.00    +0.000 NA
ATOM     19  O   UNL     1       7.172   5.245  13.908  0.00  0.00    +0.000 OA
ATOM     20  C   UNL     1       6.372   4.161  14.140  0.00  0.00    +0.000 A 
ATOM     21  N   UNL     1       6.263   3.876  15.420  0.00  0.00    +0.000 NA
BRANCH  20  22
ATOM     22  C   UNL     1       5.783   3.509  12.978  0.00  0.00    +0.000 A 
ATOM     23  C   UNL     1       4.524   3.894  12.487  0.00  0.00    +0.000 A 
ATOM     24  C   UNL     1       3.983   3.284  11.353  0.00  0.00    +0.000 A 
ATOM     25  C   UNL     1       4.693   2.280  10.699  0.00  0.00    +0.000 A 
ATOM     26  C   UNL     1       5.937   1.878  11.178  0.00  0.00    +0.000 A 
ATOM     27  C   UNL     1       6.479   2.489  12.314  0.00  0.00    +0.000 A 
ENDBRANCH  20  22
ENDBRANCH  16  17
ENDBRANCH   1  16
TORSDOF 5
ENDMDL
MODEL 7
REMARK VINA RESULT:      -8.2      1.423      2.634
REMARK  Name = 
REMARK  6 active torsions:
REMARK  status: ('A' for Active; 'I' for Inactive)
REMARK    1  A    between atoms: C_1  and  C_2
REMARK    2  A    between atoms: C_7  and  N_8
REMARK    3  A    between atoms: C_12  and  S_13
REMARK    4  A    between atoms: S_13  and  C_16
REMARK    5  A    between atoms: C_16  and  C_17
REMARK    6  A    between atoms: C_20  and  C_21
REMARK                            x       y       z     vdW  Elec       q    Type
REMARK                         _______ _______ _______ _____ _____    ______ ____
ROOT
ATOM      1  S   UNL     1       5.448   4.971  18.636  0.00  0.00    +0.000 S 
ATOM      2  O   UNL     1       5.235   5.813  19.803  0.00  0.00    +0.000 OA
ATOM      3  O   UNL     1       6.323   3.822  18.687  0.00  0.00    +0.000 OA
ENDROOT
BRANCH   1   8
ATOM      4  N   UNL     1       2.580   4.873  18.542  0.00  0.00    +0.000 N 
ATOM      5  C   UNL     1       1.682   3.923  18.082  0.00  0.00    +0.000 A 
ATOM      6  C   UNL     1       2.400   2.904  17.523  0.00  0.00    +0.000 A 
ATOM      7  N   UNL     1       3.717   3.209  17.529  0.00  0.00    +0.000 NA
ATOM      8  C   UNL     1       3.841   4.357  18.183  0.00  0.00    +0.000 A 
BRANCH   4  15
ATOM      9  C   UNL     1       2.897   7.684  17.225  0.00  0.00    +0.000 C 
ATOM     10  C   UNL     1       2.343   7.390  18.595  0.00  0.00    +0.000 A 
ATOM     11  C   UNL     1       1.923   8.533  19.321  0.00  0.00    +0.000 A 
ATOM     12  C   UNL     1       1.378   8.435  20.595  0.00  0.00    +0.000 A 
ATOM     13  C   UNL     1       1.290   7.195  21.194  0.00  0.00    +0.000 A 
ATOM     14  C   UNL     1       1.725   6.057  20.508  0.00  0.00    +0.000 A 
ATOM     15  C   UNL     1       2.207   6.108  19.191  0.00  0.00    +0.000 A 
ENDBRANCH   4  15
ENDBRANCH   1   8
BRANCH   1  16
ATOM     16  C   UNL     1       5.943   6.095  17.368  0.00  0.00    +0.000 C 
BRANCH  16  17
ATOM     17  C   UNL     1       6.423   5.495  16.118  0.00  0.00    +0.000 A 
ATOM     18  N   UNL     1       7.583   5.873  15.560  0.00  0.00    +0.000 NA
ATOM     19  O   UNL     1       7.576   5.216  14.330  0.00  0.00    +0.000 OA
ATOM     20  C   UNL     1       6.399   4.526  14.256  0.00  0.00    +0.000 A 
ATOM     21  N   UNL     1       5.644   4.699  15.319  0.00  0.00    +0.000 NA
BRANCH  20  22
ATOM     22  C   UNL     1       6.167   3.734  13.056  0.00  0.00    +0.000 A 
ATOM     23  C   UNL     1       7.229   3.126  12.367  0.00  0.00    +0.000 A 
ATOM     24  C   UNL     1       6.992   2.342  11.236  0.00  0.00    +0.000 A 
ATOM     25  C   UNL     1       5.689   2.158  10.779  0.00  0.00    +0.000 A 
ATOM     26  C   UNL     1       4.624   2.762  11.444  0.00  0.00    +0.000 A 
ATOM     27  C   UNL     1       4.862   3.547  12.576  0.00  0.00    +0.000 A 
ENDBRANCH  20  22
ENDBRANCH  16  17
ENDBRANCH   1  16
TORSDOF 5
ENDMDL
MODEL 8
REMARK VINA RESULT:      -8.1      1.993      3.598
REMARK  Name = 
REMARK  6 active torsions:
REMARK  status: ('A' for Active; 'I' for Inactive)
REMARK    1  A    between atoms: C_1  and  C_2
REMARK    2  A    between atoms: C_7  and  N_8
REMARK    3  A    between atoms: C_12  and  S_13
REMARK    4  A    between atoms: S_13  and  C_16
REMARK    5  A    between atoms: C_16  and  C_17
REMARK    6  A    between atoms: C_20  and  C_21
REMARK                            x       y       z     vdW  Elec       q    Type
REMARK                         _______ _______ _______ _____ _____    ______ ____
ROOT
ATOM      1  S   UNL     1       4.330   2.539  19.494  0.00  0.00    +0.000 S 
ATOM      2  O   UNL     1       5.234   1.953  20.470  0.00  0.00    +0.000 OA
ATOM      3  O   UNL     1       3.967   1.834  18.285  0.00  0.00    +0.000 OA
ENDROOT
BRANCH   1   8
ATOM      4  N   UNL     1       2.040   4.028  20.377  0.00  0.00    +0.000 N 
ATOM      5  C   UNL     1       1.078   3.796  21.348  0.00  0.00    +0.000 A 
ATOM      6  C   UNL     1       1.315   2.562  21.884  0.00  0.00    +0.000 A 
ATOM      7  N   UNL     1       2.337   1.962  21.232  0.00  0.00    +0.000 NA
ATOM      8  C   UNL     1       2.811   2.850  20.367  0.00  0.00    +0.000 A 
BRANCH   4  15
ATOM      9  C   UNL     1       1.791   4.048  17.267  0.00  0.00    +0.000 C 
ATOM     10  C   UNL     1       2.003   5.243  18.159  0.00  0.00    +0.000 A 
ATOM     11  C   UNL     1       2.080   6.484  17.478  0.00  0.00    +0.000 A 
ATOM     12  C   UNL     1       2.262   7.684  18.154  0.00  0.00    +0.000 A 
ATOM     13  C   UNL     1       2.425   7.664  19.524  0.00  0.00    +0.000 A 
ATOM     14  C   UNL     1       2.383   6.448  20.213  0.00  0.00    +0.000 A 
ATOM     15  C   UNL     1       2.122   5.226  19.575  0.00  0.00    +0.000 A 
ENDBRANCH   4  15
ENDBRANCH   1   8
BRANCH   1  16
ATOM     16  C   UNL     1       5.040   4.113  19.126  0.00  0.00    +0.000 C 
BRANCH  16  17
ATOM     17  C   UNL     1       5.939   4.166  17.968  0.00  0.00    +0.000 A 
ATOM     18  N   UNL     1       7.235   4.489  18.102  0.00  0.00    +0.000 NA
ATOM     19  O   UNL     1       7.675   4.603  16.784  0.00  0.00    +0.000 OA
ATOM     20  C   UNL     1       6.594   4.364  15.984  0.00  0.00    +0.000 A 
ATOM     21  N   UNL     1       5.497   4.127  16.672  0.00  0.00    +0.000 NA
BRANCH  20  22
ATOM     22  C   UNL     1       6.810   4.406  14.544  0.00  0.00    +0.000 A 
ATOM     23  C   UNL     1       6.128   3.534  13.678  0.00  0.00    +0.000 A 
ATOM     24  C   UNL     1       6.319   3.605  12.297  0.00  0.00    +0.000 A 
ATOM     25  C   UNL     1       7.196   4.547  11.764  0.00  0.00    +0.000 A 
ATOM     26  C   UNL     1       7.888   5.412  12.608  0.00  0.00    +0.000 A 
ATOM     27  C   UNL     1       7.697   5.342  13.991  0.00  0.00    +0.000 A 
ENDBRANCH  20  22
ENDBRANCH  16  17
ENDBRANCH   1  16
TORSDOF 5
ENDMDL
MODEL 9
REMARK VINA RESULT:      -8.1      3.777      8.213
REMARK  Name = 
REMARK  6 active torsions:
REMARK  status: ('A' for Active; 'I' for Inactive)
REMARK    1  A    between atoms: C_1  and  C_2
REMARK    2  A    between atoms: C_7  and  N_8
REMARK    3  A    between atoms: C_12  and  S_13
REMARK    4  A    between atoms: S_13  and  C_16
REMARK    5  A    between atoms: C_16  and  C_17
REMARK    6  A    between atoms: C_20  and  C_21
REMARK                            x       y       z     vdW  Elec       q    Type
REMARK                         _______ _______ _______ _____ _____    ______ ____
ROOT
ATOM      1  S   UNL     1       2.138   5.203  19.282  0.00  0.00    +0.000 S 
ATOM      2  O   UNL     1       1.679   4.896  17.937  0.00  0.00    +0.000 OA
ATOM      3  O   UNL     1       1.213   5.313  20.386  0.00  0.00    +0.000 OA
ENDROOT
BRANCH   1   8
ATOM      4  N   UNL     1       4.437   3.502  19.019  0.00  0.00    +0.000 N 
ATOM      5  C   UNL     1       4.840   2.350  19.676  0.00  0.00    +0.000 A 
ATOM      6  C   UNL     1       3.934   2.094  20.666  0.00  0.00    +0.000 A 
ATOM      7  N   UNL     1       3.019   3.088  20.724  0.00  0.00    +0.000 NA
ATOM      8  C   UNL     1       3.278   3.906  19.711  0.00  0.00    +0.000 A 
BRANCH   4  15
ATOM      9  C   UNL     1       6.840   5.464  19.359  0.00  0.00    +0.000 C 
ATOM     10  C   UNL     1       6.241   4.993  18.059  0.00  0.00    +0.000 A 
ATOM     11  C   UNL     1       6.869   5.507  16.897  0.00  0.00    +0.000 A 
ATOM     12  C   UNL     1       6.446   5.162  15.619  0.00  0.00    +0.000 A 
ATOM     13  C   UNL     1       5.349   4.337  15.475  0.00  0.00    +0.000 A 
ATOM     14  C   UNL     1       4.696   3.843  16.608  0.00  0.00    +0.000 A 
ATOM     15  C   UNL     1       5.142   4.104  17.912  0.00  0.00    +0.000 A 
ENDBRANCH   4  15
ENDBRANCH   1   8
BRANCH   1  16
ATOM     16  C   UNL     1       3.089   6.678  19.096  0.00  0.00    +0.000 C 
BRANCH  16  17
ATOM     17  C   UNL     1       2.370   7.859  18.605  0.00  0.00    +0.000 A 
ATOM     18  N   UNL     1       2.648   8.402  17.410  0.00  0.00    +0.000 NA
ATOM     19  O   UNL     1       1.897   9.576  17.408  0.00  0.00    +0.000 OA
ATOM     20  C   UNL     1       1.258   9.639  18.615  0.00  0.00    +0.000 A 
ATOM     21  N   UNL     1       1.551   8.621  19.396  0.00  0.00    +0.000 NA
BRANCH  20  22
ATOM     22  C   UNL     1       0.384  10.781  18.846  0.00  0.00    +0.000 A 
ATOM     23  C   UNL     1      -0.987  10.610  19.102  0.00  0.00    +0.000 A 
ATOM     24  C   UNL     1      -1.809  11.710  19.354  0.00  0.00    +0.000 A 
ATOM     25  C   UNL     1      -1.271  12.995  19.350  0.00  0.00    +0.000 A 
ATOM     26  C   UNL     1       0.083  13.184  19.087  0.00  0.00    +0.000 A 
ATOM     27  C   UNL     1       0.907  12.083  18.835  0.00  0.00    +0.000 A 
ENDBRANCH  20  22
ENDBRANCH  16  17
ENDBRANCH   1  16
TORSDOF 5
ENDMDL
