MODEL 1
REMARK VINA RESULT:      -9.0      0.000      0.000
REMARK  Name = 
REMARK  6 active torsions:
REMARK  status: ('A' for Active; 'I' for Inactive)
REMARK    1  A    between atoms: C_1  and  C_2
REMARK    2  A    between atoms: C_2  and  C_3
REMARK    3  A    between atoms: C_3  and  N_4
REMARK    4  A    between atoms: C_5  and  C_7
REMARK    5  A    between atoms: C_10  and  C_12
REMARK    6  A    between atoms: C_15  and  C_16
REMARK                            x       y       z     vdW  Elec       q    Type
REMARK                         _______ _______ _______ _____ _____    ______ ____
ROOT
ATOM      1  C   UNL     1      -0.370  12.371  18.597  0.00  0.00    +0.000 C 
ATOM      2  C   UNL     1       0.808  11.681  19.256  0.00  0.00    +0.000 C 
ATOM      3  N   UNL     1       0.356  10.868  20.399  0.00  0.00    +0.000 N 
ATOM      4  C   UNL     1       0.608   9.476  20.530  0.00  0.00    +0.000 C 
ATOM      5  O   UNL     1       0.126   8.809  21.449  0.00  0.00    +0.000 OA
ATOM      6  C   UNL     1      -0.544  11.607  21.257  0.00  0.00    +0.000 A 
ATOM      7  C   UNL     1      -0.871  11.220  22.560  0.00  0.00    +0.000 A 
ATOM      8  C   UNL     1      -1.717  12.008  23.355  0.00  0.00    +0.000 A 
ATOM      9  C   UNL     1      -2.256  13.193  22.860  0.00  0.00    +0.000 A 
ATOM     10  C   UNL     1      -1.957  13.594  21.567  0.00  0.00    +0.000 A 
ATOM     11  C   UNL     1      -1.121  12.808  20.771  0.00  0.00    +0.000 A 
ATOM     12  O   UNL     1      -0.957  13.305  19.497  0.00  0.00    +0.000 OA
ENDROOT
BRANCH   4  13
ATOM     13  C   UNL     1       1.370   8.788  19.485  0.00  0.00    +0.000 A 
ATOM     14  C   UNL     1       1.810   9.266  18.260  0.00  0.00    +0.000 A 
ATOM     15  C   UNL     1       2.584   8.241  17.671  0.00  0.00    +0.000 A 
ATOM     16  C   UNL     1       2.556   7.169  18.539  0.00  0.00    +0.000 A 
ATOM     17  O   UNL     1       1.742   7.469  19.595  0.00  0.00    +0.000 OA
BRANCH  16  18
ATOM     18  C   UNL     1       3.192   5.853  18.527  0.00  0.00    +0.000 A 
ATOM     19  C   UNL     1       4.459   5.634  19.089  0.00  0.00    +0.000 A 
ATOM     20  C   UNL     1       5.001   4.341  19.151  0.00  0.00    +0.000 A 
ATOM     21  C   UNL     1       4.291   3.252  18.644  0.00  0.00    +0.000 A 
ATOM     22  C   UNL     1       3.049   3.458  18.054  0.00  0.00    +0.000 A 
ATOM     23  C   UNL     1       2.517   4.745  17.993  0.00  0.00    +0.000 A 
ATOM     24  F   UNL     1       1.317   4.892  17.408  0.00  0.00    +0.000 F 
ENDBRANCH  16  18
ENDBRANCH   4  13
BRANCH   1  26
ATOM     25  N   UNL     1      -2.132  11.833  16.968  0.00  0.00    +0.000 N 
ATOM     26  C   UNL     1      -1.362  11.345  18.012  0.00  0.00    +0.000 C 
ATOM     27  O   UNL     1      -1.424  10.184  18.389  0.00  0.00    +0.000 OA
ATOM     28  H   UNL     1      -2.034  12.811  16.721  0.00  0.00    +0.000 HD
BRANCH  25  29
ATOM     29  C   UNL     1      -3.212  11.059  16.398  0.00  0.00    +0.000 C 
BRANCH  29  31
ATOM     30  C   UNL     1      -3.604  10.037  14.092  0.00  0.00    +0.000 C 
ATOM     31  C   UNL     1      -2.748  10.042  15.350  0.00  0.00    +0.000 C 
ENDBRANCH  29  31
ENDBRANCH  25  29
ENDBRANCH   1  26
TORSDOF 5
ENDMDL
MODEL 2
REMARK VINA RESULT:      -8.9      0.945      1.133
REMARK  Name = 
REMARK  6 active torsions:
REMARK  status: ('A' for Active; 'I' for Inactive)
REMARK    1  A    between atoms: C_1  and  C_2
REMARK    2  A    between atoms: C_2  and  C_3
REMARK    3  A    between atoms: C_3  and  N_4
REMARK    4  A    between atoms: C_5  and  C_7
REMARK    5  A    between atoms: C_10  and  C_12
REMARK    6  A    between atoms: C_15  and  C_16
REMARK                            x       y       z     vdW  Elec       q    Type
REMARK                         _______ _______ _______ _____ _____    ______ ____
ROOT
ATOM      1  C   UNL     1      -0.490  12.140  18.578  0.00  0.00    +0.000 C 
ATOM      2  C   UNL     1       0.729  11.527  19.239  0.00  0.00    +0.000 C 
ATOM      3  N   UNL     1       0.331  10.708  20.398  0.00  0.00    +0.000 N 
ATOM      4  C   UNL     1       0.660   9.334  20.548  0.00  0.00    +0.000 C 
ATOM      5  O   UNL     1       0.222   8.657  21.482  0.00  0.00    +0.000 OA
ATOM      6  C   UNL     1      -0.603  11.410  21.251  0.00  0.00    +0.000 A 
ATOM      7  C   UNL     1      -0.898  11.027  22.562  0.00  0.00    +0.000 A 
ATOM      8  C   UNL     1      -1.781  11.780  23.352  0.00  0.00    +0.000 A 
ATOM      9  C   UNL     1      -2.388  12.926  22.843  0.00  0.00    +0.000 A 
ATOM     10  C   UNL     1      -2.121  13.321  21.541  0.00  0.00    +0.000 A 
ATOM     11  C   UNL     1      -1.249  12.570  20.751  0.00  0.00    +0.000 A 
ATOM     12  O   UNL     1      -1.121  13.054  19.468  0.00  0.00    +0.000 OA
ENDROOT
BRANCH   4  13
ATOM     13  C   UNL     1       1.452   8.673  19.508  0.00  0.00    +0.000 A 
ATOM     14  C   UNL     1       2.009   9.206  18.356  0.00  0.00    +0.000 A 
ATOM     15  C   UNL     1       2.758   8.175  17.745  0.00  0.00    +0.000 A 
ATOM     16  C   UNL     1       2.599   7.049  18.524  0.00  0.00    +0.000 A 
ATOM     17  O   UNL     1       1.731   7.327  19.543  0.00  0.00    +0.000 OA
BRANCH  16  18
ATOM     18  C   UNL     1       3.150   5.697  18.456  0.00  0.00    +0.000 A 
ATOM     19  C   UNL     1       4.417   5.383  18.973  0.00  0.00    +0.000 A 
ATOM     20  C   UNL     1       4.878   4.057  18.982  0.00  0.00    +0.000 A 
ATOM     21  C   UNL     1       4.087   3.030  18.465  0.00  0.00    +0.000 A 
ATOM     22  C   UNL     1       2.844   3.332  17.918  0.00  0.00    +0.000 A 
ATOM     23  C   UNL     1       2.393   4.650  17.910  0.00  0.00    +0.000 A 
ATOM     24  F   UNL     1       1.189   4.889  17.366  0.00  0.00    +0.000 F 
ENDBRANCH  16  18
ENDBRANCH   4  13
BRANCH   1  26
ATOM     25  N   UNL     1      -2.773  11.383  18.063  0.00  0.00    +0.000 N 
ATOM     26  C   UNL     1      -1.428  11.052  18.017  0.00  0.00    +0.000 C 
ATOM     27  O   UNL     1      -1.023  10.012  17.517  0.00  0.00    +0.000 OA
ATOM     28  H   UNL     1      -3.032  12.258  18.505  0.00  0.00    +0.000 HD
BRANCH  25  29
ATOM     29  C   UNL     1      -3.800  10.428  17.715  0.00  0.00    +0.000 C 
BRANCH  29  31
ATOM     30  C   UNL     1      -5.595  12.160  17.175  0.00  0.00    +0.000 C 
ATOM     31  C   UNL     1      -5.221  10.930  17.989  0.00  0.00    +0.000 C 
ENDBRANCH  29  31
ENDBRANCH  25  29
ENDBRANCH   1  26
TORSDOF 5
ENDMDL
MODEL 3
REMARK VINA RESULT:      -8.8      1.162      1.402
REMARK  Name = 
REMARK  6 active torsions:
REMARK  status: ('A' for Active; 'I' for Inactive)
REMARK    1  A    between atoms: C_1  and  C_2
REMARK    2  A    between atoms: C_2  and  C_3
REMARK    3  A    between atoms: C_3  and  N_4
REMARK    4  A    between atoms: C_5  and  C_7
REMARK    5  A    between atoms: C_10  and  C_12
REMARK    6  A    between atoms: C_15  and  C_16
REMARK                            x       y       z     vdW  Elec       q    Type
REMARK                         _______ _______ _______ _____ _____    ______ ____
ROOT
ATOM      1  C   UNL     1      -1.021  12.595  18.690  0.00  0.00    +0.000 C 
ATOM      2  C   UNL     1       0.272  12.024  19.240  0.00  0.00    +0.000 C 
ATOM      3  N   UNL     1      -0.003  11.147  20.392  0.00  0.00    +0.000 N 
ATOM      4  C   UNL     1       0.403   9.787  20.468  0.00  0.00    +0.000 C 
ATOM      5  O   UNL     1       0.067   9.056  21.404  0.00  0.00    +0.000 OA
ATOM      6  C   UNL     1      -0.906  11.770  21.334  0.00  0.00    +0.000 A 
ATOM      7  C   UNL     1      -1.089  11.328  22.648  0.00  0.00    +0.000 A 
ATOM      8  C   UNL     1      -1.948  12.007  23.524  0.00  0.00    +0.000 A 
ATOM      9  C   UNL     1      -2.646  13.136  23.102  0.00  0.00    +0.000 A 
ATOM     10  C   UNL     1      -2.492  13.589  21.800  0.00  0.00    +0.000 A 
ATOM     11  C   UNL     1      -1.643  12.911  20.924  0.00  0.00    +0.000 A 
ATOM     12  O   UNL     1      -1.631  13.445  19.655  0.00  0.00    +0.000 OA
ENDROOT
BRANCH   4  13
ATOM     13  C   UNL     1       1.151   9.203  19.352  0.00  0.00    +0.000 A 
ATOM     14  C   UNL     1       1.674   9.821  18.227  0.00  0.00    +0.000 A 
ATOM     15  C   UNL     1       2.389   8.835  17.509  0.00  0.00    +0.000 A 
ATOM     16  C   UNL     1       2.244   7.652  18.202  0.00  0.00    +0.000 A 
ATOM     17  O   UNL     1       1.415   7.856  19.270  0.00  0.00    +0.000 OA
BRANCH  16  18
ATOM     18  C   UNL     1       2.776   6.305  18.008  0.00  0.00    +0.000 A 
ATOM     19  C   UNL     1       1.968   5.162  18.113  0.00  0.00    +0.000 A 
ATOM     20  C   UNL     1       2.485   3.890  17.824  0.00  0.00    +0.000 A 
ATOM     21  C   UNL     1       3.817   3.740  17.437  0.00  0.00    +0.000 A 
ATOM     22  C   UNL     1       4.639   4.859  17.363  0.00  0.00    +0.000 A 
ATOM     23  C   UNL     1       4.121   6.120  17.653  0.00  0.00    +0.000 A 
ATOM     24  F   UNL     1       4.957   7.168  17.571  0.00  0.00    +0.000 F 
ENDBRANCH  16  18
ENDBRANCH   4  13
BRANCH   1  26
ATOM     25  N   UNL     1      -1.497  10.894  16.979  0.00  0.00    +0.000 N 
ATOM     26  C   UNL     1      -1.941  11.479  18.154  0.00  0.00    +0.000 C 
ATOM     27  O   UNL     1      -2.942  11.097  18.743  0.00  0.00    +0.000 OA
ATOM     28  H   UNL     1      -0.665  11.274  16.542  0.00  0.00    +0.000 HD
BRANCH  25  29
ATOM     29  C   UNL     1      -2.305   9.935  16.259  0.00  0.00    +0.000 C 
BRANCH  29  31
ATOM     30  C   UNL     1      -3.011   9.883  13.807  0.00  0.00    +0.000 C 
ATOM     31  C   UNL     1      -3.166  10.563  15.160  0.00  0.00    +0.000 C 
ENDBRANCH  29  31
ENDBRANCH  25  29
ENDBRANCH   1  26
TORSDOF 5
ENDMDL
MODEL 4
REMARK VINA RESULT:      -8.7      0.977      1.084
REMARK  Name = 
REMARK  6 active torsions:
REMARK  status: ('A' for Active; 'I' for Inactive)
REMARK    1  A    between atoms: C_1  and  C_2
REMARK    2  A    between atoms: C_2  and  C_3
REMARK    3  A    between atoms: C_3  and  N_4
REMARK    4  A    between atoms: C_5  and  C_7
REMARK    5  A    between atoms: C_10  and  C_12
REMARK    6  A    between atoms: C_15  and  C_16
REMARK                            x       y       z     vdW  Elec       q    Type
REMARK                         _______ _______ _______ _____ _____    ______ ____
ROOT
ATOM      1  C   UNL     1      -0.539  12.528  18.668  0.00  0.00    +0.000 C 
ATOM      2  C   UNL     1       0.641  11.862  19.348  0.00  0.00    +0.000 C 
ATOM      3  N   UNL     1       0.180  10.996  20.449  0.00  0.00    +0.000 N 
ATOM      4  C   UNL     1       0.480   9.611  20.547  0.00  0.00    +0.000 C 
ATOM      5  O   UNL     1      -0.007   8.898  21.427  0.00  0.00    +0.000 OA
ATOM      6  C   UNL     1      -0.777  11.674  21.295  0.00  0.00    +0.000 A 
ATOM      7  C   UNL     1      -1.135  11.234  22.573  0.00  0.00    +0.000 A 
ATOM      8  C   UNL     1      -2.038  11.965  23.360  0.00  0.00    +0.000 A 
ATOM      9  C   UNL     1      -2.604  13.144  22.882  0.00  0.00    +0.000 A 
ATOM     10  C   UNL     1      -2.275  13.596  21.613  0.00  0.00    +0.000 A 
ATOM     11  C   UNL     1      -1.382  12.867  20.825  0.00  0.00    +0.000 A 
ATOM     12  O   UNL     1      -1.192  13.410  19.573  0.00  0.00    +0.000 OA
ENDROOT
BRANCH   4  13
ATOM     13  C   UNL     1       1.305   8.986  19.510  0.00  0.00    +0.000 A 
ATOM     14  C   UNL     1       1.714   9.494  18.287  0.00  0.00    +0.000 A 
ATOM     15  C   UNL     1       2.575   8.535  17.708  0.00  0.00    +0.000 A 
ATOM     16  C   UNL     1       2.628   7.467  18.579  0.00  0.00    +0.000 A 
ATOM     17  O   UNL     1       1.784   7.701  19.628  0.00  0.00    +0.000 OA
BRANCH  16  18
ATOM     18  C   UNL     1       3.370   6.208  18.577  0.00  0.00    +0.000 A 
ATOM     19  C   UNL     1       3.223   5.255  19.598  0.00  0.00    +0.000 A 
ATOM     20  C   UNL     1       3.874   4.014  19.518  0.00  0.00    +0.000 A 
ATOM     21  C   UNL     1       4.688   3.712  18.426  0.00  0.00    +0.000 A 
ATOM     22  C   UNL     1       4.870   4.659  17.425  0.00  0.00    +0.000 A 
ATOM     23  C   UNL     1       4.224   5.891  17.510  0.00  0.00    +0.000 A 
ATOM     24  F   UNL     1       4.437   6.773  16.520  0.00  0.00    +0.000 F 
ENDBRANCH  16  18
ENDBRANCH   4  13
BRANCH   1  26
ATOM     25  N   UNL     1      -2.739  11.959  17.728  0.00  0.00    +0.000 N 
ATOM     26  C   UNL     1      -1.469  11.484  18.016  0.00  0.00    +0.000 C 
ATOM     27  O   UNL     1      -1.105  10.355  17.720  0.00  0.00    +0.000 OA
ATOM     28  H   UNL     1      -2.971  12.902  18.016  0.00  0.00    +0.000 HD
BRANCH  25  29
ATOM     29  C   UNL     1      -3.784  11.082  17.250  0.00  0.00    +0.000 C 
BRANCH  29  31
ATOM     30  C   UNL     1      -3.170   9.988  15.027  0.00  0.00    +0.000 C 
ATOM     31  C   UNL     1      -3.946  11.094  15.727  0.00  0.00    +0.000 C 
ENDBRANCH  29  31
ENDBRANCH  25  29
ENDBRANCH   1  26
TORSDOF 5
ENDMDL
MODEL 5
REMARK VINA RESULT:      -8.7      3.609      8.447
REMARK  Name = 
REMARK  6 active torsions:
REMARK  status: ('A' for Active; 'I' for Inactive)
REMARK    1  A    between atoms: C_1  and  C_2
REMARK    2  A    between atoms: C_2  and  C_3
REMARK    3  A    between atoms: C_3  and  N_4
REMARK    4  A    between atoms: C_5  and  C_7
REMARK    5  A    between atoms: C_10  and  C_12
REMARK    6  A    between atoms: C_15  and  C_16
REMARK                            x       y       z     vdW  Elec       q    Type
REMARK                         _______ _______ _______ _____ _____    ______ ____
ROOT
ATOM      1  C   UNL     1      -0.210  11.849  18.923  0.00  0.00    +0.000 C 
ATOM      2  C   UNL     1      -1.220  11.345  19.934  0.00  0.00    +0.000 C 
ATOM      3  N   UNL     1      -0.544  10.592  21.006  0.00  0.00    +0.000 N 
ATOM      4  C   UNL     1      -0.651  10.910  22.387  0.00  0.00    +0.000 C 
ATOM      5  O   UNL     1       0.010  10.321  23.246  0.00  0.00    +0.000 OA
ATOM      6  C   UNL     1       0.396   9.631  20.472  0.00  0.00    +0.000 A 
ATOM      7  C   UNL     1       0.931   8.573  21.212  0.00  0.00    +0.000 A 
ATOM      8  C   UNL     1       1.805   7.648  20.619  0.00  0.00    +0.000 A 
ATOM      9  C   UNL     1       2.163   7.769  19.278  0.00  0.00    +0.000 A 
ATOM     10  C   UNL     1       1.655   8.816  18.525  0.00  0.00    +0.000 A 
ATOM     11  C   UNL     1       0.791   9.742  19.115  0.00  0.00    +0.000 A 
ATOM     12  O   UNL     1       0.410  10.752  18.260  0.00  0.00    +0.000 OA
ENDROOT
BRANCH   4  13
ATOM     13  C   UNL     1      -1.485  12.044  22.794  0.00  0.00    +0.000 A 
ATOM     14  C   UNL     1      -1.107  13.325  23.164  0.00  0.00    +0.000 A 
ATOM     15  C   UNL     1      -2.295  14.063  23.367  0.00  0.00    +0.000 A 
ATOM     16  C   UNL     1      -3.347  13.197  23.151  0.00  0.00    +0.000 A 
ATOM     17  O   UNL     1      -2.854  11.949  22.895  0.00  0.00    +0.000 OA
BRANCH  16  18
ATOM     18  C   UNL     1      -4.798  13.363  23.155  0.00  0.00    +0.000 A 
ATOM     19  C   UNL     1      -5.467  14.096  22.162  0.00  0.00    +0.000 A 
ATOM     20  C   UNL     1      -6.869  14.155  22.137  0.00  0.00    +0.000 A 
ATOM     21  C   UNL     1      -7.622  13.493  23.108  0.00  0.00    +0.000 A 
ATOM     22  C   UNL     1      -6.972  12.792  24.118  0.00  0.00    +0.000 A 
ATOM     23  C   UNL     1      -5.580  12.739  24.140  0.00  0.00    +0.000 A 
ATOM     24  F   UNL     1      -5.001  12.053  25.139  0.00  0.00    +0.000 F 
ENDBRANCH  16  18
ENDBRANCH   4  13
BRANCH   1  26
ATOM     25  N   UNL     1       0.209  14.046  19.945  0.00  0.00    +0.000 N 
ATOM     26  C   UNL     1       0.779  12.841  19.568  0.00  0.00    +0.000 C 
ATOM     27  O   UNL     1       1.951  12.570  19.788  0.00  0.00    +0.000 OA
ATOM     28  H   UNL     1      -0.767  14.203  19.717  0.00  0.00    +0.000 HD
BRANCH  25  29
ATOM     29  C   UNL     1       1.012  15.145  20.431  0.00  0.00    +0.000 C 
BRANCH  29  31
ATOM     30  C   UNL     1      -0.345  16.413  18.680  0.00  0.00    +0.000 C 
ATOM     31  C   UNL     1       0.865  16.425  19.602  0.00  0.00    +0.000 C 
ENDBRANCH  29  31
ENDBRANCH  25  29
ENDBRANCH   1  26
TORSDOF 5
ENDMDL
MODEL 6
REMARK VINA RESULT:      -8.5      1.199      1.248
REMARK  Name = 
REMARK  6 active torsions:
REMARK  status: ('A' for Active; 'I' for Inactive)
REMARK    1  A    between atoms: C_1  and  C_2
REMARK    2  A    between atoms: C_2  and  C_3
REMARK    3  A    between atoms: C_3  and  N_4
REMARK    4  A    between atoms: C_5  and  C_7
REMARK    5  A    between atoms: C_10  and  C_12
REMARK    6  A    between atoms: C_15  and  C_16
REMARK                            x       y       z     vdW  Elec       q    Type
REMARK                         _______ _______ _______ _____ _____    ______ ____
ROOT
ATOM      1  C   UNL     1      -0.662  12.940  18.389  0.00  0.00    +0.000 C 
ATOM      2  C   UNL     1       0.584  12.317  18.987  0.00  0.00    +0.000 C 
ATOM      3  N   UNL     1       0.278  11.703  20.291  0.00  0.00    +0.000 N 
ATOM      4  C   UNL     1       0.524  10.339  20.603  0.00  0.00    +0.000 C 
ATOM      5  O   UNL     1       0.161   9.836  21.670  0.00  0.00    +0.000 OA
ATOM      6  C   UNL     1      -0.487  12.595  21.135  0.00  0.00    +0.000 A 
ATOM      7  C   UNL     1      -0.641  12.422  22.513  0.00  0.00    +0.000 A 
ATOM      8  C   UNL     1      -1.360  13.351  23.281  0.00  0.00    +0.000 A 
ATOM      9  C   UNL     1      -1.943  14.466  22.682  0.00  0.00    +0.000 A 
ATOM     10  C   UNL     1      -1.816  14.655  21.315  0.00  0.00    +0.000 A 
ATOM     11  C   UNL     1      -1.107  13.728  20.548  0.00  0.00    +0.000 A 
ATOM     12  O   UNL     1      -1.109  14.020  19.202  0.00  0.00    +0.000 OA
ENDROOT
BRANCH   4  13
ATOM     13  C   UNL     1       1.129   9.474  19.586  0.00  0.00    +0.000 A 
ATOM     14  C   UNL     1       1.297   9.699  18.229  0.00  0.00    +0.000 A 
ATOM     15  C   UNL     1       2.023   8.600  17.716  0.00  0.00    +0.000 A 
ATOM     16  C   UNL     1       2.235   7.733  18.767  0.00  0.00    +0.000 A 
ATOM     17  O   UNL     1       1.611   8.220  19.882  0.00  0.00    +0.000 OA
BRANCH  16  18
ATOM     18  C   UNL     1       2.953   6.467  18.893  0.00  0.00    +0.000 A 
ATOM     19  C   UNL     1       4.115   6.193  18.155  0.00  0.00    +0.000 A 
ATOM     20  C   UNL     1       4.837   5.010  18.370  0.00  0.00    +0.000 A 
ATOM     21  C   UNL     1       4.405   4.079  19.316  0.00  0.00    +0.000 A 
ATOM     22  C   UNL     1       3.237   4.321  20.030  0.00  0.00    +0.000 A 
ATOM     23  C   UNL     1       2.521   5.496  19.811  0.00  0.00    +0.000 A 
ATOM     24  F   UNL     1       1.397   5.680  20.522  0.00  0.00    +0.000 F 
ENDBRANCH  16  18
ENDBRANCH   4  13
BRANCH   1  26
ATOM     25  N   UNL     1      -1.423  11.011  17.066  0.00  0.00    +0.000 N 
ATOM     26  C   UNL     1      -1.739  11.873  18.105  0.00  0.00    +0.000 C 
ATOM     27  O   UNL     1      -2.755  11.752  18.774  0.00  0.00    +0.000 OA
ATOM     28  H   UNL     1      -0.568  11.183  16.549  0.00  0.00    +0.000 HD
BRANCH  25  29
ATOM     29  C   UNL     1      -2.375  10.044  16.568  0.00  0.00    +0.000 C 
BRANCH  29  31
ATOM     30  C   UNL     1      -3.097  10.098  14.120  0.00  0.00    +0.000 C 
ATOM     31  C   UNL     1      -3.343  10.618  15.529  0.00  0.00    +0.000 C 
ENDBRANCH  29  31
ENDBRANCH  25  29
ENDBRANCH   1  26
TORSDOF 5
ENDMDL
MODEL 7
REMARK VINA RESULT:      -8.5      1.041      1.569
REMARK  Name = 
REMARK  6 active torsions:
REMARK  status: ('A' for Active; 'I' for Inactive)
REMARK    1  A    between atoms: C_1  and  C_2
REMARK    2  A    between atoms: C_2  and  C_3
REMARK    3  A    between atoms: C_3  and  N_4
REMARK    4  A    between atoms: C_5  and  C_7
REMARK    5  A    between atoms: C_10  and  C_12
REMARK    6  A    between atoms: C_15  and  C_16
REMARK                            x       y       z     vdW  Elec       q    Type
REMARK                         _______ _______ _______ _____ _____    ______ ____
ROOT
ATOM      1  C   UNL     1      -0.092  12.149  18.544  0.00  0.00    +0.000 C 
ATOM      2  C   UNL     1       1.046  11.428  19.240  0.00  0.00    +0.000 C 
ATOM      3  N   UNL     1       0.535  10.627  20.366  0.00  0.00    +0.000 N 
ATOM      4  C   UNL     1       0.746   9.228  20.504  0.00  0.00    +0.000 C 
ATOM      5  O   UNL     1       0.217   8.574  21.406  0.00  0.00    +0.000 OA
ATOM      6  C   UNL     1      -0.372  11.389  21.196  0.00  0.00    +0.000 A 
ATOM      7  C   UNL     1      -0.752  11.010  22.487  0.00  0.00    +0.000 A 
ATOM      8  C   UNL     1      -1.602  11.820  23.255  0.00  0.00    +0.000 A 
ATOM      9  C   UNL     1      -2.093  13.020  22.744  0.00  0.00    +0.000 A 
ATOM     10  C   UNL     1      -1.741  13.412  21.461  0.00  0.00    +0.000 A 
ATOM     11  C   UNL     1      -0.901  12.605  20.692  0.00  0.00    +0.000 A 
ATOM     12  O   UNL     1      -0.683  13.098  19.425  0.00  0.00    +0.000 OA
ENDROOT
BRANCH   4  13
ATOM     13  C   UNL     1       1.523   8.521  19.483  0.00  0.00    +0.000 A 
ATOM     14  C   UNL     1       2.234   9.033  18.409  0.00  0.00    +0.000 A 
ATOM     15  C   UNL     1       2.887   7.943  17.790  0.00  0.00    +0.000 A 
ATOM     16  C   UNL     1       2.522   6.810  18.485  0.00  0.00    +0.000 A 
ATOM     17  O   UNL     1       1.620   7.149  19.454  0.00  0.00    +0.000 OA
BRANCH  16  18
ATOM     18  C   UNL     1       2.895   5.402  18.372  0.00  0.00    +0.000 A 
ATOM     19  C   UNL     1       2.096   4.472  17.688  0.00  0.00    +0.000 A 
ATOM     20  C   UNL     1       2.529   3.148  17.512  0.00  0.00    +0.000 A 
ATOM     21  C   UNL     1       3.758   2.732  18.025  0.00  0.00    +0.000 A 
ATOM     22  C   UNL     1       4.544   3.633  18.735  0.00  0.00    +0.000 A 
ATOM     23  C   UNL     1       4.108   4.945  18.909  0.00  0.00    +0.000 A 
ATOM     24  F   UNL     1       4.902   5.775  19.607  0.00  0.00    +0.000 F 
ENDBRANCH  16  18
ENDBRANCH   4  13
BRANCH   1  26
ATOM     25  N   UNL     1      -1.954  11.712  16.998  0.00  0.00    +0.000 N 
ATOM     26  C   UNL     1      -1.090  11.150  17.925  0.00  0.00    +0.000 C 
ATOM     27  O   UNL     1      -1.085   9.954  18.179  0.00  0.00    +0.000 OA
ATOM     28  H   UNL     1      -1.908  12.714  16.851  0.00  0.00    +0.000 HD
BRANCH  25  29
ATOM     29  C   UNL     1      -3.048  10.958  16.428  0.00  0.00    +0.000 C 
BRANCH  29  31
ATOM     30  C   UNL     1      -4.925  11.223  18.137  0.00  0.00    +0.000 C 
ATOM     31  C   UNL     1      -4.426  11.549  16.737  0.00  0.00    +0.000 C 
ENDBRANCH  29  31
ENDBRANCH  25  29
ENDBRANCH   1  26
TORSDOF 5
ENDMDL
MODEL 8
REMARK VINA RESULT:      -8.5      1.070      1.256
REMARK  Name = 
REMARK  6 active torsions:
REMARK  status: ('A' for Active; 'I' for Inactive)
REMARK    1  A    between atoms: C_1  and  C_2
REMARK    2  A    between atoms: C_2  and  C_3
REMARK    3  A    between atoms: C_3  and  N_4
REMARK    4  A    between atoms: C_5  and  C_7
REMARK    5  A    between atoms: C_10  and  C_12
REMARK    6  A    between atoms: C_15  and  C_16
REMARK                            x       y       z     vdW  Elec       q    Type
REMARK                         _______ _______ _______ _____ _____    ______ ____
ROOT
ATOM      1  C   UNL     1      -0.066  11.941  18.633  0.00  0.00    +0.000 C 
ATOM      2  C   UNL     1       1.052  11.226  19.367  0.00  0.00    +0.000 C 
ATOM      3  N   UNL     1       0.513  10.457  20.503  0.00  0.00    +0.000 N 
ATOM      4  C   UNL     1       0.708   9.060  20.678  0.00  0.00    +0.000 C 
ATOM      5  O   UNL     1       0.157   8.433  21.585  0.00  0.00    +0.000 OA
ATOM      6  C   UNL     1      -0.403  11.247  21.296  0.00  0.00    +0.000 A 
ATOM      7  C   UNL     1      -0.809  10.903  22.589  0.00  0.00    +0.000 A 
ATOM      8  C   UNL     1      -1.666  11.738  23.321  0.00  0.00    +0.000 A 
ATOM      9  C   UNL     1      -2.136  12.929  22.773  0.00  0.00    +0.000 A 
ATOM     10  C   UNL     1      -1.758  13.288  21.488  0.00  0.00    +0.000 A 
ATOM     11  C   UNL     1      -0.911  12.455  20.754  0.00  0.00    +0.000 A 
ATOM     12  O   UNL     1      -0.664  12.915  19.480  0.00  0.00    +0.000 OA
ENDROOT
BRANCH   4  13
ATOM     13  C   UNL     1       1.498   8.322  19.689  0.00  0.00    +0.000 A 
ATOM     14  C   UNL     1       2.197   8.797  18.591  0.00  0.00    +0.000 A 
ATOM     15  C   UNL     1       2.871   7.694  18.021  0.00  0.00    +0.000 A 
ATOM     16  C   UNL     1       2.529   6.586  18.768  0.00  0.00    +0.000 A 
ATOM     17  O   UNL     1       1.622   6.953  19.723  0.00  0.00    +0.000 OA
BRANCH  16  18
ATOM     18  C   UNL     1       2.930   5.182  18.720  0.00  0.00    +0.000 A 
ATOM     19  C   UNL     1       3.287   4.550  17.519  0.00  0.00    +0.000 A 
ATOM     20  C   UNL     1       3.762   3.230  17.518  0.00  0.00    +0.000 A 
ATOM     21  C   UNL     1       3.876   2.518  18.713  0.00  0.00    +0.000 A 
ATOM     22  C   UNL     1       3.493   3.120  19.907  0.00  0.00    +0.000 A 
ATOM     23  C   UNL     1       3.020   4.430  19.902  0.00  0.00    +0.000 A 
ATOM     24  F   UNL     1       2.658   4.964  21.080  0.00  0.00    +0.000 F 
ENDBRANCH  16  18
ENDBRANCH   4  13
BRANCH   1  26
ATOM     25  N   UNL     1      -2.365  11.401  17.949  0.00  0.00    +0.000 N 
ATOM     26  C   UNL     1      -1.062  10.935  18.020  0.00  0.00    +0.000 C 
ATOM     27  O   UNL     1      -0.727   9.846  17.576  0.00  0.00    +0.000 OA
ATOM     28  H   UNL     1      -2.569  12.310  18.350  0.00  0.00    +0.000 HD
BRANCH  25  29
ATOM     29  C   UNL     1      -3.454  10.543  17.538  0.00  0.00    +0.000 C 
BRANCH  29  31
ATOM     30  C   UNL     1      -3.160  10.396  15.007  0.00  0.00    +0.000 C 
ATOM     31  C   UNL     1      -4.022  10.892  16.159  0.00  0.00    +0.000 C 
ENDBRANCH  29  31
ENDBRANCH  25  29
ENDBRANCH   1  26
TORSDOF 5
ENDMDL
MODEL 9
REMARK VINA RESULT:      -8.4      1.580      1.831
REMARK  Name = 
REMARK  6 active torsions:
REMARK  status: ('A' for Active; 'I' for Inactive)
REMARK    1  A    between atoms: C_1  and  C_2
REMARK    2  A    between atoms: C_2  and  C_3
REMARK    3  A    between atoms: C_3  and  N_4
REMARK    4  A    between atoms: C_5  and  C_7
REMARK    5  A    between atoms: C_10  and  C_12
REMARK    6  A    between atoms: C_15  and  C_16
REMARK                            x       y       z     vdW  Elec       q    Type
REMARK                         _______ _______ _______ _____ _____    ______ ____
ROOT
ATOM      1  C   UNL     1       0.087  11.946  19.113  0.00  0.00    +0.000 C 
ATOM      2  C   UNL     1       0.962  11.181  20.086  0.00  0.00    +0.000 C 
ATOM      3  N   UNL     1       0.149  10.624  21.182  0.00  0.00    +0.000 N 
ATOM      4  C   UNL     1       0.107   9.244  21.515  0.00  0.00    +0.000 C 
ATOM      5  O   UNL     1      -0.663   8.802  22.372  0.00  0.00    +0.000 OA
ATOM      6  C   UNL     1      -0.749  11.613  21.736  0.00  0.00    +0.000 A 
ATOM      7  C   UNL     1      -1.394  11.476  22.969  0.00  0.00    +0.000 A 
ATOM      8  C   UNL     1      -2.218  12.496  23.468  0.00  0.00    +0.000 A 
ATOM      9  C   UNL     1      -2.418  13.667  22.741  0.00  0.00    +0.000 A 
ATOM     10  C   UNL     1      -1.801  13.823  21.510  0.00  0.00    +0.000 A 
ATOM     11  C   UNL     1      -0.985  12.807  21.007  0.00  0.00    +0.000 A 
ATOM     12  O   UNL     1      -0.483  13.082  19.755  0.00  0.00    +0.000 OA
ENDROOT
BRANCH   4  13
ATOM     13  C   UNL     1       0.919   8.299  20.744  0.00  0.00    +0.000 A 
ATOM     14  C   UNL     1       1.901   8.553  19.799  0.00  0.00    +0.000 A 
ATOM     15  C   UNL     1       2.448   7.304  19.427  0.00  0.00    +0.000 A 
ATOM     16  C   UNL     1       1.757   6.339  20.129  0.00  0.00    +0.000 A 
ATOM     17  O   UNL     1       0.768   6.937  20.858  0.00  0.00    +0.000 OA
BRANCH  16  18
ATOM     18  C   UNL     1       1.881   4.886  20.222  0.00  0.00    +0.000 A 
ATOM     19  C   UNL     1       2.235   4.244  21.419  0.00  0.00    +0.000 A 
ATOM     20  C   UNL     1       2.249   2.843  21.502  0.00  0.00    +0.000 A 
ATOM     21  C   UNL     1       1.922   2.065  20.391  0.00  0.00    +0.000 A 
ATOM     22  C   UNL     1       1.603   2.687  19.189  0.00  0.00    +0.000 A 
ATOM     23  C   UNL     1       1.593   4.079  19.111  0.00  0.00    +0.000 A 
ATOM     24  F   UNL     1       1.283   4.631  17.926  0.00  0.00    +0.000 F 
ENDBRANCH  16  18
ENDBRANCH   4  13
BRANCH   1  26
ATOM     25  N   UNL     1      -2.224  11.542  18.373  0.00  0.00    +0.000 N 
ATOM     26  C   UNL     1      -0.943  11.017  18.438  0.00  0.00    +0.000 C 
ATOM     27  O   UNL     1      -0.648   9.937  17.946  0.00  0.00    +0.000 OA
ATOM     28  H   UNL     1      -2.394  12.438  18.816  0.00  0.00    +0.000 HD
BRANCH  25  29
ATOM     29  C   UNL     1      -3.342  10.754  17.907  0.00  0.00    +0.000 C 
BRANCH  29  31
ATOM     30  C   UNL     1      -5.413  12.025  17.124  0.00  0.00    +0.000 C 
ATOM     31  C   UNL     1      -4.089  11.388  16.729  0.00  0.00    +0.000 C 
ENDBRANCH  29  31
ENDBRANCH  25  29
ENDBRANCH   1  26
TORSDOF 5
ENDMDL
