MODEL 1
REMARK VINA RESULT:      -8.8      0.000      0.000
REMARK  Name = 
REMARK  6 active torsions:
REMARK  status: ('A' for Active; 'I' for Inactive)
REMARK    1  A    between atoms: C_2  and  C_14
REMARK    2  A    between atoms: N_3  and  C_4
REMARK    3  A    between atoms: C_8  and  C_9
REMARK    4  A    between atoms: C_14  and  S_15
REMARK    5  A    between atoms: C_14  and  C_25
REMARK    6  A    between atoms: S_15  and  C_16
REMARK                            x       y       z     vdW  Elec       q    Type
REMARK                         _______ _______ _______ _____ _____    ______ ____
ROOT
ATOM      1  C   UNL     1       3.087   6.104  18.572  0.00  0.00    +0.000 C 
ENDROOT
BRANCH   1   2
ATOM      2  C   UNL     1       2.240   4.887  18.953  0.00  0.00    +0.000 A 
ATOM      3  C   UNL     1       1.760   4.016  17.960  0.00  0.00    +0.000 A 
ATOM      4  C   UNL     1       1.000   2.895  18.302  0.00  0.00    +0.000 A 
ATOM      5  C   UNL     1       0.710   2.627  19.638  0.00  0.00    +0.000 A 
ATOM      6  C   UNL     1       1.168   3.485  20.634  0.00  0.00    +0.000 A 
ATOM      7  C   UNL     1       1.923   4.610  20.295  0.00  0.00    +0.000 A 
ENDBRANCH   1   2
BRANCH   1   9
ATOM      8  O   UNL     1       2.256   7.661  20.213  0.00  0.00    +0.000 OA
ATOM      9  C   UNL     1       2.392   7.419  19.008  0.00  0.00    +0.000 C 
ATOM     10  N   UNL     1       1.930   8.250  18.000  0.00  0.00    +0.000 N 
ATOM     11  H   UNL     1       1.921   7.853  17.071  0.00  0.00    +0.000 HD
BRANCH  10  12
ATOM     12  C   UNL     1       1.213   9.453  18.152  0.00  0.00    +0.000 A 
ATOM     13  C   UNL     1       1.800  10.643  18.576  0.00  0.00    +0.000 A 
ATOM     14  C   UNL     1       1.031  11.793  18.742  0.00  0.00    +0.000 A 
ATOM     15  C   UNL     1      -0.338  11.770  18.477  0.00  0.00    +0.000 A 
ATOM     16  C   UNL     1      -0.947  10.590  18.031  0.00  0.00    +0.000 A 
ATOM     17  C   UNL     1      -0.161   9.436  17.861  0.00  0.00    +0.000 A 
BRANCH  16  18
ATOM     18  C   UNL     1      -2.427  10.554  17.739  0.00  0.00    +0.000 C 
ATOM     19  F   UNL     1      -3.152  11.443  18.476  0.00  0.00    +0.000 F 
ATOM     20  F   UNL     1      -2.709  10.840  16.437  0.00  0.00    +0.000 F 
ATOM     21  F   UNL     1      -2.984   9.334  17.979  0.00  0.00    +0.000 F 
ENDBRANCH  16  18
ENDBRANCH  10  12
ENDBRANCH   1   9
BRANCH   1  22
ATOM     22  S   UNL     1       4.795   5.857  19.212  0.00  0.00    +0.000 S 
BRANCH  22  23
ATOM     23  C   UNL     1       5.775   6.088  17.807  0.00  0.00    +0.000 A 
ATOM     24  N   UNL     1       6.739   6.969  17.677  0.00  0.00    +0.000 NA
ATOM     25  N   UNL     1       7.395   6.704  16.495  0.00  0.00    +0.000 NA
ATOM     26  C   UNL     1       6.809   5.669  15.931  0.00  0.00    +0.000 A 
ATOM     27  C   UNL     1       7.056   4.958  14.726  0.00  0.00    +0.000 A 
ATOM     28  C   UNL     1       6.287   3.895  14.412  0.00  0.00    +0.000 A 
ATOM     29  C   UNL     1       5.212   3.448  15.286  0.00  0.00    +0.000 A 
ATOM     30  C   UNL     1       4.975   4.121  16.424  0.00  0.00    +0.000 A 
ATOM     31  N   UNL     1       5.764   5.228  16.735  0.00  0.00    +0.000 N 
ENDBRANCH  22  23
ENDBRANCH   1  22
TORSDOF 6
ENDMDL
MODEL 2
REMARK VINA RESULT:      -8.8      0.033      1.123
REMARK  Name = 
REMARK  6 active torsions:
REMARK  status: ('A' for Active; 'I' for Inactive)
REMARK    1  A    between atoms: C_2  and  C_14
REMARK    2  A    between atoms: N_3  and  C_4
REMARK    3  A    between atoms: C_8  and  C_9
REMARK    4  A    between atoms: C_14  and  S_15
REMARK    5  A    between atoms: C_14  and  C_25
REMARK    6  A    between atoms: S_15  and  C_16
REMARK                            x       y       z     vdW  Elec       q    Type
REMARK                         _______ _______ _______ _____ _____    ______ ____
ROOT
ATOM      1  C   UNL     1       3.093   6.124  18.557  0.00  0.00    +0.000 C 
ENDROOT
BRANCH   1   2
ATOM      2  C   UNL     1       2.252   4.902  18.930  0.00  0.00    +0.000 A 
ATOM      3  C   UNL     1       1.925   4.648  20.273  0.00  0.00    +0.000 A 
ATOM      4  C   UNL     1       1.143   3.542  20.619  0.00  0.00    +0.000 A 
ATOM      5  C   UNL     1       0.677   2.677  19.632  0.00  0.00    +0.000 A 
ATOM      6  C   UNL     1       1.001   2.908  18.298  0.00  0.00    +0.000 A 
ATOM      7  C   UNL     1       1.787   4.008  17.948  0.00  0.00    +0.000 A 
ENDBRANCH   1   2
BRANCH   1   9
ATOM      8  O   UNL     1       2.254   7.668  20.206  0.00  0.00    +0.000 OA
ATOM      9  C   UNL     1       2.392   7.434  19.000  0.00  0.00    +0.000 C 
ATOM     10  N   UNL     1       1.927   8.269  17.996  0.00  0.00    +0.000 N 
ATOM     11  H   UNL     1       1.921   7.877  17.065  0.00  0.00    +0.000 HD
BRANCH  10  12
ATOM     12  C   UNL     1       1.205   9.468  18.154  0.00  0.00    +0.000 A 
ATOM     13  C   UNL     1       1.788  10.659  18.580  0.00  0.00    +0.000 A 
ATOM     14  C   UNL     1       1.013  11.804  18.752  0.00  0.00    +0.000 A 
ATOM     15  C   UNL     1      -0.356  11.776  18.492  0.00  0.00    +0.000 A 
ATOM     16  C   UNL     1      -0.961  10.594  18.044  0.00  0.00    +0.000 A 
ATOM     17  C   UNL     1      -0.169   9.445  17.868  0.00  0.00    +0.000 A 
BRANCH  16  18
ATOM     18  C   UNL     1      -2.442  10.551  17.757  0.00  0.00    +0.000 C 
ATOM     19  F   UNL     1      -3.002   9.324  17.952  0.00  0.00    +0.000 F 
ATOM     20  F   UNL     1      -3.150  11.408  18.547  0.00  0.00    +0.000 F 
ATOM     21  F   UNL     1      -2.743  10.896  16.475  0.00  0.00    +0.000 F 
ENDBRANCH  16  18
ENDBRANCH  10  12
ENDBRANCH   1   9
BRANCH   1  22
ATOM     22  S   UNL     1       4.802   5.881  19.197  0.00  0.00    +0.000 S 
BRANCH  22  23
ATOM     23  C   UNL     1       5.780   6.102  17.789  0.00  0.00    +0.000 A 
ATOM     24  N   UNL     1       6.743   6.983  17.651  0.00  0.00    +0.000 NA
ATOM     25  N   UNL     1       7.398   6.709  16.471  0.00  0.00    +0.000 NA
ATOM     26  C   UNL     1       6.814   5.669  15.916  0.00  0.00    +0.000 A 
ATOM     27  C   UNL     1       7.061   4.948  14.716  0.00  0.00    +0.000 A 
ATOM     28  C   UNL     1       6.292   3.882  14.411  0.00  0.00    +0.000 A 
ATOM     29  C   UNL     1       5.219   3.441  15.291  0.00  0.00    +0.000 A 
ATOM     30  C   UNL     1       4.981   4.123  16.424  0.00  0.00    +0.000 A 
ATOM     31  N   UNL     1       5.769   5.234  16.724  0.00  0.00    +0.000 N 
ENDBRANCH  22  23
ENDBRANCH   1  22
TORSDOF 6
ENDMDL
MODEL 3
REMARK VINA RESULT:      -8.7      2.469      2.913
REMARK  Name = 
REMARK  6 active torsions:
REMARK  status: ('A' for Active; 'I' for Inactive)
REMARK    1  A    between atoms: C_2  and  C_14
REMARK    2  A    between atoms: N_3  and  C_4
REMARK    3  A    between atoms: C_8  and  C_9
REMARK    4  A    between atoms: C_14  and  S_15
REMARK    5  A    between atoms: C_14  and  C_25
REMARK    6  A    between atoms: S_15  and  C_16
REMARK                            x       y       z     vdW  Elec       q    Type
REMARK                         _______ _______ _______ _____ _____    ______ ____
ROOT
ATOM      1  C   UNL     1       3.418   5.503  18.642  0.00  0.00    +0.000 C 
ENDROOT
BRANCH   1   2
ATOM      2  C   UNL     1       2.598   4.506  19.464  0.00  0.00    +0.000 A 
ATOM      3  C   UNL     1       2.934   4.242  20.803  0.00  0.00    +0.000 A 
ATOM      4  C   UNL     1       2.179   3.345  21.563  0.00  0.00    +0.000 A 
ATOM      5  C   UNL     1       1.081   2.701  21.000  0.00  0.00    +0.000 A 
ATOM      6  C   UNL     1       0.740   2.942  19.672  0.00  0.00    +0.000 A 
ATOM      7  C   UNL     1       1.495   3.834  18.906  0.00  0.00    +0.000 A 
ENDBRANCH   1   2
BRANCH   1   9
ATOM      8  O   UNL     1       2.931   7.668  17.704  0.00  0.00    +0.000 OA
ATOM      9  C   UNL     1       2.762   6.907  18.663  0.00  0.00    +0.000 C 
ATOM     10  N   UNL     1       2.032   7.243  19.792  0.00  0.00    +0.000 N 
ATOM     11  H   UNL     1       2.133   6.623  20.582  0.00  0.00    +0.000 HD
BRANCH  10  12
ATOM     12  C   UNL     1       1.408   8.476  20.064  0.00  0.00    +0.000 A 
ATOM     13  C   UNL     1       1.350   9.522  19.146  0.00  0.00    +0.000 A 
ATOM     14  C   UNL     1       0.749  10.732  19.487  0.00  0.00    +0.000 A 
ATOM     15  C   UNL     1       0.191  10.910  20.752  0.00  0.00    +0.000 A 
ATOM     16  C   UNL     1       0.220   9.866  21.686  0.00  0.00    +0.000 A 
ATOM     17  C   UNL     1       0.823   8.646  21.330  0.00  0.00    +0.000 A 
BRANCH  16  18
ATOM     18  C   UNL     1      -0.383  10.047  23.058  0.00  0.00    +0.000 C 
ATOM     19  F   UNL     1      -1.546   9.359  23.240  0.00  0.00    +0.000 F 
ATOM     20  F   UNL     1       0.451   9.628  24.051  0.00  0.00    +0.000 F 
ATOM     21  F   UNL     1      -0.674  11.347  23.340  0.00  0.00    +0.000 F 
ENDBRANCH  16  18
ENDBRANCH  10  12
ENDBRANCH   1   9
BRANCH   1  22
ATOM     22  S   UNL     1       5.168   5.434  19.208  0.00  0.00    +0.000 S 
BRANCH  22  23
ATOM     23  C   UNL     1       6.056   5.832  17.779  0.00  0.00    +0.000 A 
ATOM     24  N   UNL     1       6.981   6.758  17.680  0.00  0.00    +0.000 NA
ATOM     25  N   UNL     1       7.575   6.629  16.444  0.00  0.00    +0.000 NA
ATOM     26  C   UNL     1       6.991   5.629  15.818  0.00  0.00    +0.000 A 
ATOM     27  C   UNL     1       7.190   5.043  14.538  0.00  0.00    +0.000 A 
ATOM     28  C   UNL     1       6.439   3.986  14.168  0.00  0.00    +0.000 A 
ATOM     29  C   UNL     1       5.433   3.418  15.055  0.00  0.00    +0.000 A 
ATOM     30  C   UNL     1       5.241   3.973  16.263  0.00  0.00    +0.000 A 
ATOM     31  N   UNL     1       6.010   5.076  16.633  0.00  0.00    +0.000 N 
ENDBRANCH  22  23
ENDBRANCH   1  22
TORSDOF 6
ENDMDL
MODEL 4
REMARK VINA RESULT:      -8.6      2.858      5.743
REMARK  Name = 
REMARK  6 active torsions:
REMARK  status: ('A' for Active; 'I' for Inactive)
REMARK    1  A    between atoms: C_2  and  C_14
REMARK    2  A    between atoms: N_3  and  C_4
REMARK    3  A    between atoms: C_8  and  C_9
REMARK    4  A    between atoms: C_14  and  S_15
REMARK    5  A    between atoms: C_14  and  C_25
REMARK    6  A    between atoms: S_15  and  C_16
REMARK                            x       y       z     vdW  Elec       q    Type
REMARK                         _______ _______ _______ _____ _____    ______ ____
ROOT
ATOM      1  C   UNL     1       5.230   4.491  16.840  0.00  0.00    +0.000 C 
ENDROOT
BRANCH   1   2
ATOM      2  C   UNL     1       5.842   4.501  15.438  0.00  0.00    +0.000 A 
ATOM      3  C   UNL     1       7.085   5.113  15.209  0.00  0.00    +0.000 A 
ATOM      4  C   UNL     1       7.657   5.111  13.933  0.00  0.00    +0.000 A 
ATOM      5  C   UNL     1       6.997   4.498  12.871  0.00  0.00    +0.000 A 
ATOM      6  C   UNL     1       5.759   3.896  13.078  0.00  0.00    +0.000 A 
ATOM      7  C   UNL     1       5.181   3.900  14.350  0.00  0.00    +0.000 A 
ENDBRANCH   1   2
BRANCH   1   9
ATOM      8  O   UNL     1       5.543   6.847  17.236  0.00  0.00    +0.000 OA
ATOM      9  C   UNL     1       4.742   5.907  17.239  0.00  0.00    +0.000 C 
ATOM     10  N   UNL     1       3.412   6.032  17.610  0.00  0.00    +0.000 N 
ATOM     11  H   UNL     1       2.914   5.167  17.763  0.00  0.00    +0.000 HD
BRANCH  10  12
ATOM     12  C   UNL     1       2.764   7.194  18.072  0.00  0.00    +0.000 A 
ATOM     13  C   UNL     1       2.635   8.352  17.308  0.00  0.00    +0.000 A 
ATOM     14  C   UNL     1       2.015   9.483  17.835  0.00  0.00    +0.000 A 
ATOM     15  C   UNL     1       1.505   9.468  19.133  0.00  0.00    +0.000 A 
ATOM     16  C   UNL     1       1.605   8.309  19.913  0.00  0.00    +0.000 A 
ATOM     17  C   UNL     1       2.228   7.170  19.370  0.00  0.00    +0.000 A 
BRANCH  16  18
ATOM     18  C   UNL     1       1.056   8.281  21.318  0.00  0.00    +0.000 C 
ATOM     19  F   UNL     1       1.140   7.057  21.914  0.00  0.00    +0.000 F 
ATOM     20  F   UNL     1       1.711   9.140  22.150  0.00  0.00    +0.000 F 
ATOM     21  F   UNL     1      -0.258   8.633  21.380  0.00  0.00    +0.000 F 
ENDBRANCH  16  18
ENDBRANCH  10  12
ENDBRANCH   1   9
BRANCH   1  22
ATOM     22  S   UNL     1       3.962   3.160  16.921  0.00  0.00    +0.000 S 
BRANCH  22  23
ATOM     23  C   UNL     1       3.963   2.722  18.594  0.00  0.00    +0.000 A 
ATOM     24  N   UNL     1       5.014   2.366  19.296  0.00  0.00    +0.000 NA
ATOM     25  N   UNL     1       4.630   2.288  20.616  0.00  0.00    +0.000 NA
ATOM     26  C   UNL     1       3.352   2.593  20.685  0.00  0.00    +0.000 A 
ATOM     27  C   UNL     1       2.438   2.684  21.770  0.00  0.00    +0.000 A 
ATOM     28  C   UNL     1       1.162   3.052  21.533  0.00  0.00    +0.000 A 
ATOM     29  C   UNL     1       0.697   3.373  20.191  0.00  0.00    +0.000 A 
ATOM     30  C   UNL     1       1.559   3.284  19.164  0.00  0.00    +0.000 A 
ATOM     31  N   UNL     1       2.873   2.886  19.413  0.00  0.00    +0.000 N 
ENDBRANCH  22  23
ENDBRANCH   1  22
TORSDOF 6
ENDMDL
MODEL 5
REMARK VINA RESULT:      -8.6      2.854      5.660
REMARK  Name = 
REMARK  6 active torsions:
REMARK  status: ('A' for Active; 'I' for Inactive)
REMARK    1  A    between atoms: C_2  and  C_14
REMARK    2  A    between atoms: N_3  and  C_4
REMARK    3  A    between atoms: C_8  and  C_9
REMARK    4  A    between atoms: C_14  and  S_15
REMARK    5  A    between atoms: C_14  and  C_25
REMARK    6  A    between atoms: S_15  and  C_16
REMARK                            x       y       z     vdW  Elec       q    Type
REMARK                         _______ _______ _______ _____ _____    ______ ____
ROOT
ATOM      1  C   UNL     1       5.174   4.586  16.886  0.00  0.00    +0.000 C 
ENDROOT
BRANCH   1   2
ATOM      2  C   UNL     1       5.850   4.563  15.513  0.00  0.00    +0.000 A 
ATOM      3  C   UNL     1       5.221   3.942  14.421  0.00  0.00    +0.000 A 
ATOM      4  C   UNL     1       5.825   3.933  13.161  0.00  0.00    +0.000 A 
ATOM      5  C   UNL     1       7.064   4.542  12.974  0.00  0.00    +0.000 A 
ATOM      6  C   UNL     1       7.706   5.152  14.047  0.00  0.00    +0.000 A 
ATOM      7  C   UNL     1       7.108   5.159  15.309  0.00  0.00    +0.000 A 
ENDBRANCH   1   2
BRANCH   1   9
ATOM      8  O   UNL     1       5.411   6.977  17.069  0.00  0.00    +0.000 OA
ATOM      9  C   UNL     1       4.659   6.008  17.224  0.00  0.00    +0.000 C 
ATOM     10  N   UNL     1       3.368   6.108  17.718  0.00  0.00    +0.000 N 
ATOM     11  H   UNL     1       2.930   5.238  17.985  0.00  0.00    +0.000 HD
BRANCH  10  12
ATOM     12  C   UNL     1       2.713   7.276  18.155  0.00  0.00    +0.000 A 
ATOM     13  C   UNL     1       2.575   8.415  17.365  0.00  0.00    +0.000 A 
ATOM     14  C   UNL     1       1.948   9.553  17.867  0.00  0.00    +0.000 A 
ATOM     15  C   UNL     1       1.442   9.565  19.166  0.00  0.00    +0.000 A 
ATOM     16  C   UNL     1       1.551   8.426  19.973  0.00  0.00    +0.000 A 
ATOM     17  C   UNL     1       2.181   7.279  19.455  0.00  0.00    +0.000 A 
BRANCH  16  18
ATOM     18  C   UNL     1       1.007   8.426  21.380  0.00  0.00    +0.000 C 
ATOM     19  F   UNL     1       1.844   8.999  22.291  0.00  0.00    +0.000 F 
ATOM     20  F   UNL     1      -0.169   9.108  21.482  0.00  0.00    +0.000 F 
ATOM     21  F   UNL     1       0.751   7.174  21.848  0.00  0.00    +0.000 F 
ENDBRANCH  16  18
ENDBRANCH  10  12
ENDBRANCH   1   9
BRANCH   1  22
ATOM     22  S   UNL     1       3.911   3.249  16.942  0.00  0.00    +0.000 S 
BRANCH  22  23
ATOM     23  C   UNL     1       3.933   2.761  18.600  0.00  0.00    +0.000 A 
ATOM     24  N   UNL     1       4.992   2.383  19.278  0.00  0.00    +0.000 NA
ATOM     25  N   UNL     1       4.626   2.267  20.601  0.00  0.00    +0.000 NA
ATOM     26  C   UNL     1       3.349   2.572  20.695  0.00  0.00    +0.000 A 
ATOM     27  C   UNL     1       2.449   2.633  21.794  0.00  0.00    +0.000 A 
ATOM     28  C   UNL     1       1.171   3.010  21.585  0.00  0.00    +0.000 A 
ATOM     29  C   UNL     1       0.690   3.370  20.259  0.00  0.00    +0.000 A 
ATOM     30  C   UNL     1       1.538   3.310  19.219  0.00  0.00    +0.000 A 
ATOM     31  N   UNL     1       2.854   2.903  19.439  0.00  0.00    +0.000 N 
ENDBRANCH  22  23
ENDBRANCH   1  22
TORSDOF 6
ENDMDL
MODEL 6
REMARK VINA RESULT:      -8.6      1.687      2.058
REMARK  Name = 
REMARK  6 active torsions:
REMARK  status: ('A' for Active; 'I' for Inactive)
REMARK    1  A    between atoms: C_2  and  C_14
REMARK    2  A    between atoms: N_3  and  C_4
REMARK    3  A    between atoms: C_8  and  C_9
REMARK    4  A    between atoms: C_14  and  S_15
REMARK    5  A    between atoms: C_14  and  C_25
REMARK    6  A    between atoms: S_15  and  C_16
REMARK                            x       y       z     vdW  Elec       q    Type
REMARK                         _______ _______ _______ _____ _____    ______ ____
ROOT
ATOM      1  C   UNL     1       3.381   5.606  18.789  0.00  0.00    +0.000 C 
ENDROOT
BRANCH   1   2
ATOM      2  C   UNL     1       2.597   4.510  19.513  0.00  0.00    +0.000 A 
ATOM      3  C   UNL     1       2.970   4.106  20.807  0.00  0.00    +0.000 A 
ATOM      4  C   UNL     1       2.248   3.118  21.480  0.00  0.00    +0.000 A 
ATOM      5  C   UNL     1       1.145   2.520  20.874  0.00  0.00    +0.000 A 
ATOM      6  C   UNL     1       0.769   2.900  19.589  0.00  0.00    +0.000 A 
ATOM      7  C   UNL     1       1.491   3.884  18.910  0.00  0.00    +0.000 A 
ENDBRANCH   1   2
BRANCH   1   9
ATOM      8  O   UNL     1       2.829   7.849  18.102  0.00  0.00    +0.000 OA
ATOM      9  C   UNL     1       2.704   6.988  18.979  0.00  0.00    +0.000 C 
ATOM     10  N   UNL     1       2.005   7.188  20.159  0.00  0.00    +0.000 N 
ATOM     11  H   UNL     1       2.141   6.489  20.876  0.00  0.00    +0.000 HD
BRANCH  10  12
ATOM     12  C   UNL     1       1.371   8.373  20.581  0.00  0.00    +0.000 A 
ATOM     13  C   UNL     1       1.307   8.772  21.914  0.00  0.00    +0.000 A 
ATOM     14  C   UNL     1       0.633   9.937  22.273  0.00  0.00    +0.000 A 
ATOM     15  C   UNL     1       0.019  10.726  21.300  0.00  0.00    +0.000 A 
ATOM     16  C   UNL     1       0.087  10.356  19.951  0.00  0.00    +0.000 A 
ATOM     17  C   UNL     1       0.775   9.180  19.598  0.00  0.00    +0.000 A 
BRANCH  16  18
ATOM     18  C   UNL     1      -0.571  11.202  18.889  0.00  0.00    +0.000 C 
ATOM     19  F   UNL     1       0.191  12.255  18.478  0.00  0.00    +0.000 F 
ATOM     20  F   UNL     1      -0.857  10.492  17.761  0.00  0.00    +0.000 F 
ATOM     21  F   UNL     1      -1.754  11.738  19.299  0.00  0.00    +0.000 F 
ENDBRANCH  16  18
ENDBRANCH  10  12
ENDBRANCH   1   9
BRANCH   1  22
ATOM     22  S   UNL     1       5.145   5.508  19.305  0.00  0.00    +0.000 S 
BRANCH  22  23
ATOM     23  C   UNL     1       5.998   5.867  17.845  0.00  0.00    +0.000 A 
ATOM     24  N   UNL     1       6.916   6.794  17.697  0.00  0.00    +0.000 NA
ATOM     25  N   UNL     1       7.483   6.631  16.452  0.00  0.00    +0.000 NA
ATOM     26  C   UNL     1       6.891   5.610  15.869  0.00  0.00    +0.000 A 
ATOM     27  C   UNL     1       7.064   4.986  14.604  0.00  0.00    +0.000 A 
ATOM     28  C   UNL     1       6.311   3.915  14.282  0.00  0.00    +0.000 A 
ATOM     29  C   UNL     1       5.327   3.370  15.208  0.00  0.00    +0.000 A 
ATOM     30  C   UNL     1       5.160   3.960  16.403  0.00  0.00    +0.000 A 
ATOM     31  N   UNL     1       5.931   5.077  16.722  0.00  0.00    +0.000 N 
ENDBRANCH  22  23
ENDBRANCH   1  22
TORSDOF 6
ENDMDL
MODEL 7
REMARK VINA RESULT:      -8.5      2.789      5.838
REMARK  Name = 
REMARK  6 active torsions:
REMARK  status: ('A' for Active; 'I' for Inactive)
REMARK    1  A    between atoms: C_2  and  C_14
REMARK    2  A    between atoms: N_3  and  C_4
REMARK    3  A    between atoms: C_8  and  C_9
REMARK    4  A    between atoms: C_14  and  S_15
REMARK    5  A    between atoms: C_14  and  C_25
REMARK    6  A    between atoms: S_15  and  C_16
REMARK                            x       y       z     vdW  Elec       q    Type
REMARK                         _______ _______ _______ _____ _____    ______ ____
ROOT
ATOM      1  C   UNL     1       5.657   3.931  17.465  0.00  0.00    +0.000 C 
ENDROOT
BRANCH   1   2
ATOM      2  C   UNL     1       6.114   4.270  16.044  0.00  0.00    +0.000 A 
ATOM      3  C   UNL     1       7.149   5.196  15.833  0.00  0.00    +0.000 A 
ATOM      4  C   UNL     1       7.582   5.498  14.539  0.00  0.00    +0.000 A 
ATOM      5  C   UNL     1       6.990   4.879  13.440  0.00  0.00    +0.000 A 
ATOM      6  C   UNL     1       5.956   3.967  13.631  0.00  0.00    +0.000 A 
ATOM      7  C   UNL     1       5.516   3.667  14.922  0.00  0.00    +0.000 A 
ENDBRANCH   1   2
BRANCH   1   9
ATOM      8  O   UNL     1       5.448   5.538  19.248  0.00  0.00    +0.000 OA
ATOM      9  C   UNL     1       5.021   5.168  18.150  0.00  0.00    +0.000 C 
ATOM     10  N   UNL     1       3.970   5.782  17.487  0.00  0.00    +0.000 N 
ATOM     11  H   UNL     1       3.585   5.273  16.704  0.00  0.00    +0.000 HD
BRANCH  10  12
ATOM     12  C   UNL     1       3.198   6.869  17.942  0.00  0.00    +0.000 A 
ATOM     13  C   UNL     1       3.015   8.036  17.204  0.00  0.00    +0.000 A 
ATOM     14  C   UNL     1       2.269   9.093  17.722  0.00  0.00    +0.000 A 
ATOM     15  C   UNL     1       1.689   8.993  18.986  0.00  0.00    +0.000 A 
ATOM     16  C   UNL     1       1.842   7.822  19.739  0.00  0.00    +0.000 A 
ATOM     17  C   UNL     1       2.592   6.758  19.203  0.00  0.00    +0.000 A 
BRANCH  16  18
ATOM     18  C   UNL     1       1.217   7.701  21.107  0.00  0.00    +0.000 C 
ATOM     19  F   UNL     1      -0.118   7.978  21.125  0.00  0.00    +0.000 F 
ATOM     20  F   UNL     1       1.340   6.447  21.626  0.00  0.00    +0.000 F 
ATOM     21  F   UNL     1       1.781   8.538  22.021  0.00  0.00    +0.000 F 
ENDBRANCH  16  18
ENDBRANCH  10  12
ENDBRANCH   1   9
BRANCH   1  22
ATOM     22  S   UNL     1       4.599   2.426  17.400  0.00  0.00    +0.000 S 
BRANCH  22  23
ATOM     23  C   UNL     1       3.060   3.009  17.930  0.00  0.00    +0.000 A 
ATOM     24  N   UNL     1       2.064   3.372  17.155  0.00  0.00    +0.000 NA
ATOM     25  N   UNL     1       0.964   3.585  17.956  0.00  0.00    +0.000 NA
ATOM     26  C   UNL     1       1.318   3.350  19.201  0.00  0.00    +0.000 A 
ATOM     27  C   UNL     1       0.609   3.400  20.432  0.00  0.00    +0.000 A 
ATOM     28  C   UNL     1       1.244   3.076  21.577  0.00  0.00    +0.000 A 
ATOM     29  C   UNL     1       2.641   2.662  21.584  0.00  0.00    +0.000 A 
ATOM     30  C   UNL     1       3.313   2.619  20.422  0.00  0.00    +0.000 A 
ATOM     31  N   UNL     1       2.655   2.971  19.243  0.00  0.00    +0.000 N 
ENDBRANCH  22  23
ENDBRANCH   1  22
TORSDOF 6
ENDMDL
MODEL 8
REMARK VINA RESULT:      -8.5      1.680      1.837
REMARK  Name = 
REMARK  6 active torsions:
REMARK  status: ('A' for Active; 'I' for Inactive)
REMARK    1  A    between atoms: C_2  and  C_14
REMARK    2  A    between atoms: N_3  and  C_4
REMARK    3  A    between atoms: C_8  and  C_9
REMARK    4  A    between atoms: C_14  and  S_15
REMARK    5  A    between atoms: C_14  and  C_25
REMARK    6  A    between atoms: S_15  and  C_16
REMARK                            x       y       z     vdW  Elec       q    Type
REMARK                         _______ _______ _______ _____ _____    ______ ____
ROOT
ATOM      1  C   UNL     1       3.322   5.734  18.720  0.00  0.00    +0.000 C 
ENDROOT
BRANCH   1   2
ATOM      2  C   UNL     1       2.491   4.621  19.362  0.00  0.00    +0.000 A 
ATOM      3  C   UNL     1       1.551   3.906  18.599  0.00  0.00    +0.000 A 
ATOM      4  C   UNL     1       0.801   2.878  19.175  0.00  0.00    +0.000 A 
ATOM      5  C   UNL     1       0.977   2.548  20.517  0.00  0.00    +0.000 A 
ATOM      6  C   UNL     1       1.896   3.254  21.290  0.00  0.00    +0.000 A 
ATOM      7  C   UNL     1       2.644   4.286  20.720  0.00  0.00    +0.000 A 
ENDBRANCH   1   2
BRANCH   1   9
ATOM      8  O   UNL     1       2.857   8.030  18.153  0.00  0.00    +0.000 OA
ATOM      9  C   UNL     1       2.674   7.121  18.970  0.00  0.00    +0.000 C 
ATOM     10  N   UNL     1       1.934   7.269  20.133  0.00  0.00    +0.000 N 
ATOM     11  H   UNL     1       2.023   6.524  20.809  0.00  0.00    +0.000 HD
BRANCH  10  12
ATOM     12  C   UNL     1       1.315   8.443  20.602  0.00  0.00    +0.000 A 
ATOM     13  C   UNL     1       1.284   8.804  21.948  0.00  0.00    +0.000 A 
ATOM     14  C   UNL     1       0.624   9.962  22.355  0.00  0.00    +0.000 A 
ATOM     15  C   UNL     1      -0.008  10.780  21.420  0.00  0.00    +0.000 A 
ATOM     16  C   UNL     1       0.027  10.448  20.060  0.00  0.00    +0.000 A 
ATOM     17  C   UNL     1       0.701   9.281  19.657  0.00  0.00    +0.000 A 
BRANCH  16  18
ATOM     18  C   UNL     1      -0.652  11.327  19.038  0.00  0.00    +0.000 C 
ATOM     19  F   UNL     1      -1.662  12.085  19.552  0.00  0.00    +0.000 F 
ATOM     20  F   UNL     1       0.209  12.209  18.456  0.00  0.00    +0.000 F 
ATOM     21  F   UNL     1      -1.205  10.618  18.015  0.00  0.00    +0.000 F 
ENDBRANCH  16  18
ENDBRANCH  10  12
ENDBRANCH   1   9
BRANCH   1  22
ATOM     22  S   UNL     1       5.067   5.561  19.276  0.00  0.00    +0.000 S 
BRANCH  22  23
ATOM     23  C   UNL     1       5.969   5.902  17.841  0.00  0.00    +0.000 A 
ATOM     24  N   UNL     1       6.909   6.810  17.719  0.00  0.00    +0.000 NA
ATOM     25  N   UNL     1       7.507   6.634  16.490  0.00  0.00    +0.000 NA
ATOM     26  C   UNL     1       6.911   5.625  15.892  0.00  0.00    +0.000 A 
ATOM     27  C   UNL     1       7.108   4.997  14.631  0.00  0.00    +0.000 A 
ATOM     28  C   UNL     1       6.342   3.941  14.289  0.00  0.00    +0.000 A 
ATOM     29  C   UNL     1       5.323   3.416  15.187  0.00  0.00    +0.000 A 
ATOM     30  C   UNL     1       5.133   4.010  16.376  0.00  0.00    +0.000 A 
ATOM     31  N   UNL     1       5.917   5.112  16.717  0.00  0.00    +0.000 N 
ENDBRANCH  22  23
ENDBRANCH   1  22
TORSDOF 6
ENDMDL
MODEL 9
REMARK VINA RESULT:      -8.5      2.450      2.702
REMARK  Name = 
REMARK  6 active torsions:
REMARK  status: ('A' for Active; 'I' for Inactive)
REMARK    1  A    between atoms: C_2  and  C_14
REMARK    2  A    between atoms: N_3  and  C_4
REMARK    3  A    between atoms: C_8  and  C_9
REMARK    4  A    between atoms: C_14  and  S_15
REMARK    5  A    between atoms: C_14  and  C_25
REMARK    6  A    between atoms: S_15  and  C_16
REMARK                            x       y       z     vdW  Elec       q    Type
REMARK                         _______ _______ _______ _____ _____    ______ ____
ROOT
ATOM      1  C   UNL     1       3.351   5.718  18.400  0.00  0.00    +0.000 C 
ENDROOT
BRANCH   1   2
ATOM      2  C   UNL     1       2.504   4.658  19.108  0.00  0.00    +0.000 A 
ATOM      3  C   UNL     1       1.562   3.904  18.388  0.00  0.00    +0.000 A 
ATOM      4  C   UNL     1       0.797   2.924  19.025  0.00  0.00    +0.000 A 
ATOM      5  C   UNL     1       0.962   2.682  20.387  0.00  0.00    +0.000 A 
ATOM      6  C   UNL     1       1.883   3.427  21.118  0.00  0.00    +0.000 A 
ATOM      7  C   UNL     1       2.646   4.412  20.486  0.00  0.00    +0.000 A 
ENDBRANCH   1   2
BRANCH   1   9
ATOM      8  O   UNL     1       2.799   7.902  17.546  0.00  0.00    +0.000 OA
ATOM      9  C   UNL     1       2.679   7.111  18.488  0.00  0.00    +0.000 C 
ATOM     10  N   UNL     1       1.989   7.404  19.654  0.00  0.00    +0.000 N 
ATOM     11  H   UNL     1       2.129   6.762  20.421  0.00  0.00    +0.000 HD
BRANCH  10  12
ATOM     12  C   UNL     1       1.361   8.620  19.988  0.00  0.00    +0.000 A 
ATOM     13  C   UNL     1       1.286   9.704  19.117  0.00  0.00    +0.000 A 
ATOM     14  C   UNL     1       0.682  10.894  19.517  0.00  0.00    +0.000 A 
ATOM     15  C   UNL     1       0.136  11.013  20.795  0.00  0.00    +0.000 A 
ATOM     16  C   UNL     1       0.182   9.929  21.682  0.00  0.00    +0.000 A 
ATOM     17  C   UNL     1       0.789   8.730  21.265  0.00  0.00    +0.000 A 
BRANCH  16  18
ATOM     18  C   UNL     1      -0.407  10.045  23.066  0.00  0.00    +0.000 C 
ATOM     19  F   UNL     1       0.430   9.619  24.054  0.00  0.00    +0.000 F 
ATOM     20  F   UNL     1      -0.730  11.330  23.388  0.00  0.00    +0.000 F 
ATOM     21  F   UNL     1      -1.553   9.326  23.215  0.00  0.00    +0.000 F 
ENDBRANCH  16  18
ENDBRANCH  10  12
ENDBRANCH   1   9
BRANCH   1  22
ATOM     22  S   UNL     1       5.072   5.624  19.045  0.00  0.00    +0.000 S 
BRANCH  22  23
ATOM     23  C   UNL     1       6.032   5.921  17.638  0.00  0.00    +0.000 A 
ATOM     24  N   UNL     1       7.051   6.745  17.560  0.00  0.00    +0.000 NA
ATOM     25  N   UNL     1       7.659   6.549  16.340  0.00  0.00    +0.000 NA
ATOM     26  C   UNL     1       6.991   5.613  15.701  0.00  0.00    +0.000 A 
ATOM     27  C   UNL     1       7.160   5.003  14.428  0.00  0.00    +0.000 A 
ATOM     28  C   UNL     1       6.313   4.028  14.041  0.00  0.00    +0.000 A 
ATOM     29  C   UNL     1       5.231   3.572  14.903  0.00  0.00    +0.000 A 
ATOM     30  C   UNL     1       5.067   4.149  16.105  0.00  0.00    +0.000 A 
ATOM     31  N   UNL     1       5.937   5.168  16.492  0.00  0.00    +0.000 N 
ENDBRANCH  22  23
ENDBRANCH   1  22
TORSDOF 6
ENDMDL
