MODEL 1
REMARK VINA RESULT:      -9.2      0.000      0.000
REMARK  Name = 
REMARK  4 active torsions:
REMARK  status: ('A' for Active; 'I' for Inactive)
REMARK    1  A    between atoms: C_1  and  C_2
REMARK    2  A    between atoms: C_8  and  C_9
REMARK    3  A    between atoms: C_14  and  C_15
REMARK    4  A    between atoms: C_26  and  C_27
REMARK                            x       y       z     vdW  Elec       q    Type
REMARK                         _______ _______ _______ _____ _____    ______ ____
ROOT
ATOM      1  C   UNL     1       1.303   9.232  19.279  0.00  0.00    +0.000 C 
ATOM      2  O   UNL     1       2.078   9.518  18.372  0.00  0.00    +0.000 OA
ATOM      3  N   UNL     1       1.305   8.075  20.039  0.00  0.00    +0.000 N 
ATOM      4  C   UNL     1       2.213   7.077  19.825  0.00  0.00    +0.000 A 
ATOM      5  N   UNL     1       3.307   7.127  19.129  0.00  0.00    +0.000 NA
ATOM      6  C   UNL     1       3.831   5.855  18.928  0.00  0.00    +0.000 A 
ATOM      7  C   UNL     1       3.138   4.844  19.570  0.00  0.00    +0.000 A 
ATOM      8  C   UNL     1       3.251   3.364  19.515  0.00  0.00    +0.000 C 
ATOM      9  S   UNL     1       1.847   5.556  20.497  0.00  0.00    +0.000 S 
ATOM     10  H   UNL     1       0.541   7.892  20.686  0.00  0.00    +0.000 HD
ENDROOT
BRANCH   6  11
ATOM     11  C   UNL     1       4.892   5.744  17.933  0.00  0.00    +0.000 A 
ATOM     12  C   UNL     1       6.134   6.383  17.949  0.00  0.00    +0.000 A 
ATOM     13  C   UNL     1       7.016   6.229  16.857  0.00  0.00    +0.000 A 
ATOM     14  C   UNL     1       6.640   5.460  15.749  0.00  0.00    +0.000 A 
ATOM     15  C   UNL     1       5.420   4.804  15.742  0.00  0.00    +0.000 A 
ATOM     16  C   UNL     1       4.567   4.943  16.830  0.00  0.00    +0.000 A 
ATOM     17  C   UNL     1       5.009   3.883  14.643  0.00  0.00    +0.000 C 
ATOM     18  C   UNL     1       5.755   4.103  13.345  0.00  0.00    +0.000 C 
ATOM     19  C   UNL     1       7.127   4.711  13.471  0.00  0.00    +0.000 C 
ATOM     20  O   UNL     1       7.918   4.706  12.523  0.00  0.00    +0.000 OA
ATOM     21  N   UNL     1       7.470   5.352  14.635  0.00  0.00    +0.000 N 
ATOM     22  H   UNL     1       8.373   5.806  14.622  0.00  0.00    +0.000 HD
ENDBRANCH   6  11
BRANCH   1  30
ATOM     23  C   UNL     1      -2.757   9.846  15.632  0.00  0.00    +0.000 C 
ATOM     24  C   UNL     1      -2.227  10.308  16.934  0.00  0.00    +0.000 A 
ATOM     25  C   UNL     1      -2.745  11.256  17.796  0.00  0.00    +0.000 A 
ATOM     26  N   UNL     1      -1.891  11.283  18.862  0.00  0.00    +0.000 N 
ATOM     27  C   UNL     1      -1.887  12.013  20.032  0.00  0.00    +0.000 A 
ATOM     28  C   UNL     1      -0.881  11.808  20.900  0.00  0.00    +0.000 A 
ATOM     29  N   UNL     1       0.157  10.916  20.685  0.00  0.00    +0.000 NA
ATOM     30  C   UNL     1       0.161  10.217  19.573  0.00  0.00    +0.000 A 
ATOM     31  C   UNL     1      -0.894  10.378  18.600  0.00  0.00    +0.000 A 
ATOM     32  N   UNL     1      -1.058   9.775  17.438  0.00  0.00    +0.000 NA
ENDBRANCH   1  30
TORSDOF 2
ENDMDL
MODEL 2
REMARK VINA RESULT:      -8.8      2.906      9.095
REMARK  Name = 
REMARK  4 active torsions:
REMARK  status: ('A' for Active; 'I' for Inactive)
REMARK    1  A    between atoms: C_1  and  C_2
REMARK    2  A    between atoms: C_8  and  C_9
REMARK    3  A    between atoms: C_14  and  C_15
REMARK    4  A    between atoms: C_26  and  C_27
REMARK                            x       y       z     vdW  Elec       q    Type
REMARK                         _______ _______ _______ _____ _____    ______ ____
ROOT
ATOM      1  C   UNL     1       2.925   7.679  18.095  0.00  0.00    +0.000 C 
ATOM      2  O   UNL     1       2.818   8.736  17.483  0.00  0.00    +0.000 OA
ATOM      3  N   UNL     1       2.277   7.330  19.268  0.00  0.00    +0.000 N 
ATOM      4  C   UNL     1       1.424   8.189  19.901  0.00  0.00    +0.000 A 
ATOM      5  N   UNL     1       0.894   9.278  19.433  0.00  0.00    +0.000 NA
ATOM      6  C   UNL     1       0.292  10.016  20.446  0.00  0.00    +0.000 A 
ATOM      7  C   UNL     1       0.312   9.404  21.687  0.00  0.00    +0.000 A 
ATOM      8  C   UNL     1      -0.071   9.880  23.042  0.00  0.00    +0.000 C 
ATOM      9  S   UNL     1       1.049   7.836  21.523  0.00  0.00    +0.000 S 
ATOM     10  H   UNL     1       2.532   6.472  19.752  0.00  0.00    +0.000 HD
ENDROOT
BRANCH   6  11
ATOM     11  C   UNL     1      -0.091  11.382  20.109  0.00  0.00    +0.000 A 
ATOM     12  C   UNL     1      -1.379  11.860  19.853  0.00  0.00    +0.000 A 
ATOM     13  C   UNL     1      -1.562  13.202  19.456  0.00  0.00    +0.000 A 
ATOM     14  C   UNL     1      -0.459  14.048  19.294  0.00  0.00    +0.000 A 
ATOM     15  C   UNL     1       0.816  13.586  19.573  0.00  0.00    +0.000 A 
ATOM     16  C   UNL     1       0.987  12.269  19.984  0.00  0.00    +0.000 A 
ATOM     17  C   UNL     1       2.019  14.466  19.527  0.00  0.00    +0.000 C 
ATOM     18  C   UNL     1       1.835  15.715  18.691  0.00  0.00    +0.000 C 
ATOM     19  C   UNL     1       0.419  16.208  18.551  0.00  0.00    +0.000 C 
ATOM     20  O   UNL     1       0.175  17.336  18.113  0.00  0.00    +0.000 OA
ATOM     21  N   UNL     1      -0.617  15.355  18.839  0.00  0.00    +0.000 N 
ATOM     22  H   UNL     1      -1.539  15.724  18.646  0.00  0.00    +0.000 HD
ENDBRANCH   6  11
BRANCH   1  30
ATOM     23  C   UNL     1       1.712   2.329  18.357  0.00  0.00    +0.000 C 
ATOM     24  C   UNL     1       2.740   3.313  17.953  0.00  0.00    +0.000 A 
ATOM     25  C   UNL     1       3.983   3.089  17.392  0.00  0.00    +0.000 A 
ATOM     26  N   UNL     1       4.518   4.329  17.188  0.00  0.00    +0.000 N 
ATOM     27  C   UNL     1       5.718   4.748  16.652  0.00  0.00    +0.000 A 
ATOM     28  C   UNL     1       5.955   6.070  16.593  0.00  0.00    +0.000 A 
ATOM     29  N   UNL     1       5.071   7.036  17.045  0.00  0.00    +0.000 NA
ATOM     30  C   UNL     1       3.926   6.646  17.558  0.00  0.00    +0.000 A 
ATOM     31  C   UNL     1       3.600   5.242  17.644  0.00  0.00    +0.000 A 
ATOM     32  N   UNL     1       2.515   4.664  18.123  0.00  0.00    +0.000 NA
ENDBRANCH   1  30
TORSDOF 2
ENDMDL
MODEL 3
REMARK VINA RESULT:      -8.8      3.387      8.789
REMARK  Name = 
REMARK  4 active torsions:
REMARK  status: ('A' for Active; 'I' for Inactive)
REMARK    1  A    between atoms: C_1  and  C_2
REMARK    2  A    between atoms: C_8  and  C_9
REMARK    3  A    between atoms: C_14  and  C_15
REMARK    4  A    between atoms: C_26  and  C_27
REMARK                            x       y       z     vdW  Elec       q    Type
REMARK                         _______ _______ _______ _____ _____    ______ ____
ROOT
ATOM      1  C   UNL     1       2.935   7.732  18.019  0.00  0.00    +0.000 C 
ATOM      2  O   UNL     1       3.173   8.791  17.449  0.00  0.00    +0.000 OA
ATOM      3  N   UNL     1       2.067   7.537  19.080  0.00  0.00    +0.000 N 
ATOM      4  C   UNL     1       1.369   8.571  19.636  0.00  0.00    +0.000 A 
ATOM      5  N   UNL     1       1.187   9.764  19.155  0.00  0.00    +0.000 NA
ATOM      6  C   UNL     1       0.648  10.613  20.114  0.00  0.00    +0.000 A 
ATOM      7  C   UNL     1       0.348   9.999  21.317  0.00  0.00    +0.000 A 
ATOM      8  C   UNL     1      -0.091  10.535  22.632  0.00  0.00    +0.000 C 
ATOM      9  S   UNL     1       0.699   8.299  21.177  0.00  0.00    +0.000 S 
ATOM     10  H   UNL     1       2.037   6.636  19.552  0.00  0.00    +0.000 HD
ENDROOT
BRANCH   6  11
ATOM     11  C   UNL     1       0.659  12.036  19.795  0.00  0.00    +0.000 A 
ATOM     12  C   UNL     1      -0.431  12.911  19.803  0.00  0.00    +0.000 A 
ATOM     13  C   UNL     1      -0.259  14.248  19.383  0.00  0.00    +0.000 A 
ATOM     14  C   UNL     1       0.991  14.693  18.936  0.00  0.00    +0.000 A 
ATOM     15  C   UNL     1       2.079  13.836  18.954  0.00  0.00    +0.000 A 
ATOM     16  C   UNL     1       1.906  12.527  19.388  0.00  0.00    +0.000 A 
ATOM     17  C   UNL     1       3.457  14.279  18.596  0.00  0.00    +0.000 C 
ATOM     18  C   UNL     1       3.500  15.537  17.754  0.00  0.00    +0.000 C 
ATOM     19  C   UNL     1       2.324  16.465  17.902  0.00  0.00    +0.000 C 
ATOM     20  O   UNL     1       2.363  17.620  17.466  0.00  0.00    +0.000 OA
ATOM     21  N   UNL     1       1.162  15.990  18.457  0.00  0.00    +0.000 N 
ATOM     22  H   UNL     1       0.389  16.642  18.451  0.00  0.00    +0.000 HD
ENDBRANCH   6  11
BRANCH   1  30
ATOM     23  C   UNL     1       0.769   2.737  18.741  0.00  0.00    +0.000 C 
ATOM     24  C   UNL     1       1.952   3.478  18.251  0.00  0.00    +0.000 A 
ATOM     25  C   UNL     1       3.123   2.983  17.707  0.00  0.00    +0.000 A 
ATOM     26  N   UNL     1       3.871   4.083  17.397  0.00  0.00    +0.000 N 
ATOM     27  C   UNL     1       5.118   4.228  16.823  0.00  0.00    +0.000 A 
ATOM     28  C   UNL     1       5.592   5.474  16.650  0.00  0.00    +0.000 A 
ATOM     29  N   UNL     1       4.908   6.621  17.021  0.00  0.00    +0.000 NA
ATOM     30  C   UNL     1       3.721   6.492  17.569  0.00  0.00    +0.000 A 
ATOM     31  C   UNL     1       3.145   5.183  17.776  0.00  0.00    +0.000 A 
ATOM     32  N   UNL     1       1.982   4.856  18.306  0.00  0.00    +0.000 NA
ENDBRANCH   1  30
TORSDOF 2
ENDMDL
MODEL 4
REMARK VINA RESULT:      -8.7      3.699      6.565
REMARK  Name = 
REMARK  4 active torsions:
REMARK  status: ('A' for Active; 'I' for Inactive)
REMARK    1  A    between atoms: C_1  and  C_2
REMARK    2  A    between atoms: C_8  and  C_9
REMARK    3  A    between atoms: C_14  and  C_15
REMARK    4  A    between atoms: C_26  and  C_27
REMARK                            x       y       z     vdW  Elec       q    Type
REMARK                         _______ _______ _______ _____ _____    ______ ____
ROOT
ATOM      1  C   UNL     1      -3.802  11.618  18.435  0.00  0.00    +0.000 C 
ATOM      2  O   UNL     1      -3.708  10.426  18.708  0.00  0.00    +0.000 OA
ATOM      3  N   UNL     1      -2.761  12.519  18.283  0.00  0.00    +0.000 N 
ATOM      4  C   UNL     1      -1.457  12.146  18.450  0.00  0.00    +0.000 A 
ATOM      5  N   UNL     1      -0.971  10.943  18.505  0.00  0.00    +0.000 NA
ATOM      6  C   UNL     1       0.349  10.957  18.941  0.00  0.00    +0.000 A 
ATOM      7  C   UNL     1       0.873  12.224  19.133  0.00  0.00    +0.000 A 
ATOM      8  C   UNL     1       2.156  12.697  19.716  0.00  0.00    +0.000 C 
ATOM      9  S   UNL     1      -0.328  13.398  18.677  0.00  0.00    +0.000 S 
ATOM     10  H   UNL     1      -2.960  13.510  18.174  0.00  0.00    +0.000 HD
ENDROOT
BRANCH   6  11
ATOM     11  C   UNL     1       0.919   9.668  19.315  0.00  0.00    +0.000 A 
ATOM     12  C   UNL     1       0.802   9.019  20.547  0.00  0.00    +0.000 A 
ATOM     13  C   UNL     1       1.493   7.808  20.769  0.00  0.00    +0.000 A 
ATOM     14  C   UNL     1       2.313   7.269  19.771  0.00  0.00    +0.000 A 
ATOM     15  C   UNL     1       2.409   7.895  18.540  0.00  0.00    +0.000 A 
ATOM     16  C   UNL     1       1.710   9.076  18.321  0.00  0.00    +0.000 A 
ATOM     17  C   UNL     1       3.177   7.315  17.401  0.00  0.00    +0.000 C 
ATOM     18  C   UNL     1       4.221   6.301  17.815  0.00  0.00    +0.000 C 
ATOM     19  C   UNL     1       3.959   5.582  19.113  0.00  0.00    +0.000 C 
ATOM     20  O   UNL     1       4.597   4.572  19.424  0.00  0.00    +0.000 OA
ATOM     21  N   UNL     1       3.052   6.110  19.997  0.00  0.00    +0.000 N 
ATOM     22  H   UNL     1       2.985   5.622  20.881  0.00  0.00    +0.000 HD
ENDBRANCH   6  11
BRANCH   1  30
ATOM     23  C   UNL     1      -6.597  12.929  22.977  0.00  0.00    +0.000 C 
ATOM     24  C   UNL     1      -6.653  12.882  21.500  0.00  0.00    +0.000 A 
ATOM     25  C   UNL     1      -7.685  13.250  20.657  0.00  0.00    +0.000 A 
ATOM     26  N   UNL     1      -7.215  13.036  19.393  0.00  0.00    +0.000 N 
ATOM     27  C   UNL     1      -7.777  13.227  18.147  0.00  0.00    +0.000 A 
ATOM     28  C   UNL     1      -7.041  12.909  17.068  0.00  0.00    +0.000 A 
ATOM     29  N   UNL     1      -5.756  12.394  17.131  0.00  0.00    +0.000 NA
ATOM     30  C   UNL     1      -5.214  12.209  18.313  0.00  0.00    +0.000 A 
ATOM     31  C   UNL     1      -5.943  12.538  19.516  0.00  0.00    +0.000 A 
ATOM     32  N   UNL     1      -5.571  12.421  20.777  0.00  0.00    +0.000 NA
ENDBRANCH   1  30
TORSDOF 2
ENDMDL
MODEL 5
REMARK VINA RESULT:      -8.7      3.372      8.879
REMARK  Name = 
REMARK  4 active torsions:
REMARK  status: ('A' for Active; 'I' for Inactive)
REMARK    1  A    between atoms: C_1  and  C_2
REMARK    2  A    between atoms: C_8  and  C_9
REMARK    3  A    between atoms: C_14  and  C_15
REMARK    4  A    between atoms: C_26  and  C_27
REMARK                            x       y       z     vdW  Elec       q    Type
REMARK                         _______ _______ _______ _____ _____    ______ ____
ROOT
ATOM      1  C   UNL     1       2.687   7.792  18.480  0.00  0.00    +0.000 C 
ATOM      2  O   UNL     1       3.040   8.802  17.881  0.00  0.00    +0.000 OA
ATOM      3  N   UNL     1       1.725   7.710  19.473  0.00  0.00    +0.000 N 
ATOM      4  C   UNL     1       1.055   8.814  19.917  0.00  0.00    +0.000 A 
ATOM      5  N   UNL     1       0.993   9.987  19.364  0.00  0.00    +0.000 NA
ATOM      6  C   UNL     1       0.436  10.920  20.232  0.00  0.00    +0.000 A 
ATOM      7  C   UNL     1       0.000  10.392  21.435  0.00  0.00    +0.000 A 
ATOM      8  C   UNL     1      -0.507  11.026  22.679  0.00  0.00    +0.000 C 
ATOM      9  S   UNL     1       0.247   8.669  21.408  0.00  0.00    +0.000 S 
ATOM     10  H   UNL     1       1.598   6.840  19.985  0.00  0.00    +0.000 HD
ENDROOT
BRANCH   6  11
ATOM     11  C   UNL     1       0.567  12.320  19.845  0.00  0.00    +0.000 A 
ATOM     12  C   UNL     1      -0.447  13.281  19.800  0.00  0.00    +0.000 A 
ATOM     13  C   UNL     1      -0.162  14.578  19.318  0.00  0.00    +0.000 A 
ATOM     14  C   UNL     1       1.124  14.895  18.863  0.00  0.00    +0.000 A 
ATOM     15  C   UNL     1       2.136  13.953  18.932  0.00  0.00    +0.000 A 
ATOM     16  C   UNL     1       1.853  12.686  19.427  0.00  0.00    +0.000 A 
ATOM     17  C   UNL     1       3.548  14.262  18.566  0.00  0.00    +0.000 C 
ATOM     18  C   UNL     1       3.700  15.470  17.666  0.00  0.00    +0.000 C 
ATOM     19  C   UNL     1       2.604  16.499  17.757  0.00  0.00    +0.000 C 
ATOM     20  O   UNL     1       2.742  17.623  17.267  0.00  0.00    +0.000 OA
ATOM     21  N   UNL     1       1.405  16.148  18.323  0.00  0.00    +0.000 N 
ATOM     22  H   UNL     1       0.688  16.861  18.279  0.00  0.00    +0.000 HD
ENDBRANCH   6  11
BRANCH   1  30
ATOM     23  C   UNL     1       1.781   3.342  21.570  0.00  0.00    +0.000 C 
ATOM     24  C   UNL     1       2.551   3.879  20.426  0.00  0.00    +0.000 A 
ATOM     25  C   UNL     1       3.483   3.239  19.630  0.00  0.00    +0.000 A 
ATOM     26  N   UNL     1       3.871   4.169  18.708  0.00  0.00    +0.000 N 
ATOM     27  C   UNL     1       4.760   4.118  17.654  0.00  0.00    +0.000 A 
ATOM     28  C   UNL     1       4.928   5.230  16.917  0.00  0.00    +0.000 A 
ATOM     29  N   UNL     1       4.270   6.425  17.157  0.00  0.00    +0.000 NA
ATOM     30  C   UNL     1       3.422   6.482  18.159  0.00  0.00    +0.000 A 
ATOM     31  C   UNL     1       3.184   5.323  18.987  0.00  0.00    +0.000 A 
ATOM     32  N   UNL     1       2.382   5.189  20.027  0.00  0.00    +0.000 NA
ENDBRANCH   1  30
TORSDOF 2
ENDMDL
MODEL 6
REMARK VINA RESULT:      -8.6      4.095      6.699
REMARK  Name = 
REMARK  4 active torsions:
REMARK  status: ('A' for Active; 'I' for Inactive)
REMARK    1  A    between atoms: C_1  and  C_2
REMARK    2  A    between atoms: C_8  and  C_9
REMARK    3  A    between atoms: C_14  and  C_15
REMARK    4  A    between atoms: C_26  and  C_27
REMARK                            x       y       z     vdW  Elec       q    Type
REMARK                         _______ _______ _______ _____ _____    ______ ____
ROOT
ATOM      1  C   UNL     1      -3.596  11.645  18.561  0.00  0.00    +0.000 C 
ATOM      2  O   UNL     1      -3.351  10.474  18.292  0.00  0.00    +0.000 OA
ATOM      3  N   UNL     1      -2.680  12.629  18.890  0.00  0.00    +0.000 N 
ATOM      4  C   UNL     1      -1.341  12.368  18.970  0.00  0.00    +0.000 A 
ATOM      5  N   UNL     1      -0.703  11.327  18.529  0.00  0.00    +0.000 NA
ATOM      6  C   UNL     1       0.598  11.294  19.019  0.00  0.00    +0.000 A 
ATOM      7  C   UNL     1       0.949  12.394  19.780  0.00  0.00    +0.000 A 
ATOM      8  C   UNL     1       2.151  12.700  20.600  0.00  0.00    +0.000 C 
ATOM      9  S   UNL     1      -0.388  13.509  19.799  0.00  0.00    +0.000 S 
ATOM     10  H   UNL     1      -3.005  13.538  19.211  0.00  0.00    +0.000 HD
ENDROOT
BRANCH   6  11
ATOM     11  C   UNL     1       1.326  10.044  18.833  0.00  0.00    +0.000 A 
ATOM     12  C   UNL     1       2.095   9.671  17.726  0.00  0.00    +0.000 A 
ATOM     13  C   UNL     1       2.666   8.381  17.673  0.00  0.00    +0.000 A 
ATOM     14  C   UNL     1       2.446   7.467  18.710  0.00  0.00    +0.000 A 
ATOM     15  C   UNL     1       1.708   7.843  19.820  0.00  0.00    +0.000 A 
ATOM     16  C   UNL     1       1.166   9.121  19.875  0.00  0.00    +0.000 A 
ATOM     17  C   UNL     1       1.530   6.955  21.005  0.00  0.00    +0.000 C 
ATOM     18  C   UNL     1       1.765   5.488  20.715  0.00  0.00    +0.000 C 
ATOM     19  C   UNL     1       2.684   5.186  19.561  0.00  0.00    +0.000 C 
ATOM     20  O   UNL     1       3.143   4.053  19.390  0.00  0.00    +0.000 OA
ATOM     21  N   UNL     1       2.948   6.169  18.642  0.00  0.00    +0.000 N 
ATOM     22  H   UNL     1       3.506   5.875  17.851  0.00  0.00    +0.000 HD
ENDBRANCH   6  11
BRANCH   1  30
ATOM     23  C   UNL     1      -5.871  13.007  23.370  0.00  0.00    +0.000 C 
ATOM     24  C   UNL     1      -6.125  12.837  21.923  0.00  0.00    +0.000 A 
ATOM     25  C   UNL     1      -7.300  13.022  21.219  0.00  0.00    +0.000 A 
ATOM     26  N   UNL     1      -6.987  12.760  19.916  0.00  0.00    +0.000 N 
ATOM     27  C   UNL     1      -7.735  12.788  18.756  0.00  0.00    +0.000 A 
ATOM     28  C   UNL     1      -7.123  12.466  17.603  0.00  0.00    +0.000 A 
ATOM     29  N   UNL     1      -5.790  12.098  17.511  0.00  0.00    +0.000 NA
ATOM     30  C   UNL     1      -5.071  12.069  18.610  0.00  0.00    +0.000 A 
ATOM     31  C   UNL     1      -5.660  12.413  19.883  0.00  0.00    +0.000 A 
ATOM     32  N   UNL     1      -5.107  12.438  21.080  0.00  0.00    +0.000 NA
ENDBRANCH   1  30
TORSDOF 2
ENDMDL
MODEL 7
REMARK VINA RESULT:      -8.6      3.550      5.560
REMARK  Name = 
REMARK  4 active torsions:
REMARK  status: ('A' for Active; 'I' for Inactive)
REMARK    1  A    between atoms: C_1  and  C_2
REMARK    2  A    between atoms: C_8  and  C_9
REMARK    3  A    between atoms: C_14  and  C_15
REMARK    4  A    between atoms: C_26  and  C_27
REMARK                            x       y       z     vdW  Elec       q    Type
REMARK                         _______ _______ _______ _____ _____    ______ ____
ROOT
ATOM      1  C   UNL     1      -2.482  10.860  18.429  0.00  0.00    +0.000 C 
ATOM      2  O   UNL     1      -2.170   9.923  17.702  0.00  0.00    +0.000 OA
ATOM      3  N   UNL     1      -1.797  11.306  19.546  0.00  0.00    +0.000 N 
ATOM      4  C   UNL     1      -0.653  10.697  19.979  0.00  0.00    +0.000 A 
ATOM      5  N   UNL     1       0.090   9.846  19.340  0.00  0.00    +0.000 NA
ATOM      6  C   UNL     1       1.017   9.254  20.191  0.00  0.00    +0.000 A 
ATOM      7  C   UNL     1       1.004   9.750  21.482  0.00  0.00    +0.000 A 
ATOM      8  C   UNL     1       1.698   9.321  22.725  0.00  0.00    +0.000 C 
ATOM      9  S   UNL     1      -0.162  11.039  21.573  0.00  0.00    +0.000 S 
ATOM     10  H   UNL     1      -2.211  12.018  20.144  0.00  0.00    +0.000 HD
ENDROOT
BRANCH   6  11
ATOM     11  C   UNL     1       1.717   8.086  19.670  0.00  0.00    +0.000 A 
ATOM     12  C   UNL     1       2.399   7.983  18.454  0.00  0.00    +0.000 A 
ATOM     13  C   UNL     1       2.953   6.744  18.064  0.00  0.00    +0.000 A 
ATOM     14  C   UNL     1       2.800   5.614  18.877  0.00  0.00    +0.000 A 
ATOM     15  C   UNL     1       2.148   5.720  20.094  0.00  0.00    +0.000 A 
ATOM     16  C   UNL     1       1.624   6.947  20.481  0.00  0.00    +0.000 A 
ATOM     17  C   UNL     1       2.049   4.582  21.053  0.00  0.00    +0.000 C 
ATOM     18  C   UNL     1       2.247   3.223  20.418  0.00  0.00    +0.000 C 
ATOM     19  C   UNL     1       3.077   3.200  19.161  0.00  0.00    +0.000 C 
ATOM     20  O   UNL     1       3.511   2.140  18.701  0.00  0.00    +0.000 OA
ATOM     21  N   UNL     1       3.283   4.371  18.476  0.00  0.00    +0.000 N 
ATOM     22  H   UNL     1       3.779   4.270  17.600  0.00  0.00    +0.000 HD
ENDBRANCH   6  11
BRANCH   1  30
ATOM     23  C   UNL     1      -5.183  13.387  22.488  0.00  0.00    +0.000 C 
ATOM     24  C   UNL     1      -5.211  13.053  21.047  0.00  0.00    +0.000 A 
ATOM     25  C   UNL     1      -6.167  13.369  20.101  0.00  0.00    +0.000 A 
ATOM     26  N   UNL     1      -5.701  12.851  18.926  0.00  0.00    +0.000 N 
ATOM     27  C   UNL     1      -6.206  12.856  17.642  0.00  0.00    +0.000 A 
ATOM     28  C   UNL     1      -5.494  12.241  16.682  0.00  0.00    +0.000 A 
ATOM     29  N   UNL     1      -4.289  11.594  16.906  0.00  0.00    +0.000 NA
ATOM     30  C   UNL     1      -3.802  11.584  18.126  0.00  0.00    +0.000 A 
ATOM     31  C   UNL     1      -4.508  12.234  19.206  0.00  0.00    +0.000 A 
ATOM     32  N   UNL     1      -4.183  12.327  20.481  0.00  0.00    +0.000 NA
ENDBRANCH   1  30
TORSDOF 2
ENDMDL
MODEL 8
REMARK VINA RESULT:      -8.5      1.333      1.737
REMARK  Name = 
REMARK  4 active torsions:
REMARK  status: ('A' for Active; 'I' for Inactive)
REMARK    1  A    between atoms: C_1  and  C_2
REMARK    2  A    between atoms: C_8  and  C_9
REMARK    3  A    between atoms: C_14  and  C_15
REMARK    4  A    between atoms: C_26  and  C_27
REMARK                            x       y       z     vdW  Elec       q    Type
REMARK                         _______ _______ _______ _____ _____    ______ ____
ROOT
ATOM      1  C   UNL     1       1.586   8.184  20.734  0.00  0.00    +0.000 C 
ATOM      2  O   UNL     1       2.453   8.701  20.037  0.00  0.00    +0.000 OA
ATOM      3  N   UNL     1       1.368   6.829  20.918  0.00  0.00    +0.000 N 
ATOM      4  C   UNL     1       2.132   5.886  20.291  0.00  0.00    +0.000 A 
ATOM      5  N   UNL     1       3.267   6.053  19.682  0.00  0.00    +0.000 NA
ATOM      6  C   UNL     1       3.611   4.923  18.949  0.00  0.00    +0.000 A 
ATOM      7  C   UNL     1       2.736   3.861  19.093  0.00  0.00    +0.000 A 
ATOM      8  C   UNL     1       2.635   2.549  18.402  0.00  0.00    +0.000 C 
ATOM      9  S   UNL     1       1.504   4.305  20.240  0.00  0.00    +0.000 S 
ATOM     10  H   UNL     1       0.544   6.512  21.424  0.00  0.00    +0.000 HD
ENDROOT
BRANCH   6  11
ATOM     11  C   UNL     1       4.708   5.078  18.001  0.00  0.00    +0.000 A 
ATOM     12  C   UNL     1       5.843   5.881  18.147  0.00  0.00    +0.000 A 
ATOM     13  C   UNL     1       6.772   5.981  17.088  0.00  0.00    +0.000 A 
ATOM     14  C   UNL     1       6.549   5.298  15.886  0.00  0.00    +0.000 A 
ATOM     15  C   UNL     1       5.440   4.480  15.749  0.00  0.00    +0.000 A 
ATOM     16  C   UNL     1       4.541   4.372  16.803  0.00  0.00    +0.000 A 
ATOM     17  C   UNL     1       5.204   3.643  14.538  0.00  0.00    +0.000 C 
ATOM     18  C   UNL     1       5.951   4.115  13.309  0.00  0.00    +0.000 C 
ATOM     19  C   UNL     1       7.215   4.893  13.567  0.00  0.00    +0.000 C 
ATOM     20  O   UNL     1       8.028   5.108  12.664  0.00  0.00    +0.000 OA
ATOM     21  N   UNL     1       7.421   5.438  14.809  0.00  0.00    +0.000 N 
ATOM     22  H   UNL     1       8.249   6.014  14.889  0.00  0.00    +0.000 HD
ENDBRANCH   6  11
BRANCH   1  30
ATOM     23  C   UNL     1      -1.424  11.654  17.723  0.00  0.00    +0.000 C 
ATOM     24  C   UNL     1      -1.124  11.201  19.099  0.00  0.00    +0.000 A 
ATOM     25  C   UNL     1      -1.656  11.645  20.295  0.00  0.00    +0.000 A 
ATOM     26  N   UNL     1      -1.062  10.884  21.261  0.00  0.00    +0.000 N 
ATOM     27  C   UNL     1      -1.196  10.854  22.634  0.00  0.00    +0.000 A 
ATOM     28  C   UNL     1      -0.450   9.970  23.321  0.00  0.00    +0.000 A 
ATOM     29  N   UNL     1       0.450   9.096  22.734  0.00  0.00    +0.000 NA
ATOM     30  C   UNL     1       0.583   9.118  21.428  0.00  0.00    +0.000 A 
ATOM     31  C   UNL     1      -0.193  10.034  20.625  0.00  0.00    +0.000 A 
ATOM     32  N   UNL     1      -0.195  10.204  19.317  0.00  0.00    +0.000 NA
ENDBRANCH   1  30
TORSDOF 2
ENDMDL
MODEL 9
REMARK VINA RESULT:      -8.4      3.169     10.021
REMARK  Name = 
REMARK  4 active torsions:
REMARK  status: ('A' for Active; 'I' for Inactive)
REMARK    1  A    between atoms: C_1  and  C_2
REMARK    2  A    between atoms: C_8  and  C_9
REMARK    3  A    between atoms: C_14  and  C_15
REMARK    4  A    between atoms: C_26  and  C_27
REMARK                            x       y       z     vdW  Elec       q    Type
REMARK                         _______ _______ _______ _____ _____    ______ ____
ROOT
ATOM      1  C   UNL     1       2.134   6.030  19.797  0.00  0.00    +0.000 C 
ATOM      2  O   UNL     1       1.452   6.049  20.817  0.00  0.00    +0.000 OA
ATOM      3  N   UNL     1       2.423   7.105  18.973  0.00  0.00    +0.000 N 
ATOM      4  C   UNL     1       1.933   8.355  19.224  0.00  0.00    +0.000 A 
ATOM      5  N   UNL     1       1.387   8.796  20.316  0.00  0.00    +0.000 NA
ATOM      6  C   UNL     1       0.781  10.030  20.109  0.00  0.00    +0.000 A 
ATOM      7  C   UNL     1       0.962  10.549  18.839  0.00  0.00    +0.000 A 
ATOM      8  C   UNL     1       0.385  11.734  18.153  0.00  0.00    +0.000 C 
ATOM      9  S   UNL     1       1.981   9.466  17.935  0.00  0.00    +0.000 S 
ATOM     10  H   UNL     1       2.900   6.950  18.088  0.00  0.00    +0.000 HD
ENDROOT
BRANCH   6  11
ATOM     11  C   UNL     1      -0.103  10.500  21.170  0.00  0.00    +0.000 A 
ATOM     12  C   UNL     1      -0.187  10.013  22.477  0.00  0.00    +0.000 A 
ATOM     13  C   UNL     1      -1.164  10.530  23.355  0.00  0.00    +0.000 A 
ATOM     14  C   UNL     1      -2.063  11.509  22.915  0.00  0.00    +0.000 A 
ATOM     15  C   UNL     1      -1.964  12.013  21.629  0.00  0.00    +0.000 A 
ATOM     16  C   UNL     1      -0.987  11.514  20.777  0.00  0.00    +0.000 A 
ATOM     17  C   UNL     1      -2.818  13.132  21.136  0.00  0.00    +0.000 C 
ATOM     18  C   UNL     1      -4.094  13.327  21.928  0.00  0.00    +0.000 C 
ATOM     19  C   UNL     1      -4.057  12.856  23.358  0.00  0.00    +0.000 C 
ATOM     20  O   UNL     1      -4.936  13.184  24.161  0.00  0.00    +0.000 OA
ATOM     21  N   UNL     1      -3.074  11.982  23.749  0.00  0.00    +0.000 N 
ATOM     22  H   UNL     1      -3.157  11.645  24.699  0.00  0.00    +0.000 HD
ENDBRANCH   6  11
BRANCH   1  30
ATOM     23  C   UNL     1       5.527   5.796  15.486  0.00  0.00    +0.000 C 
ATOM     24  C   UNL     1       4.810   4.992  16.500  0.00  0.00    +0.000 A 
ATOM     25  C   UNL     1       4.803   3.621  16.675  0.00  0.00    +0.000 A 
ATOM     26  N   UNL     1       4.008   3.399  17.763  0.00  0.00    +0.000 N 
ATOM     27  C   UNL     1       3.634   2.245  18.421  0.00  0.00    +0.000 A 
ATOM     28  C   UNL     1       2.818   2.361  19.483  0.00  0.00    +0.000 A 
ATOM     29  N   UNL     1       2.324   3.568  19.951  0.00  0.00    +0.000 NA
ATOM     30  C   UNL     1       2.675   4.671  19.331  0.00  0.00    +0.000 A 
ATOM     31  C   UNL     1       3.557   4.623  18.188  0.00  0.00    +0.000 A 
ATOM     32  N   UNL     1       4.013   5.610  17.442  0.00  0.00    +0.000 NA
ENDBRANCH   1  30
TORSDOF 2
ENDMDL
