MODEL 1
REMARK VINA RESULT:      -8.3      0.000      0.000
REMARK  Name = 
REMARK  5 active torsions:
REMARK  status: ('A' for Active; 'I' for Inactive)
REMARK    1  A    between atoms: C_2  and  C_20
REMARK    2  A    between atoms: N_3  and  C_4
REMARK    3  A    between atoms: C_4  and  C_5
REMARK    4  A    between atoms: C_4  and  C_11
REMARK    5  A    between atoms: C_25  and  O_26
REMARK                            x       y       z     vdW  Elec       q    Type
REMARK                         _______ _______ _______ _____ _____    ______ ____
ROOT
ATOM      1  C   UNL     1       3.028   6.323  19.318  0.00  0.00    +0.000 C 
ENDROOT
BRANCH   1   2
ATOM      2  C   UNL     1       4.057   6.212  18.187  0.00  0.00    +0.000 A 
ATOM      3  C   UNL     1       4.006   7.145  17.130  0.00  0.00    +0.000 A 
ATOM      4  C   UNL     1       4.799   7.017  15.985  0.00  0.00    +0.000 A 
ATOM      5  C   UNL     1       5.720   5.975  15.992  0.00  0.00    +0.000 A 
ATOM      6  N   UNL     1       6.549   5.446  15.038  0.00  0.00    +0.000 N 
ATOM      7  C   UNL     1       7.484   4.695  15.687  0.00  0.00    +0.000 A 
ATOM      8  N   UNL     1       7.077   4.396  16.902  0.00  0.00    +0.000 NA
ATOM      9  C   UNL     1       5.946   5.156  17.091  0.00  0.00    +0.000 A 
ATOM     10  C   UNL     1       5.064   5.218  18.176  0.00  0.00    +0.000 A 
ATOM     11  H   UNL     1       6.449   5.550  14.037  0.00  0.00    +0.000 HD
ENDBRANCH   1   2
BRANCH   1  12
ATOM     12  C   UNL     1       2.235   5.066  19.602  0.00  0.00    +0.000 A 
ATOM     13  C   UNL     1       2.060   4.537  20.890  0.00  0.00    +0.000 A 
ATOM     14  C   UNL     1       1.312   3.375  21.076  0.00  0.00    +0.000 A 
ATOM     15  C   UNL     1       0.755   2.715  19.983  0.00  0.00    +0.000 A 
ATOM     16  C   UNL     1       0.947   3.210  18.696  0.00  0.00    +0.000 A 
ATOM     17  C   UNL     1       1.689   4.377  18.503  0.00  0.00    +0.000 A 
ENDBRANCH   1  12
BRANCH   1  20
ATOM     18  O   UNL     1       1.906   8.012  21.331  0.00  0.00    +0.000 OA
ATOM     19  C   UNL     1       1.664   8.234  20.145  0.00  0.00    +0.000 C 
ATOM     20  N   UNL     1       2.144   7.457  19.123  0.00  0.00    +0.000 N 
ATOM     21  H   UNL     1       1.899   7.696  18.166  0.00  0.00    +0.000 HD
BRANCH  19  22
ATOM     22  C   UNL     1       0.807   9.385  19.772  0.00  0.00    +0.000 A 
ATOM     23  C   UNL     1      -0.146   9.838  20.675  0.00  0.00    +0.000 A 
ATOM     24  C   UNL     1      -0.967  10.924  20.345  0.00  0.00    +0.000 A 
ATOM     25  C   UNL     1      -0.803  11.522  19.102  0.00  0.00    +0.000 A 
ATOM     26  N   UNL     1       0.107  11.111  18.191  0.00  0.00    +0.000 NA
ATOM     27  C   UNL     1       0.879  10.065  18.563  0.00  0.00    +0.000 A 
BRANCH  27  28
ATOM     28  O   UNL     1       1.768   9.732  17.587  0.00  0.00    +0.000 OA
ATOM     29  H   UNL     1       1.733  10.545  17.054  0.00  0.00    +0.000 HD
ENDBRANCH  27  28
ENDBRANCH  19  22
ENDBRANCH   1  20
TORSDOF 5
ENDMDL
MODEL 2
REMARK VINA RESULT:      -8.2      1.456      2.136
REMARK  Name = 
REMARK  5 active torsions:
REMARK  status: ('A' for Active; 'I' for Inactive)
REMARK    1  A    between atoms: C_2  and  C_20
REMARK    2  A    between atoms: N_3  and  C_4
REMARK    3  A    between atoms: C_4  and  C_5
REMARK    4  A    between atoms: C_4  and  C_11
REMARK    5  A    between atoms: C_25  and  O_26
REMARK                            x       y       z     vdW  Elec       q    Type
REMARK                         _______ _______ _______ _____ _____    ______ ____
ROOT
ATOM      1  C   UNL     1       3.594   5.551  19.250  0.00  0.00    +0.000 C 
ENDROOT
BRANCH   1   2
ATOM      2  C   UNL     1       4.723   5.343  18.232  0.00  0.00    +0.000 A 
ATOM      3  C   UNL     1       6.053   5.285  18.698  0.00  0.00    +0.000 A 
ATOM      4  C   UNL     1       7.147   5.262  17.826  0.00  0.00    +0.000 A 
ATOM      5  C   UNL     1       6.846   5.191  16.470  0.00  0.00    +0.000 A 
ATOM      6  N   UNL     1       7.604   5.291  15.333  0.00  0.00    +0.000 N 
ATOM      7  C   UNL     1       6.862   4.782  14.307  0.00  0.00    +0.000 A 
ATOM      8  N   UNL     1       5.587   4.742  14.632  0.00  0.00    +0.000 NA
ATOM      9  C   UNL     1       5.557   5.042  15.974  0.00  0.00    +0.000 A 
ATOM     10  C   UNL     1       4.474   5.192  16.848  0.00  0.00    +0.000 A 
ATOM     11  H   UNL     1       8.519   5.714  15.261  0.00  0.00    +0.000 HD
ENDBRANCH   1   2
BRANCH   1  12
ATOM     12  C   UNL     1       2.617   4.402  19.380  0.00  0.00    +0.000 A 
ATOM     13  C   UNL     1       1.682   4.067  18.388  0.00  0.00    +0.000 A 
ATOM     14  C   UNL     1       0.814   2.993  18.577  0.00  0.00    +0.000 A 
ATOM     15  C   UNL     1       0.850   2.260  19.761  0.00  0.00    +0.000 A 
ATOM     16  C   UNL     1       1.749   2.601  20.768  0.00  0.00    +0.000 A 
ATOM     17  C   UNL     1       2.626   3.672  20.583  0.00  0.00    +0.000 A 
ENDBRANCH   1  12
BRANCH   1  20
ATOM     18  O   UNL     1       1.771   6.866  21.012  0.00  0.00    +0.000 OA
ATOM     19  C   UNL     1       2.047   7.379  19.928  0.00  0.00    +0.000 C 
ATOM     20  N   UNL     1       2.894   6.800  19.019  0.00  0.00    +0.000 N 
ATOM     21  H   UNL     1       3.074   7.278  18.140  0.00  0.00    +0.000 HD
BRANCH  19  22
ATOM     22  C   UNL     1       1.446   8.682  19.556  0.00  0.00    +0.000 A 
ATOM     23  C   UNL     1       1.739   9.232  18.315  0.00  0.00    +0.000 A 
ATOM     24  C   UNL     1       1.183  10.463  17.942  0.00  0.00    +0.000 A 
ATOM     25  C   UNL     1       0.346  11.109  18.843  0.00  0.00    +0.000 A 
ATOM     26  N   UNL     1       0.038  10.614  20.063  0.00  0.00    +0.000 NA
ATOM     27  C   UNL     1       0.595   9.420  20.369  0.00  0.00    +0.000 A 
BRANCH  27  28
ATOM     28  O   UNL     1       0.220   9.001  21.609  0.00  0.00    +0.000 OA
ATOM     29  H   UNL     1       0.996   9.293  22.118  0.00  0.00    +0.000 HD
ENDBRANCH  27  28
ENDBRANCH  19  22
ENDBRANCH   1  20
TORSDOF 5
ENDMDL
MODEL 3
REMARK VINA RESULT:      -8.2      0.914      1.327
REMARK  Name = 
REMARK  5 active torsions:
REMARK  status: ('A' for Active; 'I' for Inactive)
REMARK    1  A    between atoms: C_2  and  C_20
REMARK    2  A    between atoms: N_3  and  C_4
REMARK    3  A    between atoms: C_4  and  C_5
REMARK    4  A    between atoms: C_4  and  C_11
REMARK    5  A    between atoms: C_25  and  O_26
REMARK                            x       y       z     vdW  Elec       q    Type
REMARK                         _______ _______ _______ _____ _____    ______ ____
ROOT
ATOM      1  C   UNL     1       3.377   5.773  19.494  0.00  0.00    +0.000 C 
ENDROOT
BRANCH   1   2
ATOM      2  C   UNL     1       4.534   5.552  18.512  0.00  0.00    +0.000 A 
ATOM      3  C   UNL     1       5.833   5.360  19.026  0.00  0.00    +0.000 A 
ATOM      4  C   UNL     1       6.962   5.313  18.200  0.00  0.00    +0.000 A 
ATOM      5  C   UNL     1       6.720   5.361  16.832  0.00  0.00    +0.000 A 
ATOM      6  N   UNL     1       7.535   5.482  15.737  0.00  0.00    +0.000 N 
ATOM      7  C   UNL     1       6.806   5.104  14.647  0.00  0.00    +0.000 A 
ATOM      8  N   UNL     1       5.518   5.139  14.915  0.00  0.00    +0.000 NA
ATOM      9  C   UNL     1       5.447   5.346  16.274  0.00  0.00    +0.000 A 
ATOM     10  C   UNL     1       4.339   5.517  17.111  0.00  0.00    +0.000 A 
ATOM     11  H   UNL     1       8.481   5.838  15.733  0.00  0.00    +0.000 HD
ENDBRANCH   1   2
BRANCH   1  12
ATOM     12  C   UNL     1       2.450   4.592  19.684  0.00  0.00    +0.000 A 
ATOM     13  C   UNL     1       2.258   3.951  20.917  0.00  0.00    +0.000 A 
ATOM     14  C   UNL     1       1.384   2.870  21.017  0.00  0.00    +0.000 A 
ATOM     15  C   UNL     1       0.713   2.401  19.888  0.00  0.00    +0.000 A 
ATOM     16  C   UNL     1       0.919   3.006  18.652  0.00  0.00    +0.000 A 
ATOM     17  C   UNL     1       1.788   4.094  18.546  0.00  0.00    +0.000 A 
ENDBRANCH   1  12
BRANCH   1  20
ATOM     18  O   UNL     1       1.783   7.352  21.264  0.00  0.00    +0.000 OA
ATOM     19  C   UNL     1       1.900   7.687  20.085  0.00  0.00    +0.000 C 
ATOM     20  N   UNL     1       2.626   6.971  19.170  0.00  0.00    +0.000 N 
ATOM     21  H   UNL     1       2.676   7.305  18.211  0.00  0.00    +0.000 HD
BRANCH  19  22
ATOM     22  C   UNL     1       1.227   8.916  19.600  0.00  0.00    +0.000 A 
ATOM     23  C   UNL     1       0.321   9.562  20.432  0.00  0.00    +0.000 A 
ATOM     24  C   UNL     1      -0.328  10.725  19.995  0.00  0.00    +0.000 A 
ATOM     25  C   UNL     1      -0.044  11.201  18.722  0.00  0.00    +0.000 A 
ATOM     26  N   UNL     1       0.825  10.602  17.878  0.00  0.00    +0.000 NA
ATOM     27  C   UNL     1       1.430   9.489  18.351  0.00  0.00    +0.000 A 
BRANCH  27  28
ATOM     28  O   UNL     1       2.291   8.964  17.436  0.00  0.00    +0.000 OA
ATOM     29  H   UNL     1       3.135   9.167  17.876  0.00  0.00    +0.000 HD
ENDBRANCH  27  28
ENDBRANCH  19  22
ENDBRANCH   1  20
TORSDOF 5
ENDMDL
MODEL 4
REMARK VINA RESULT:      -8.2      1.028      1.287
REMARK  Name = 
REMARK  5 active torsions:
REMARK  status: ('A' for Active; 'I' for Inactive)
REMARK    1  A    between atoms: C_2  and  C_20
REMARK    2  A    between atoms: N_3  and  C_4
REMARK    3  A    between atoms: C_4  and  C_5
REMARK    4  A    between atoms: C_4  and  C_11
REMARK    5  A    between atoms: C_25  and  O_26
REMARK                            x       y       z     vdW  Elec       q    Type
REMARK                         _______ _______ _______ _____ _____    ______ ____
ROOT
ATOM      1  C   UNL     1       3.060   6.304  19.422  0.00  0.00    +0.000 C 
ENDROOT
BRANCH   1   2
ATOM      2  C   UNL     1       4.071   6.199  18.274  0.00  0.00    +0.000 A 
ATOM      3  C   UNL     1       3.995   7.128  17.216  0.00  0.00    +0.000 A 
ATOM      4  C   UNL     1       4.770   7.004  16.058  0.00  0.00    +0.000 A 
ATOM      5  C   UNL     1       5.700   5.971  16.053  0.00  0.00    +0.000 A 
ATOM      6  N   UNL     1       6.517   5.446  15.086  0.00  0.00    +0.000 N 
ATOM      7  C   UNL     1       7.470   4.705  15.722  0.00  0.00    +0.000 A 
ATOM      8  N   UNL     1       7.086   4.406  16.944  0.00  0.00    +0.000 NA
ATOM      9  C   UNL     1       5.952   5.156  17.150  0.00  0.00    +0.000 A 
ATOM     10  C   UNL     1       5.087   5.214  18.249  0.00  0.00    +0.000 A 
ATOM     11  H   UNL     1       6.401   5.546  14.087  0.00  0.00    +0.000 HD
ENDBRANCH   1   2
BRANCH   1  12
ATOM     12  C   UNL     1       2.262   5.049  19.703  0.00  0.00    +0.000 A 
ATOM     13  C   UNL     1       2.129   4.488  20.982  0.00  0.00    +0.000 A 
ATOM     14  C   UNL     1       1.374   3.331  21.166  0.00  0.00    +0.000 A 
ATOM     15  C   UNL     1       0.766   2.707  20.078  0.00  0.00    +0.000 A 
ATOM     16  C   UNL     1       0.917   3.234  18.798  0.00  0.00    +0.000 A 
ATOM     17  C   UNL     1       1.666   4.396  18.608  0.00  0.00    +0.000 A 
ENDBRANCH   1  12
BRANCH   1  20
ATOM     18  O   UNL     1       1.854   7.880  21.477  0.00  0.00    +0.000 OA
ATOM     19  C   UNL     1       1.659   8.166  20.296  0.00  0.00    +0.000 C 
ATOM     20  N   UNL     1       2.182   7.446  19.254  0.00  0.00    +0.000 N 
ATOM     21  H   UNL     1       1.976   7.737  18.302  0.00  0.00    +0.000 HD
BRANCH  19  22
ATOM     22  C   UNL     1       0.815   9.336  19.953  0.00  0.00    +0.000 A 
ATOM     23  C   UNL     1       0.371   9.488  18.646  0.00  0.00    +0.000 A 
ATOM     24  C   UNL     1      -0.426  10.586  18.297  0.00  0.00    +0.000 A 
ATOM     25  C   UNL     1      -0.750  11.507  19.286  0.00  0.00    +0.000 A 
ATOM     26  N   UNL     1      -0.335  11.402  20.568  0.00  0.00    +0.000 NA
ATOM     27  C   UNL     1       0.425  10.320  20.852  0.00  0.00    +0.000 A 
BRANCH  27  28
ATOM     28  O   UNL     1       0.785  10.296  22.165  0.00  0.00    +0.000 OA
ATOM     29  H   UNL     1       0.821  11.253  22.339  0.00  0.00    +0.000 HD
ENDBRANCH  27  28
ENDBRANCH  19  22
ENDBRANCH   1  20
TORSDOF 5
ENDMDL
MODEL 5
REMARK VINA RESULT:      -8.2      1.337      1.845
REMARK  Name = 
REMARK  5 active torsions:
REMARK  status: ('A' for Active; 'I' for Inactive)
REMARK    1  A    between atoms: C_2  and  C_20
REMARK    2  A    between atoms: N_3  and  C_4
REMARK    3  A    between atoms: C_4  and  C_5
REMARK    4  A    between atoms: C_4  and  C_11
REMARK    5  A    between atoms: C_25  and  O_26
REMARK                            x       y       z     vdW  Elec       q    Type
REMARK                         _______ _______ _______ _____ _____    ______ ____
ROOT
ATOM      1  C   UNL     1       3.413   5.750  19.479  0.00  0.00    +0.000 C 
ENDROOT
BRANCH   1   2
ATOM      2  C   UNL     1       4.565   5.518  18.494  0.00  0.00    +0.000 A 
ATOM      3  C   UNL     1       5.865   5.319  19.006  0.00  0.00    +0.000 A 
ATOM      4  C   UNL     1       6.991   5.263  18.177  0.00  0.00    +0.000 A 
ATOM      5  C   UNL     1       6.746   5.308  16.809  0.00  0.00    +0.000 A 
ATOM      6  N   UNL     1       7.559   5.420  15.712  0.00  0.00    +0.000 N 
ATOM      7  C   UNL     1       6.825   5.044  14.625  0.00  0.00    +0.000 A 
ATOM      8  N   UNL     1       5.538   5.088  14.897  0.00  0.00    +0.000 NA
ATOM      9  C   UNL     1       5.472   5.299  16.255  0.00  0.00    +0.000 A 
ATOM     10  C   UNL     1       4.367   5.480  17.094  0.00  0.00    +0.000 A 
ATOM     11  H   UNL     1       8.507   5.770  15.705  0.00  0.00    +0.000 HD
ENDBRANCH   1   2
BRANCH   1  12
ATOM     12  C   UNL     1       2.463   4.585  19.655  0.00  0.00    +0.000 A 
ATOM     13  C   UNL     1       2.267   3.925  20.878  0.00  0.00    +0.000 A 
ATOM     14  C   UNL     1       1.372   2.860  20.966  0.00  0.00    +0.000 A 
ATOM     15  C   UNL     1       0.684   2.425  19.834  0.00  0.00    +0.000 A 
ATOM     16  C   UNL     1       0.893   3.048  18.607  0.00  0.00    +0.000 A 
ATOM     17  C   UNL     1       1.783   4.120  18.514  0.00  0.00    +0.000 A 
ENDBRANCH   1  12
BRANCH   1  20
ATOM     18  O   UNL     1       1.735   7.261  21.230  0.00  0.00    +0.000 OA
ATOM     19  C   UNL     1       1.914   7.646  20.074  0.00  0.00    +0.000 C 
ATOM     20  N   UNL     1       2.685   6.966  19.168  0.00  0.00    +0.000 N 
ATOM     21  H   UNL     1       2.786   7.340  18.228  0.00  0.00    +0.000 HD
BRANCH  19  22
ATOM     22  C   UNL     1       1.272   8.899  19.609  0.00  0.00    +0.000 A 
ATOM     23  C   UNL     1       1.713   9.486  18.430  0.00  0.00    +0.000 A 
ATOM     24  C   UNL     1       1.122  10.671  17.971  0.00  0.00    +0.000 A 
ATOM     25  C   UNL     1       0.100  11.234  18.726  0.00  0.00    +0.000 A 
ATOM     26  N   UNL     1      -0.355  10.701  19.881  0.00  0.00    +0.000 NA
ATOM     27  C   UNL     1       0.243   9.554  20.274  0.00  0.00    +0.000 A 
BRANCH  27  28
ATOM     28  O   UNL     1      -0.288   9.090  21.439  0.00  0.00    +0.000 OA
ATOM     29  H   UNL     1      -0.879   8.404  21.083  0.00  0.00    +0.000 HD
ENDBRANCH  27  28
ENDBRANCH  19  22
ENDBRANCH   1  20
TORSDOF 5
ENDMDL
MODEL 6
REMARK VINA RESULT:      -8.1      1.079      1.688
REMARK  Name = 
REMARK  5 active torsions:
REMARK  status: ('A' for Active; 'I' for Inactive)
REMARK    1  A    between atoms: C_2  and  C_20
REMARK    2  A    between atoms: N_3  and  C_4
REMARK    3  A    between atoms: C_4  and  C_5
REMARK    4  A    between atoms: C_4  and  C_11
REMARK    5  A    between atoms: C_25  and  O_26
REMARK                            x       y       z     vdW  Elec       q    Type
REMARK                         _______ _______ _______ _____ _____    ______ ____
ROOT
ATOM      1  C   UNL     1       3.040   6.251  19.485  0.00  0.00    +0.000 C 
ENDROOT
BRANCH   1   2
ATOM      2  C   UNL     1       4.014   6.174  18.303  0.00  0.00    +0.000 A 
ATOM      3  C   UNL     1       3.952   7.172  17.307  0.00  0.00    +0.000 A 
ATOM      4  C   UNL     1       4.690   7.087  16.122  0.00  0.00    +0.000 A 
ATOM      5  C   UNL     1       5.571   6.016  16.025  0.00  0.00    +0.000 A 
ATOM      6  N   UNL     1       6.338   5.519  15.004  0.00  0.00    +0.000 N 
ATOM      7  C   UNL     1       7.272   4.697  15.564  0.00  0.00    +0.000 A 
ATOM      8  N   UNL     1       6.907   4.338  16.776  0.00  0.00    +0.000 NA
ATOM      9  C   UNL     1       5.814   5.124  17.062  0.00  0.00    +0.000 A 
ATOM     10  C   UNL     1       4.982   5.149  18.187  0.00  0.00    +0.000 A 
ATOM     11  H   UNL     1       6.199   5.687  14.017  0.00  0.00    +0.000 HD
ENDBRANCH   1   2
BRANCH   1  12
ATOM     12  C   UNL     1       2.300   4.969  19.802  0.00  0.00    +0.000 A 
ATOM     13  C   UNL     1       1.525   4.272  18.863  0.00  0.00    +0.000 A 
ATOM     14  C   UNL     1       0.873   3.095  19.227  0.00  0.00    +0.000 A 
ATOM     15  C   UNL     1       0.965   2.615  20.532  0.00  0.00    +0.000 A 
ATOM     16  C   UNL     1       1.704   3.313  21.483  0.00  0.00    +0.000 A 
ATOM     17  C   UNL     1       2.364   4.490  21.124  0.00  0.00    +0.000 A 
ENDBRANCH   1  12
BRANCH   1  20
ATOM     18  O   UNL     1       1.931   7.868  21.563  0.00  0.00    +0.000 OA
ATOM     19  C   UNL     1       1.642   8.101  20.389  0.00  0.00    +0.000 C 
ATOM     20  N   UNL     1       2.113   7.358  19.339  0.00  0.00    +0.000 N 
ATOM     21  H   UNL     1       1.830   7.605  18.394  0.00  0.00    +0.000 HD
BRANCH  19  22
ATOM     22  C   UNL     1       0.736   9.230  20.065  0.00  0.00    +0.000 A 
ATOM     23  C   UNL     1       0.714   9.726  18.768  0.00  0.00    +0.000 A 
ATOM     24  C   UNL     1      -0.133  10.793  18.438  0.00  0.00    +0.000 A 
ATOM     25  C   UNL     1      -0.934  11.333  19.437  0.00  0.00    +0.000 A 
ATOM     26  N   UNL     1      -0.939  10.886  20.713  0.00  0.00    +0.000 NA
ATOM     27  C   UNL     1      -0.110   9.850  20.975  0.00  0.00    +0.000 A 
BRANCH  27  28
ATOM     28  O   UNL     1      -0.194   9.465  22.278  0.00  0.00    +0.000 OA
ATOM     29  H   UNL     1      -0.046   8.509  22.173  0.00  0.00    +0.000 HD
ENDBRANCH  27  28
ENDBRANCH  19  22
ENDBRANCH   1  20
TORSDOF 5
ENDMDL
MODEL 7
REMARK VINA RESULT:      -8.0      1.606      2.414
REMARK  Name = 
REMARK  5 active torsions:
REMARK  status: ('A' for Active; 'I' for Inactive)
REMARK    1  A    between atoms: C_2  and  C_20
REMARK    2  A    between atoms: N_3  and  C_4
REMARK    3  A    between atoms: C_4  and  C_5
REMARK    4  A    between atoms: C_4  and  C_11
REMARK    5  A    between atoms: C_25  and  O_26
REMARK                            x       y       z     vdW  Elec       q    Type
REMARK                         _______ _______ _______ _____ _____    ______ ____
ROOT
ATOM      1  C   UNL     1       4.065   5.136  19.566  0.00  0.00    +0.000 C 
ENDROOT
BRANCH   1   2
ATOM      2  C   UNL     1       5.092   5.125  18.428  0.00  0.00    +0.000 A 
ATOM      3  C   UNL     1       6.432   5.458  18.720  0.00  0.00    +0.000 A 
ATOM      4  C   UNL     1       7.392   5.629  17.718  0.00  0.00    +0.000 A 
ATOM      5  C   UNL     1       6.978   5.348  16.421  0.00  0.00    +0.000 A 
ATOM      6  N   UNL     1       7.556   5.524  15.191  0.00  0.00    +0.000 N 
ATOM      7  C   UNL     1       6.872   4.741  14.307  0.00  0.00    +0.000 A 
ATOM      8  N   UNL     1       5.697   4.408  14.796  0.00  0.00    +0.000 NA
ATOM      9  C   UNL     1       5.731   4.823  16.107  0.00  0.00    +0.000 A 
ATOM     10  C   UNL     1       4.746   4.776  17.101  0.00  0.00    +0.000 A 
ATOM     11  H   UNL     1       8.311   6.159  14.972  0.00  0.00    +0.000 HD
ENDBRANCH   1   2
BRANCH   1  12
ATOM     12  C   UNL     1       3.023   4.039  19.513  0.00  0.00    +0.000 A 
ATOM     13  C   UNL     1       2.981   3.061  18.508  0.00  0.00    +0.000 A 
ATOM     14  C   UNL     1       1.993   2.078  18.525  0.00  0.00    +0.000 A 
ATOM     15  C   UNL     1       1.024   2.073  19.527  0.00  0.00    +0.000 A 
ATOM     16  C   UNL     1       1.034   3.056  20.513  0.00  0.00    +0.000 A 
ATOM     17  C   UNL     1       2.025   4.040  20.505  0.00  0.00    +0.000 A 
ENDBRANCH   1  12
BRANCH   1  20
ATOM     18  O   UNL     1       2.162   6.335  17.804  0.00  0.00    +0.000 OA
ATOM     19  C   UNL     1       2.513   6.933  18.821  0.00  0.00    +0.000 C 
ATOM     20  N   UNL     1       3.436   6.436  19.702  0.00  0.00    +0.000 N 
ATOM     21  H   UNL     1       3.682   6.987  20.521  0.00  0.00    +0.000 HD
BRANCH  19  22
ATOM     22  C   UNL     1       1.930   8.261  19.130  0.00  0.00    +0.000 A 
ATOM     23  C   UNL     1       1.832   9.207  18.118  0.00  0.00    +0.000 A 
ATOM     24  C   UNL     1       1.285  10.470  18.386  0.00  0.00    +0.000 A 
ATOM     25  C   UNL     1       0.856  10.742  19.679  0.00  0.00    +0.000 A 
ATOM     26  N   UNL     1       0.938   9.854  20.695  0.00  0.00    +0.000 NA
ATOM     27  C   UNL     1       1.465   8.649  20.380  0.00  0.00    +0.000 A 
BRANCH  27  28
ATOM     28  O   UNL     1       1.497   7.823  21.462  0.00  0.00    +0.000 OA
ATOM     29  H   UNL     1       1.580   6.967  21.007  0.00  0.00    +0.000 HD
ENDBRANCH  27  28
ENDBRANCH  19  22
ENDBRANCH   1  20
TORSDOF 5
ENDMDL
MODEL 8
REMARK VINA RESULT:      -8.0      1.185      1.637
REMARK  Name = 
REMARK  5 active torsions:
REMARK  status: ('A' for Active; 'I' for Inactive)
REMARK    1  A    between atoms: C_2  and  C_20
REMARK    2  A    between atoms: N_3  and  C_4
REMARK    3  A    between atoms: C_4  and  C_5
REMARK    4  A    between atoms: C_4  and  C_11
REMARK    5  A    between atoms: C_25  and  O_26
REMARK                            x       y       z     vdW  Elec       q    Type
REMARK                         _______ _______ _______ _____ _____    ______ ____
ROOT
ATOM      1  C   UNL     1       3.671   5.646  19.125  0.00  0.00    +0.000 C 
ENDROOT
BRANCH   1   2
ATOM      2  C   UNL     1       4.785   5.526  18.077  0.00  0.00    +0.000 A 
ATOM      3  C   UNL     1       6.079   5.978  18.408  0.00  0.00    +0.000 A 
ATOM      4  C   UNL     1       7.107   6.053  17.462  0.00  0.00    +0.000 A 
ATOM      5  C   UNL     1       6.810   5.555  16.198  0.00  0.00    +0.000 A 
ATOM      6  N   UNL     1       7.474   5.579  14.999  0.00  0.00    +0.000 N 
ATOM      7  C   UNL     1       6.900   4.633  14.201  0.00  0.00    +0.000 A 
ATOM      8  N   UNL     1       5.707   4.307  14.651  0.00  0.00    +0.000 NA
ATOM      9  C   UNL     1       5.618   4.916  15.882  0.00  0.00    +0.000 A 
ATOM     10  C   UNL     1       4.562   4.961  16.799  0.00  0.00    +0.000 A 
ATOM     11  H   UNL     1       8.213   6.217  14.738  0.00  0.00    +0.000 HD
ENDBRANCH   1   2
BRANCH   1  12
ATOM     12  C   UNL     1       2.721   4.471  19.204  0.00  0.00    +0.000 A 
ATOM     13  C   UNL     1       1.689   4.248  18.279  0.00  0.00    +0.000 A 
ATOM     14  C   UNL     1       0.854   3.140  18.414  0.00  0.00    +0.000 A 
ATOM     15  C   UNL     1       1.021   2.259  19.481  0.00  0.00    +0.000 A 
ATOM     16  C   UNL     1       2.019   2.486  20.424  0.00  0.00    +0.000 A 
ATOM     17  C   UNL     1       2.864   3.590  20.292  0.00  0.00    +0.000 A 
ENDBRANCH   1  12
BRANCH   1  20
ATOM     18  O   UNL     1       1.801   6.779  20.964  0.00  0.00    +0.000 OA
ATOM     19  C   UNL     1       2.072   7.378  19.923  0.00  0.00    +0.000 C 
ATOM     20  N   UNL     1       2.939   6.891  18.981  0.00  0.00    +0.000 N 
ATOM     21  H   UNL     1       3.113   7.438  18.142  0.00  0.00    +0.000 HD
BRANCH  19  22
ATOM     22  C   UNL     1       1.439   8.690  19.643  0.00  0.00    +0.000 A 
ATOM     23  C   UNL     1       0.686   9.301  20.637  0.00  0.00    +0.000 A 
ATOM     24  C   UNL     1       0.077  10.541  20.397  0.00  0.00    +0.000 A 
ATOM     25  C   UNL     1       0.246  11.127  19.148  0.00  0.00    +0.000 A 
ATOM     26  N   UNL     1       0.964  10.565  18.151  0.00  0.00    +0.000 NA
ATOM     27  C   UNL     1       1.536   9.374  18.438  0.00  0.00    +0.000 A 
BRANCH  27  28
ATOM     28  O   UNL     1       2.244   8.894  17.379  0.00  0.00    +0.000 OA
ATOM     29  H   UNL     1       3.095   9.338  17.541  0.00  0.00    +0.000 HD
ENDBRANCH  27  28
ENDBRANCH  19  22
ENDBRANCH   1  20
TORSDOF 5
ENDMDL
MODEL 9
REMARK VINA RESULT:      -8.0      1.563      2.037
REMARK  Name = 
REMARK  5 active torsions:
REMARK  status: ('A' for Active; 'I' for Inactive)
REMARK    1  A    between atoms: C_2  and  C_20
REMARK    2  A    between atoms: N_3  and  C_4
REMARK    3  A    between atoms: C_4  and  C_5
REMARK    4  A    between atoms: C_4  and  C_11
REMARK    5  A    between atoms: C_25  and  O_26
REMARK                            x       y       z     vdW  Elec       q    Type
REMARK                         _______ _______ _______ _____ _____    ______ ____
ROOT
ATOM      1  C   UNL     1       3.844   5.009  19.619  0.00  0.00    +0.000 C 
ENDROOT
BRANCH   1   2
ATOM      2  C   UNL     1       4.940   5.109  18.551  0.00  0.00    +0.000 A 
ATOM      3  C   UNL     1       6.210   5.596  18.926  0.00  0.00    +0.000 A 
ATOM      4  C   UNL     1       7.210   5.871  17.987  0.00  0.00    +0.000 A 
ATOM      5  C   UNL     1       6.919   5.535  16.670  0.00  0.00    +0.000 A 
ATOM      6  N   UNL     1       7.554   5.769  15.478  0.00  0.00    +0.000 N 
ATOM      7  C   UNL     1       7.025   4.906  14.563  0.00  0.00    +0.000 A 
ATOM      8  N   UNL     1       5.866   4.443  14.977  0.00  0.00    +0.000 NA
ATOM      9  C   UNL     1       5.763   4.867  16.282  0.00  0.00    +0.000 A 
ATOM     10  C   UNL     1       4.727   4.714  17.210  0.00  0.00    +0.000 A 
ATOM     11  H   UNL     1       8.244   6.485  15.300  0.00  0.00    +0.000 HD
ENDBRANCH   1   2
BRANCH   1  12
ATOM     12  C   UNL     1       2.787   3.955  19.369  0.00  0.00    +0.000 A 
ATOM     13  C   UNL     1       2.898   2.969  18.377  0.00  0.00    +0.000 A 
ATOM     14  C   UNL     1       1.885   2.027  18.207  0.00  0.00    +0.000 A 
ATOM     15  C   UNL     1       0.742   2.073  19.003  0.00  0.00    +0.000 A 
ATOM     16  C   UNL     1       0.602   3.065  19.969  0.00  0.00    +0.000 A 
ATOM     17  C   UNL     1       1.617   4.007  20.150  0.00  0.00    +0.000 A 
ENDBRANCH   1  12
BRANCH   1  20
ATOM     18  O   UNL     1       2.223   6.547  17.838  0.00  0.00    +0.000 OA
ATOM     19  C   UNL     1       2.449   6.966  18.973  0.00  0.00    +0.000 C 
ATOM     20  N   UNL     1       3.234   6.300  19.877  0.00  0.00    +0.000 N 
ATOM     21  H   UNL     1       3.381   6.707  20.796  0.00  0.00    +0.000 HD
BRANCH  19  22
ATOM     22  C   UNL     1       1.861   8.255  19.410  0.00  0.00    +0.000 A 
ATOM     23  C   UNL     1       1.446   8.396  20.728  0.00  0.00    +0.000 A 
ATOM     24  C   UNL     1       0.887   9.605  21.164  0.00  0.00    +0.000 A 
ATOM     25  C   UNL     1       0.758  10.641  20.247  0.00  0.00    +0.000 A 
ATOM     26  N   UNL     1       1.143  10.546  18.955  0.00  0.00    +0.000 NA
ATOM     27  C   UNL     1       1.683   9.362  18.589  0.00  0.00    +0.000 A 
BRANCH  27  28
ATOM     28  O   UNL     1       2.047   9.366  17.277  0.00  0.00    +0.000 OA
ATOM     29  H   UNL     1       2.932   9.763  17.357  0.00  0.00    +0.000 HD
ENDBRANCH  27  28
ENDBRANCH  19  22
ENDBRANCH   1  20
TORSDOF 5
ENDMDL
