MODEL 1
REMARK VINA RESULT:      -9.3      0.000      0.000
REMARK  Name = 
REMARK  3 active torsions:
REMARK  status: ('A' for Active; 'I' for Inactive)
REMARK    1  A    between atoms: C_1  and  N_2
REMARK    2  A    between atoms: C_5  and  N_6
REMARK    3  A    between atoms: C_11  and  C_12
REMARK                            x       y       z     vdW  Elec       q    Type
REMARK                         _______ _______ _______ _____ _____    ______ ____
ROOT
ATOM      1  N   UNL     1       0.377   9.486  19.585  0.00  0.00    +0.000 N 
ATOM      2  C   UNL     1       1.454   9.332  18.755  0.00  0.00    +0.000 C 
ATOM      3  O   UNL     1       1.810  10.145  17.917  0.00  0.00    +0.000 OA
ATOM      4  N   UNL     1       2.103   8.117  18.849  0.00  0.00    +0.000 N 
ATOM      5  C   UNL     1       2.308   7.296  20.023  0.00  0.00    +0.000 C 
ATOM      6  C   UNL     1       3.250   6.151  19.575  0.00  0.00    +0.000 C 
ATOM      7  C   UNL     1       3.397   6.342  18.025  0.00  0.00    +0.000 C 
ATOM      8  C   UNL     1       3.104   5.014  17.144  0.00  0.00    +0.000 C 
ATOM      9  C   UNL     1       4.645   4.839  17.089  0.00  0.00    +0.000 C 
ATOM     10  C   UNL     1       4.690   6.351  17.081  0.00  0.00    +0.000 C 
ATOM     11  C   UNL     1       3.038   7.812  17.808  0.00  0.00    +0.000 C 
ATOM     12  H   UNL     1       0.396   8.949  20.440  0.00  0.00    +0.000 HD
ENDROOT
BRANCH   1  17
ATOM     13  C   UNL     1      -3.214   9.809  15.083  0.00  0.00    +0.000 C 
ATOM     14  N   UNL     1      -2.825  10.220  16.406  0.00  0.00    +0.000 N 
ATOM     15  C   UNL     1      -1.601   9.736  17.022  0.00  0.00    +0.000 C 
ATOM     16  C   UNL     1      -1.534  10.494  18.317  0.00  0.00    +0.000 A 
ATOM     17  C   UNL     1      -0.693  10.396  19.422  0.00  0.00    +0.000 A 
ATOM     18  C   UNL     1      -0.963  11.242  20.515  0.00  0.00    +0.000 A 
ATOM     19  C   UNL     1      -2.019  12.168  20.498  0.00  0.00    +0.000 A 
ATOM     20  C   UNL     1      -2.855  12.262  19.390  0.00  0.00    +0.000 A 
ATOM     21  C   UNL     1      -2.610  11.401  18.338  0.00  0.00    +0.000 A 
ATOM     22  C   UNL     1      -3.401  11.253  17.106  0.00  0.00    +0.000 C 
ATOM     23  O   UNL     1      -4.363  11.921  16.811  0.00  0.00    +0.000 OA
ENDBRANCH   1  17
BRANCH   6  24
ATOM     24  C   UNL     1       2.668   4.799  19.964  0.00  0.00    +0.000 A 
ATOM     25  C   UNL     1       3.487   3.752  20.436  0.00  0.00    +0.000 A 
ATOM     26  C   UNL     1       2.928   2.630  21.049  0.00  0.00    +0.000 A 
ATOM     27  C   UNL     1       1.545   2.514  21.149  0.00  0.00    +0.000 A 
ATOM     28  C   UNL     1       0.721   3.491  20.592  0.00  0.00    +0.000 A 
ATOM     29  C   UNL     1       1.278   4.626  19.997  0.00  0.00    +0.000 A 
ENDBRANCH   6  24
TORSDOF 2
ENDMDL
MODEL 2
REMARK VINA RESULT:      -8.9      1.458      2.721
REMARK  Name = 
REMARK  3 active torsions:
REMARK  status: ('A' for Active; 'I' for Inactive)
REMARK    1  A    between atoms: C_1  and  N_2
REMARK    2  A    between atoms: C_5  and  N_6
REMARK    3  A    between atoms: C_11  and  C_12
REMARK                            x       y       z     vdW  Elec       q    Type
REMARK                         _______ _______ _______ _____ _____    ______ ____
ROOT
ATOM      1  N   UNL     1       0.629   9.280  19.290  0.00  0.00    +0.000 N 
ATOM      2  C   UNL     1       1.687   9.042  18.455  0.00  0.00    +0.000 C 
ATOM      3  O   UNL     1       2.046   9.786  17.557  0.00  0.00    +0.000 OA
ATOM      4  N   UNL     1       2.309   7.822  18.623  0.00  0.00    +0.000 N 
ATOM      5  C   UNL     1       2.517   7.079  19.848  0.00  0.00    +0.000 C 
ATOM      6  C   UNL     1       3.424   5.884  19.465  0.00  0.00    +0.000 C 
ATOM      7  C   UNL     1       3.547   5.963  17.903  0.00  0.00    +0.000 C 
ATOM      8  C   UNL     1       3.207   4.584  17.123  0.00  0.00    +0.000 C 
ATOM      9  C   UNL     1       4.742   4.368  17.054  0.00  0.00    +0.000 C 
ATOM     10  C   UNL     1       4.821   5.875  16.939  0.00  0.00    +0.000 C 
ATOM     11  C   UNL     1       3.217   7.423  17.590  0.00  0.00    +0.000 C 
ATOM     12  H   UNL     1       0.651   8.803  20.180  0.00  0.00    +0.000 HD
ENDROOT
BRANCH   1  17
ATOM     13  C   UNL     1      -0.861  13.644  22.755  0.00  0.00    +0.000 C 
ATOM     14  N   UNL     1      -1.002  12.925  21.517  0.00  0.00    +0.000 N 
ATOM     15  C   UNL     1      -0.276  11.691  21.269  0.00  0.00    +0.000 C 
ATOM     16  C   UNL     1      -0.801  11.232  19.939  0.00  0.00    +0.000 A 
ATOM     17  C   UNL     1      -0.422  10.203  19.082  0.00  0.00    +0.000 A 
ATOM     18  C   UNL     1      -1.108  10.099  17.857  0.00  0.00    +0.000 A 
ATOM     19  C   UNL     1      -2.150  10.974  17.508  0.00  0.00    +0.000 A 
ATOM     20  C   UNL     1      -2.525  12.000  18.370  0.00  0.00    +0.000 A 
ATOM     21  C   UNL     1      -1.821  12.122  19.552  0.00  0.00    +0.000 A 
ATOM     22  C   UNL     1      -1.973  13.169  20.575  0.00  0.00    +0.000 C 
ATOM     23  O   UNL     1      -2.795  14.053  20.550  0.00  0.00    +0.000 OA
ENDBRANCH   1  17
BRANCH   6  24
ATOM     24  C   UNL     1       2.818   4.577  19.958  0.00  0.00    +0.000 A 
ATOM     25  C   UNL     1       3.625   3.532  20.455  0.00  0.00    +0.000 A 
ATOM     26  C   UNL     1       3.060   2.466  21.156  0.00  0.00    +0.000 A 
ATOM     27  C   UNL     1       1.679   2.403  21.323  0.00  0.00    +0.000 A 
ATOM     28  C   UNL     1       0.862   3.373  20.745  0.00  0.00    +0.000 A 
ATOM     29  C   UNL     1       1.427   4.452  20.061  0.00  0.00    +0.000 A 
ENDBRANCH   6  24
TORSDOF 2
ENDMDL
MODEL 3
REMARK VINA RESULT:      -8.8      2.047      2.875
REMARK  Name = 
REMARK  3 active torsions:
REMARK  status: ('A' for Active; 'I' for Inactive)
REMARK    1  A    between atoms: C_1  and  N_2
REMARK    2  A    between atoms: C_5  and  N_6
REMARK    3  A    between atoms: C_11  and  C_12
REMARK                            x       y       z     vdW  Elec       q    Type
REMARK                         _______ _______ _______ _____ _____    ______ ____
ROOT
ATOM      1  N   UNL     1       1.258   9.289  18.993  0.00  0.00    +0.000 N 
ATOM      2  C   UNL     1       2.228   8.852  18.132  0.00  0.00    +0.000 C 
ATOM      3  O   UNL     1       2.633   9.478  17.165  0.00  0.00    +0.000 OA
ATOM      4  N   UNL     1       2.691   7.573  18.362  0.00  0.00    +0.000 N 
ATOM      5  C   UNL     1       2.864   6.894  19.629  0.00  0.00    +0.000 C 
ATOM      6  C   UNL     1       3.582   5.562  19.296  0.00  0.00    +0.000 C 
ATOM      7  C   UNL     1       3.630   5.517  17.729  0.00  0.00    +0.000 C 
ATOM      8  C   UNL     1       3.067   4.148  17.069  0.00  0.00    +0.000 C 
ATOM      9  C   UNL     1       4.554   3.721  16.948  0.00  0.00    +0.000 C 
ATOM     10  C   UNL     1       4.827   5.191  16.718  0.00  0.00    +0.000 C 
ATOM     11  C   UNL     1       3.480   6.984  17.323  0.00  0.00    +0.000 C 
ATOM     12  H   UNL     1       1.265   8.875  19.914  0.00  0.00    +0.000 HD
ENDROOT
BRANCH   1  17
ATOM     13  C   UNL     1       2.229  14.950  19.518  0.00  0.00    +0.000 C 
ATOM     14  N   UNL     1       1.377  13.856  19.133  0.00  0.00    +0.000 N 
ATOM     15  C   UNL     1       1.763  12.475  19.364  0.00  0.00    +0.000 C 
ATOM     16  C   UNL     1       0.558  11.693  18.927  0.00  0.00    +0.000 A 
ATOM     17  C   UNL     1       0.329  10.330  18.764  0.00  0.00    +0.000 A 
ATOM     18  C   UNL     1      -0.928   9.943  18.263  0.00  0.00    +0.000 A 
ATOM     19  C   UNL     1      -1.931  10.878  17.960  0.00  0.00    +0.000 A 
ATOM     20  C   UNL     1      -1.697  12.240  18.126  0.00  0.00    +0.000 A 
ATOM     21  C   UNL     1      -0.447  12.615  18.578  0.00  0.00    +0.000 A 
ATOM     22  C   UNL     1       0.063  13.985  18.750  0.00  0.00    +0.000 C 
ATOM     23  O   UNL     1      -0.576  14.994  18.572  0.00  0.00    +0.000 OA
ENDBRANCH   1  17
BRANCH   6  24
ATOM     24  C   UNL     1       2.836   4.387  19.911  0.00  0.00    +0.000 A 
ATOM     25  C   UNL     1       3.518   3.350  20.583  0.00  0.00    +0.000 A 
ATOM     26  C   UNL     1       2.823   2.437  21.376  0.00  0.00    +0.000 A 
ATOM     27  C   UNL     1       1.437   2.513  21.467  0.00  0.00    +0.000 A 
ATOM     28  C   UNL     1       0.742   3.466  20.725  0.00  0.00    +0.000 A 
ATOM     29  C   UNL     1       1.435   4.395  19.946  0.00  0.00    +0.000 A 
ENDBRANCH   6  24
TORSDOF 2
ENDMDL
MODEL 4
REMARK VINA RESULT:      -8.5      1.486      2.883
REMARK  Name = 
REMARK  3 active torsions:
REMARK  status: ('A' for Active; 'I' for Inactive)
REMARK    1  A    between atoms: C_1  and  N_2
REMARK    2  A    between atoms: C_5  and  N_6
REMARK    3  A    between atoms: C_11  and  C_12
REMARK                            x       y       z     vdW  Elec       q    Type
REMARK                         _______ _______ _______ _____ _____    ______ ____
ROOT
ATOM      1  N   UNL     1       0.577   9.258  19.334  0.00  0.00    +0.000 N 
ATOM      2  C   UNL     1       1.689   9.105  18.551  0.00  0.00    +0.000 C 
ATOM      3  O   UNL     1       2.080   9.919  17.730  0.00  0.00    +0.000 OA
ATOM      4  N   UNL     1       2.334   7.891  18.671  0.00  0.00    +0.000 N 
ATOM      5  C   UNL     1       2.489   7.068  19.852  0.00  0.00    +0.000 C 
ATOM      6  C   UNL     1       3.449   5.924  19.443  0.00  0.00    +0.000 C 
ATOM      7  C   UNL     1       3.663   6.117  17.901  0.00  0.00    +0.000 C 
ATOM      8  C   UNL     1       3.408   4.790  17.007  0.00  0.00    +0.000 C 
ATOM      9  C   UNL     1       4.950   4.615  17.017  0.00  0.00    +0.000 C 
ATOM     10  C   UNL     1       4.994   6.128  17.013  0.00  0.00    +0.000 C 
ATOM     11  C   UNL     1       3.312   7.588  17.671  0.00  0.00    +0.000 C 
ATOM     12  H   UNL     1       0.559   8.720  20.188  0.00  0.00    +0.000 HD
ENDROOT
BRANCH   1  17
ATOM     13  C   UNL     1      -1.017  13.549  22.843  0.00  0.00    +0.000 C 
ATOM     14  N   UNL     1      -1.133  12.846  21.594  0.00  0.00    +0.000 N 
ATOM     15  C   UNL     1      -0.386  11.626  21.337  0.00  0.00    +0.000 C 
ATOM     16  C   UNL     1      -0.889  11.179  19.994  0.00  0.00    +0.000 A 
ATOM     17  C   UNL     1      -0.485  10.168  19.127  0.00  0.00    +0.000 A 
ATOM     18  C   UNL     1      -1.154  10.073  17.892  0.00  0.00    +0.000 A 
ATOM     19  C   UNL     1      -2.204  10.938  17.543  0.00  0.00    +0.000 A 
ATOM     20  C   UNL     1      -2.605  11.946  18.415  0.00  0.00    +0.000 A 
ATOM     21  C   UNL     1      -1.916  12.061  19.607  0.00  0.00    +0.000 A 
ATOM     22  C   UNL     1      -2.096  13.090  20.643  0.00  0.00    +0.000 C 
ATOM     23  O   UNL     1      -2.930  13.962  20.621  0.00  0.00    +0.000 OA
ENDBRANCH   1  17
BRANCH   6  24
ATOM     24  C   UNL     1       2.852   4.572  19.805  0.00  0.00    +0.000 A 
ATOM     25  C   UNL     1       1.455   4.370  19.845  0.00  0.00    +0.000 A 
ATOM     26  C   UNL     1       0.923   3.081  19.900  0.00  0.00    +0.000 A 
ATOM     27  C   UNL     1       1.776   1.983  19.971  0.00  0.00    +0.000 A 
ATOM     28  C   UNL     1       3.155   2.175  20.040  0.00  0.00    +0.000 A 
ATOM     29  C   UNL     1       3.691   3.462  19.964  0.00  0.00    +0.000 A 
ENDBRANCH   6  24
TORSDOF 2
ENDMDL
MODEL 5
REMARK VINA RESULT:      -8.0      2.603      8.089
REMARK  Name = 
REMARK  3 active torsions:
REMARK  status: ('A' for Active; 'I' for Inactive)
REMARK    1  A    between atoms: C_1  and  N_2
REMARK    2  A    between atoms: C_5  and  N_6
REMARK    3  A    between atoms: C_11  and  C_12
REMARK                            x       y       z     vdW  Elec       q    Type
REMARK                         _______ _______ _______ _____ _____    ______ ____
ROOT
ATOM      1  N   UNL     1       2.035   7.536  18.579  0.00  0.00    +0.000 N 
ATOM      2  C   UNL     1       2.256   8.759  18.005  0.00  0.00    +0.000 C 
ATOM      3  O   UNL     1       3.070   8.977  17.123  0.00  0.00    +0.000 OA
ATOM      4  N   UNL     1       1.546   9.807  18.555  0.00  0.00    +0.000 N 
ATOM      5  C   UNL     1       0.206   9.794  19.106  0.00  0.00    +0.000 C 
ATOM      6  C   UNL     1      -0.138  11.275  19.403  0.00  0.00    +0.000 C 
ATOM      7  C   UNL     1       1.190  12.058  19.115  0.00  0.00    +0.000 C 
ATOM      8  C   UNL     1       1.675  13.038  20.310  0.00  0.00    +0.000 C 
ATOM      9  C   UNL     1       1.032  14.186  19.488  0.00  0.00    +0.000 C 
ATOM     10  C   UNL     1       1.469  13.392  18.276  0.00  0.00    +0.000 C 
ATOM     11  C   UNL     1       1.962  11.124  18.181  0.00  0.00    +0.000 C 
ATOM     12  H   UNL     1       1.132   7.407  19.013  0.00  0.00    +0.000 HD
ENDROOT
BRANCH   1  17
ATOM     13  C   UNL     1       1.566   2.709  21.701  0.00  0.00    +0.000 C 
ATOM     14  N   UNL     1       2.192   3.463  20.647  0.00  0.00    +0.000 N 
ATOM     15  C   UNL     1       1.835   4.846  20.387  0.00  0.00    +0.000 C 
ATOM     16  C   UNL     1       2.793   5.263  19.308  0.00  0.00    +0.000 A 
ATOM     17  C   UNL     1       2.889   6.411  18.527  0.00  0.00    +0.000 A 
ATOM     18  C   UNL     1       3.895   6.438  17.543  0.00  0.00    +0.000 A 
ATOM     19  C   UNL     1       4.790   5.371  17.360  0.00  0.00    +0.000 A 
ATOM     20  C   UNL     1       4.690   4.226  18.145  0.00  0.00    +0.000 A 
ATOM     21  C   UNL     1       3.674   4.189  19.081  0.00  0.00    +0.000 A 
ATOM     22  C   UNL     1       3.316   3.065  19.961  0.00  0.00    +0.000 C 
ATOM     23  O   UNL     1       3.911   2.017  20.031  0.00  0.00    +0.000 OA
ENDBRANCH   1  17
BRANCH   6  24
ATOM     24  C   UNL     1      -0.633  11.429  20.833  0.00  0.00    +0.000 A 
ATOM     25  C   UNL     1      -1.621  12.378  21.174  0.00  0.00    +0.000 A 
ATOM     26  C   UNL     1      -2.264  12.325  22.411  0.00  0.00    +0.000 A 
ATOM     27  C   UNL     1      -1.893  11.360  23.343  0.00  0.00    +0.000 A 
ATOM     28  C   UNL     1      -0.845  10.485  23.060  0.00  0.00    +0.000 A 
ATOM     29  C   UNL     1      -0.214  10.522  21.815  0.00  0.00    +0.000 A 
ENDBRANCH   6  24
TORSDOF 2
ENDMDL
MODEL 6
REMARK VINA RESULT:      -7.9      1.870      2.930
REMARK  Name = 
REMARK  3 active torsions:
REMARK  status: ('A' for Active; 'I' for Inactive)
REMARK    1  A    between atoms: C_1  and  N_2
REMARK    2  A    between atoms: C_5  and  N_6
REMARK    3  A    between atoms: C_11  and  C_12
REMARK                            x       y       z     vdW  Elec       q    Type
REMARK                         _______ _______ _______ _____ _____    ______ ____
ROOT
ATOM      1  N   UNL     1       1.051   9.001  18.847  0.00  0.00    +0.000 N 
ATOM      2  C   UNL     1       2.267   8.968  18.220  0.00  0.00    +0.000 C 
ATOM      3  O   UNL     1       2.782   9.916  17.650  0.00  0.00    +0.000 OA
ATOM      4  N   UNL     1       2.878   7.732  18.181  0.00  0.00    +0.000 N 
ATOM      5  C   UNL     1       2.849   6.682  19.178  0.00  0.00    +0.000 C 
ATOM      6  C   UNL     1       3.853   5.609  18.687  0.00  0.00    +0.000 C 
ATOM      7  C   UNL     1       4.297   6.102  17.266  0.00  0.00    +0.000 C 
ATOM      8  C   UNL     1       4.172   4.993  16.091  0.00  0.00    +0.000 C 
ATOM      9  C   UNL     1       5.693   4.763  16.291  0.00  0.00    +0.000 C 
ATOM     10  C   UNL     1       5.748   6.243  16.603  0.00  0.00    +0.000 C 
ATOM     11  C   UNL     1       3.994   7.601  17.294  0.00  0.00    +0.000 C 
ATOM     12  H   UNL     1       0.901   8.302  19.560  0.00  0.00    +0.000 HD
ENDROOT
BRANCH   1  17
ATOM     13  C   UNL     1       0.574  14.007  21.672  0.00  0.00    +0.000 C 
ATOM     14  N   UNL     1       0.138  13.107  20.637  0.00  0.00    +0.000 N 
ATOM     15  C   UNL     1       0.720  11.784  20.486  0.00  0.00    +0.000 C 
ATOM     16  C   UNL     1      -0.094  11.162  19.387  0.00  0.00    +0.000 A 
ATOM     17  C   UNL     1       0.038   9.972  18.678  0.00  0.00    +0.000 A 
ATOM     18  C   UNL     1      -0.889   9.732  17.646  0.00  0.00    +0.000 A 
ATOM     19  C   UNL     1      -1.925  10.633  17.348  0.00  0.00    +0.000 A 
ATOM     20  C   UNL     1      -2.052  11.820  18.062  0.00  0.00    +0.000 A 
ATOM     21  C   UNL     1      -1.114  12.070  19.045  0.00  0.00    +0.000 A 
ATOM     22  C   UNL     1      -0.988  13.283  19.869  0.00  0.00    +0.000 C 
ATOM     23  O   UNL     1      -1.742  14.226  19.840  0.00  0.00    +0.000 OA
ENDBRANCH   1  17
BRANCH   6  24
ATOM     24  C   UNL     1       3.199   4.235  18.673  0.00  0.00    +0.000 A 
ATOM     25  C   UNL     1       3.928   3.068  18.989  0.00  0.00    +0.000 A 
ATOM     26  C   UNL     1       3.270   1.865  19.246  0.00  0.00    +0.000 A 
ATOM     27  C   UNL     1       1.884   1.797  19.139  0.00  0.00    +0.000 A 
ATOM     28  C   UNL     1       1.162   2.915  18.725  0.00  0.00    +0.000 A 
ATOM     29  C   UNL     1       1.815   4.126  18.487  0.00  0.00    +0.000 A 
ENDBRANCH   6  24
TORSDOF 2
ENDMDL
MODEL 7
REMARK VINA RESULT:      -7.7      2.765      7.915
REMARK  Name = 
REMARK  3 active torsions:
REMARK  status: ('A' for Active; 'I' for Inactive)
REMARK    1  A    between atoms: C_1  and  N_2
REMARK    2  A    between atoms: C_5  and  N_6
REMARK    3  A    between atoms: C_11  and  C_12
REMARK                            x       y       z     vdW  Elec       q    Type
REMARK                         _______ _______ _______ _____ _____    ______ ____
ROOT
ATOM      1  N   UNL     1       2.206   7.361  18.341  0.00  0.00    +0.000 N 
ATOM      2  C   UNL     1       2.406   8.598  17.792  0.00  0.00    +0.000 C 
ATOM      3  O   UNL     1       3.188   8.841  16.887  0.00  0.00    +0.000 OA
ATOM      4  N   UNL     1       1.714   9.630  18.393  0.00  0.00    +0.000 N 
ATOM      5  C   UNL     1       0.395   9.601  18.991  0.00  0.00    +0.000 C 
ATOM      6  C   UNL     1       0.059  11.072  19.338  0.00  0.00    +0.000 C 
ATOM      7  C   UNL     1       1.375  11.865  19.024  0.00  0.00    +0.000 C 
ATOM      8  C   UNL     1       1.901  12.815  20.226  0.00  0.00    +0.000 C 
ATOM      9  C   UNL     1       1.227  13.982  19.457  0.00  0.00    +0.000 C 
ATOM     10  C   UNL     1       1.622  13.221  18.210  0.00  0.00    +0.000 C 
ATOM     11  C   UNL     1       2.116  10.958  18.040  0.00  0.00    +0.000 C 
ATOM     12  H   UNL     1       1.320   7.219  18.804  0.00  0.00    +0.000 HD
ENDROOT
BRANCH   1  17
ATOM     13  C   UNL     1       0.696   1.819  18.867  0.00  0.00    +0.000 C 
ATOM     14  N   UNL     1       1.675   2.825  18.553  0.00  0.00    +0.000 N 
ATOM     15  C   UNL     1       1.390   4.240  18.716  0.00  0.00    +0.000 C 
ATOM     16  C   UNL     1       2.698   4.905  18.394  0.00  0.00    +0.000 A 
ATOM     17  C   UNL     1       3.060   6.239  18.230  0.00  0.00    +0.000 A 
ATOM     18  C   UNL     1       4.391   6.504  17.858  0.00  0.00    +0.000 A 
ATOM     19  C   UNL     1       5.334   5.479  17.678  0.00  0.00    +0.000 A 
ATOM     20  C   UNL     1       4.966   4.147  17.844  0.00  0.00    +0.000 A 
ATOM     21  C   UNL     1       3.649   3.891  18.169  0.00  0.00    +0.000 A 
ATOM     22  C   UNL     1       3.006   2.575  18.312  0.00  0.00    +0.000 C 
ATOM     23  O   UNL     1       3.569   1.511  18.222  0.00  0.00    +0.000 OA
ENDBRANCH   1  17
BRANCH   6  24
ATOM     24  C   UNL     1      -0.385  11.188  20.789  0.00  0.00    +0.000 A 
ATOM     25  C   UNL     1      -1.336  12.149  21.194  0.00  0.00    +0.000 A 
ATOM     26  C   UNL     1      -1.940  12.068  22.449  0.00  0.00    +0.000 A 
ATOM     27  C   UNL     1      -1.564  11.062  23.335  0.00  0.00    +0.000 A 
ATOM     28  C   UNL     1      -0.550  10.172  22.987  0.00  0.00    +0.000 A 
ATOM     29  C   UNL     1       0.042  10.237  21.724  0.00  0.00    +0.000 A 
ENDBRANCH   6  24
TORSDOF 2
ENDMDL
MODEL 8
REMARK VINA RESULT:      -7.6      2.399      8.136
REMARK  Name = 
REMARK  3 active torsions:
REMARK  status: ('A' for Active; 'I' for Inactive)
REMARK    1  A    between atoms: C_1  and  N_2
REMARK    2  A    between atoms: C_5  and  N_6
REMARK    3  A    between atoms: C_11  and  C_12
REMARK                            x       y       z     vdW  Elec       q    Type
REMARK                         _______ _______ _______ _____ _____    ______ ____
ROOT
ATOM      1  N   UNL     1       1.772   8.489  18.428  0.00  0.00    +0.000 N 
ATOM      2  C   UNL     1       1.943   9.802  18.080  0.00  0.00    +0.000 C 
ATOM      3  O   UNL     1       2.835  10.221  17.361  0.00  0.00    +0.000 OA
ATOM      4  N   UNL     1       1.072  10.690  18.678  0.00  0.00    +0.000 N 
ATOM      5  C   UNL     1      -0.318  10.487  19.031  0.00  0.00    +0.000 C 
ATOM      6  C   UNL     1      -0.839  11.870  19.496  0.00  0.00    +0.000 C 
ATOM      7  C   UNL     1       0.433  12.788  19.514  0.00  0.00    +0.000 C 
ATOM      8  C   UNL     1       0.669  13.597  20.898  0.00  0.00    +0.000 C 
ATOM      9  C   UNL     1       0.024  14.809  20.175  0.00  0.00    +0.000 C 
ATOM     10  C   UNL     1       0.683  14.257  18.930  0.00  0.00    +0.000 C 
ATOM     11  C   UNL     1       1.402  12.079  18.566  0.00  0.00    +0.000 C 
ATOM     12  H   UNL     1       0.839   8.224  18.710  0.00  0.00    +0.000 HD
ENDROOT
BRANCH   1  17
ATOM     13  C   UNL     1       1.973   3.657  21.570  0.00  0.00    +0.000 C 
ATOM     14  N   UNL     1       2.458   4.464  20.482  0.00  0.00    +0.000 N 
ATOM     15  C   UNL     1       1.948   5.803  20.244  0.00  0.00    +0.000 C 
ATOM     16  C   UNL     1       2.796   6.308  19.112  0.00  0.00    +0.000 A 
ATOM     17  C   UNL     1       2.731   7.456  18.326  0.00  0.00    +0.000 A 
ATOM     18  C   UNL     1       3.671   7.579  17.286  0.00  0.00    +0.000 A 
ATOM     19  C   UNL     1       4.657   6.606  17.052  0.00  0.00    +0.000 A 
ATOM     20  C   UNL     1       4.718   5.462  17.841  0.00  0.00    +0.000 A 
ATOM     21  C   UNL     1       3.767   5.327  18.833  0.00  0.00    +0.000 A 
ATOM     22  C   UNL     1       3.574   4.178  19.732  0.00  0.00    +0.000 C 
ATOM     23  O   UNL     1       4.276   3.196  19.767  0.00  0.00    +0.000 OA
ENDBRANCH   1  17
BRANCH   6  24
ATOM     24  C   UNL     1      -1.519  11.754  20.852  0.00  0.00    +0.000 A 
ATOM     25  C   UNL     1      -0.943  11.012  21.905  0.00  0.00    +0.000 A 
ATOM     26  C   UNL     1      -1.421  11.138  23.210  0.00  0.00    +0.000 A 
ATOM     27  C   UNL     1      -2.511  11.962  23.471  0.00  0.00    +0.000 A 
ATOM     28  C   UNL     1      -3.156  12.618  22.423  0.00  0.00    +0.000 A 
ATOM     29  C   UNL     1      -2.668  12.510  21.119  0.00  0.00    +0.000 A 
ENDBRANCH   6  24
TORSDOF 2
ENDMDL
MODEL 9
REMARK VINA RESULT:      -7.4      2.262      4.172
REMARK  Name = 
REMARK  3 active torsions:
REMARK  status: ('A' for Active; 'I' for Inactive)
REMARK    1  A    between atoms: C_1  and  N_2
REMARK    2  A    between atoms: C_5  and  N_6
REMARK    3  A    between atoms: C_11  and  C_12
REMARK                            x       y       z     vdW  Elec       q    Type
REMARK                         _______ _______ _______ _____ _____    ______ ____
ROOT
ATOM      1  N   UNL     1       1.687   9.891  18.200  0.00  0.00    +0.000 N 
ATOM      2  C   UNL     1       1.543   8.895  19.128  0.00  0.00    +0.000 C 
ATOM      3  O   UNL     1       0.992   9.025  20.208  0.00  0.00    +0.000 OA
ATOM      4  N   UNL     1       2.156   7.700  18.812  0.00  0.00    +0.000 N 
ATOM      5  C   UNL     1       2.321   7.092  17.508  0.00  0.00    +0.000 C 
ATOM      6  C   UNL     1       2.911   5.684  17.774  0.00  0.00    +0.000 C 
ATOM      7  C   UNL     1       3.196   5.658  19.316  0.00  0.00    +0.000 C 
ATOM      8  C   UNL     1       4.695   5.198  19.724  0.00  0.00    +0.000 C 
ATOM      9  C   UNL     1       4.079   3.800  19.995  0.00  0.00    +0.000 C 
ATOM     10  C   UNL     1       2.851   4.567  20.435  0.00  0.00    +0.000 C 
ATOM     11  C   UNL     1       2.274   6.745  19.871  0.00  0.00    +0.000 C 
ATOM     12  H   UNL     1       1.825   9.591  17.245  0.00  0.00    +0.000 HD
ENDROOT
BRANCH   1  17
ATOM     13  C   UNL     1      -2.999  12.624  20.159  0.00  0.00    +0.000 C 
ATOM     14  N   UNL     1      -1.613  12.636  19.774  0.00  0.00    +0.000 N 
ATOM     15  C   UNL     1      -0.968  11.456  19.223  0.00  0.00    +0.000 C 
ATOM     16  C   UNL     1       0.407  11.940  18.861  0.00  0.00    +0.000 A 
ATOM     17  C   UNL     1       1.552  11.281  18.423  0.00  0.00    +0.000 A 
ATOM     18  C   UNL     1       2.712  12.057  18.239  0.00  0.00    +0.000 A 
ATOM     19  C   UNL     1       2.725  13.444  18.459  0.00  0.00    +0.000 A 
ATOM     20  C   UNL     1       1.577  14.098  18.897  0.00  0.00    +0.000 A 
ATOM     21  C   UNL     1       0.454  13.324  19.116  0.00  0.00    +0.000 A 
ATOM     22  C   UNL     1      -0.842  13.768  19.654  0.00  0.00    +0.000 C 
ATOM     23  O   UNL     1      -1.128  14.908  19.930  0.00  0.00    +0.000 OA
ENDBRANCH   1  17
BRANCH   6  24
ATOM     24  C   UNL     1       4.154   5.459  16.926  0.00  0.00    +0.000 A 
ATOM     25  C   UNL     1       5.093   6.489  16.705  0.00  0.00    +0.000 A 
ATOM     26  C   UNL     1       6.350   6.205  16.171  0.00  0.00    +0.000 A 
ATOM     27  C   UNL     1       6.667   4.901  15.802  0.00  0.00    +0.000 A 
ATOM     28  C   UNL     1       5.711   3.893  15.917  0.00  0.00    +0.000 A 
ATOM     29  C   UNL     1       4.459   4.170  16.470  0.00  0.00    +0.000 A 
ENDBRANCH   6  24
TORSDOF 2
ENDMDL
