MODEL 1
REMARK VINA RESULT:      -8.4      0.000      0.000
REMARK  Name = 
REMARK  4 active torsions:
REMARK  status: ('A' for Active; 'I' for Inactive)
REMARK    1  A    between atoms: C_2  and  C_3
REMARK    2  A    between atoms: C_3  and  N_4
REMARK    3  A    between atoms: N_11  and  C_12
REMARK    4  A    between atoms: C_16  and  C_17
REMARK                            x       y       z     vdW  Elec       q    Type
REMARK                         _______ _______ _______ _____ _____    ______ ____
ROOT
ATOM      1  C   UNL     1       4.671   4.813  18.524  0.00  0.00    +0.000 A 
ATOM      2  C   UNL     1       4.274   3.649  19.182  0.00  0.00    +0.000 A 
ATOM      3  C   UNL     1       3.120   3.632  19.973  0.00  0.00    +0.000 A 
ATOM      4  C   UNL     1       2.372   4.794  20.163  0.00  0.00    +0.000 A 
ATOM      5  C   UNL     1       2.800   6.003  19.607  0.00  0.00    +0.000 A 
ATOM      6  C   UNL     1       3.937   5.989  18.760  0.00  0.00    +0.000 A 
ENDROOT
BRANCH   5   7
ATOM      7  C   UNL     1       2.105   7.250  19.961  0.00  0.00    +0.000 A 
ATOM      8  N   UNL     1       1.847   8.305  19.200  0.00  0.00    +0.000 NA
ATOM      9  C   UNL     1       1.140   9.194  19.988  0.00  0.00    +0.000 A 
ATOM     10  C   UNL     1       0.621  10.470  19.713  0.00  0.00    +0.000 A 
ATOM     11  C   UNL     1      -0.037  11.170  20.740  0.00  0.00    +0.000 A 
ATOM     12  C   UNL     1      -0.193  10.606  22.010  0.00  0.00    +0.000 A 
ATOM     13  C   UNL     1       0.283   9.323  22.291  0.00  0.00    +0.000 A 
ATOM     14  C   UNL     1       0.943   8.665  21.258  0.00  0.00    +0.000 A 
ATOM     15  N   UNL     1       1.516   7.428  21.196  0.00  0.00    +0.000 N 
ATOM     16  H   UNL     1       1.492   6.735  21.930  0.00  0.00    +0.000 HD
ENDBRANCH   5   7
BRANCH   1  19
ATOM     17  O   UNL     1       5.052   6.424  16.080  0.00  0.00    +0.000 OA
ATOM     18  C   UNL     1       5.893   5.621  16.485  0.00  0.00    +0.000 C 
ATOM     19  N   UNL     1       5.791   4.863  17.650  0.00  0.00    +0.000 N 
ATOM     20  H   UNL     1       6.650   4.441  17.986  0.00  0.00    +0.000 HD
BRANCH  18  21
ATOM     21  C   UNL     1       7.183   5.379  15.675  0.00  0.00    +0.000 C 
BRANCH  21  22
ATOM     22  N   UNL     1       6.920   4.751  14.377  0.00  0.00    +0.000 N 
ATOM     23  C   UNL     1       5.927   3.684  14.302  0.00  0.00    +0.000 C 
ATOM     24  C   UNL     1       5.328   3.564  12.912  0.00  0.00    +0.000 C 
ATOM     25  C   UNL     1       6.465   3.448  11.920  0.00  0.00    +0.000 C 
ATOM     26  N   UNL     1       7.429   4.500  12.120  0.00  0.00    +0.000 N 
ATOM     27  C   UNL     1       7.701   5.107  13.306  0.00  0.00    +0.000 C 
ATOM     28  O   UNL     1       8.599   5.943  13.378  0.00  0.00    +0.000 OA
ATOM     29  H   UNL     1       8.059   4.751  11.369  0.00  0.00    +0.000 HD
ENDBRANCH  21  22
ENDBRANCH  18  21
ENDBRANCH   1  19
TORSDOF 4
ENDMDL
MODEL 2
REMARK VINA RESULT:      -8.0      0.359      1.196
REMARK  Name = 
REMARK  4 active torsions:
REMARK  status: ('A' for Active; 'I' for Inactive)
REMARK    1  A    between atoms: C_2  and  C_3
REMARK    2  A    between atoms: C_3  and  N_4
REMARK    3  A    between atoms: N_11  and  C_12
REMARK    4  A    between atoms: C_16  and  C_17
REMARK                            x       y       z     vdW  Elec       q    Type
REMARK                         _______ _______ _______ _____ _____    ______ ____
ROOT
ATOM      1  C   UNL     1       4.724   4.782  18.663  0.00  0.00    +0.000 A 
ATOM      2  C   UNL     1       4.395   3.647  19.403  0.00  0.00    +0.000 A 
ATOM      3  C   UNL     1       3.246   3.622  20.201  0.00  0.00    +0.000 A 
ATOM      4  C   UNL     1       2.436   4.752  20.316  0.00  0.00    +0.000 A 
ATOM      5  C   UNL     1       2.795   5.941  19.674  0.00  0.00    +0.000 A 
ATOM      6  C   UNL     1       3.927   5.930  18.822  0.00  0.00    +0.000 A 
ENDROOT
BRANCH   5   7
ATOM      7  C   UNL     1       2.033   7.170  19.945  0.00  0.00    +0.000 A 
ATOM      8  N   UNL     1       1.425   7.545  21.061  0.00  0.00    +0.000 NA
ATOM      9  C   UNL     1       0.888   8.795  20.814  0.00  0.00    +0.000 A 
ATOM     10  C   UNL     1       0.133   9.658  21.626  0.00  0.00    +0.000 A 
ATOM     11  C   UNL     1      -0.317  10.876  21.085  0.00  0.00    +0.000 A 
ATOM     12  C   UNL     1      -0.010  11.236  19.769  0.00  0.00    +0.000 A 
ATOM     13  C   UNL     1       0.771  10.408  18.961  0.00  0.00    +0.000 A 
ATOM     14  C   UNL     1       1.187   9.204  19.521  0.00  0.00    +0.000 A 
ATOM     15  N   UNL     1       1.946   8.188  19.017  0.00  0.00    +0.000 N 
ATOM     16  H   UNL     1       2.398   8.188  18.114  0.00  0.00    +0.000 HD
ENDBRANCH   5   7
BRANCH   1  19
ATOM     17  O   UNL     1       5.105   6.430  16.243  0.00  0.00    +0.000 OA
ATOM     18  C   UNL     1       5.939   5.609  16.626  0.00  0.00    +0.000 C 
ATOM     19  N   UNL     1       5.837   4.832  17.780  0.00  0.00    +0.000 N 
ATOM     20  H   UNL     1       6.693   4.393  18.100  0.00  0.00    +0.000 HD
BRANCH  18  21
ATOM     21  C   UNL     1       7.219   5.363  15.801  0.00  0.00    +0.000 C 
BRANCH  21  22
ATOM     22  N   UNL     1       6.937   4.749  14.501  0.00  0.00    +0.000 N 
ATOM     23  C   UNL     1       5.918   3.707  14.423  0.00  0.00    +0.000 C 
ATOM     24  C   UNL     1       5.312   3.608  13.034  0.00  0.00    +0.000 C 
ATOM     25  C   UNL     1       6.442   3.471  12.037  0.00  0.00    +0.000 C 
ATOM     26  N   UNL     1       7.432   4.499  12.241  0.00  0.00    +0.000 N 
ATOM     27  C   UNL     1       7.722   5.092  13.429  0.00  0.00    +0.000 C 
ATOM     28  O   UNL     1       8.641   5.906  13.502  0.00  0.00    +0.000 OA
ATOM     29  H   UNL     1       8.066   4.738  11.489  0.00  0.00    +0.000 HD
ENDBRANCH  21  22
ENDBRANCH  18  21
ENDBRANCH   1  19
TORSDOF 4
ENDMDL
MODEL 3
REMARK VINA RESULT:      -7.9      4.487      7.029
REMARK  Name = 
REMARK  4 active torsions:
REMARK  status: ('A' for Active; 'I' for Inactive)
REMARK    1  A    between atoms: C_2  and  C_3
REMARK    2  A    between atoms: C_3  and  N_4
REMARK    3  A    between atoms: N_11  and  C_12
REMARK    4  A    between atoms: C_16  and  C_17
REMARK                            x       y       z     vdW  Elec       q    Type
REMARK                         _______ _______ _______ _____ _____    ______ ____
ROOT
ATOM      1  C   UNL     1       1.450   9.745  18.124  0.00  0.00    +0.000 A 
ATOM      2  C   UNL     1       2.295  10.854  18.159  0.00  0.00    +0.000 A 
ATOM      3  C   UNL     1       1.800  12.122  18.481  0.00  0.00    +0.000 A 
ATOM      4  C   UNL     1       0.439  12.313  18.719  0.00  0.00    +0.000 A 
ATOM      5  C   UNL     1      -0.454  11.246  18.587  0.00  0.00    +0.000 A 
ATOM      6  C   UNL     1       0.073   9.957  18.320  0.00  0.00    +0.000 A 
ENDROOT
BRANCH   5   7
ATOM      7  C   UNL     1      -1.901  11.496  18.666  0.00  0.00    +0.000 A 
ATOM      8  N   UNL     1      -2.594  12.083  19.632  0.00  0.00    +0.000 NA
ATOM      9  C   UNL     1      -3.911  12.107  19.211  0.00  0.00    +0.000 A 
ATOM     10  C   UNL     1      -5.075  12.593  19.829  0.00  0.00    +0.000 A 
ATOM     11  C   UNL     1      -6.306  12.448  19.165  0.00  0.00    +0.000 A 
ATOM     12  C   UNL     1      -6.378  11.847  17.905  0.00  0.00    +0.000 A 
ATOM     13  C   UNL     1      -5.227  11.392  17.259  0.00  0.00    +0.000 A 
ATOM     14  C   UNL     1      -4.027  11.537  17.950  0.00  0.00    +0.000 A 
ATOM     15  N   UNL     1      -2.746  11.208  17.614  0.00  0.00    +0.000 N 
ATOM     16  H   UNL     1      -2.453  10.834  16.722  0.00  0.00    +0.000 HD
ENDBRANCH   5   7
BRANCH   1  19
ATOM     17  O   UNL     1       2.120   7.617  20.057  0.00  0.00    +0.000 OA
ATOM     18  C   UNL     1       2.253   7.476  18.841  0.00  0.00    +0.000 C 
ATOM     19  N   UNL     1       1.916   8.425  17.876  0.00  0.00    +0.000 N 
ATOM     20  H   UNL     1       1.842   8.087  16.923  0.00  0.00    +0.000 HD
BRANCH  18  21
ATOM     21  C   UNL     1       2.845   6.170  18.273  0.00  0.00    +0.000 C 
BRANCH  21  22
ATOM     22  N   UNL     1       2.371   4.983  18.989  0.00  0.00    +0.000 N 
ATOM     23  C   UNL     1       2.935   4.684  20.302  0.00  0.00    +0.000 C 
ATOM     24  C   UNL     1       1.984   3.861  21.153  0.00  0.00    +0.000 C 
ATOM     25  C   UNL     1       1.561   2.651  20.349  0.00  0.00    +0.000 C 
ATOM     26  N   UNL     1       1.089   3.042  19.045  0.00  0.00    +0.000 N 
ATOM     27  C   UNL     1       1.504   4.134  18.349  0.00  0.00    +0.000 C 
ATOM     28  O   UNL     1       1.089   4.331  17.209  0.00  0.00    +0.000 OA
ATOM     29  H   UNL     1       0.492   2.415  18.520  0.00  0.00    +0.000 HD
ENDBRANCH  21  22
ENDBRANCH  18  21
ENDBRANCH   1  19
TORSDOF 4
ENDMDL
MODEL 4
REMARK VINA RESULT:      -7.8      0.885      1.438
REMARK  Name = 
REMARK  4 active torsions:
REMARK  status: ('A' for Active; 'I' for Inactive)
REMARK    1  A    between atoms: C_2  and  C_3
REMARK    2  A    between atoms: C_3  and  N_4
REMARK    3  A    between atoms: N_11  and  C_12
REMARK    4  A    between atoms: C_16  and  C_17
REMARK                            x       y       z     vdW  Elec       q    Type
REMARK                         _______ _______ _______ _____ _____    ______ ____
ROOT
ATOM      1  C   UNL     1       4.111   5.067  17.614  0.00  0.00    +0.000 A 
ATOM      2  C   UNL     1       3.700   3.799  18.023  0.00  0.00    +0.000 A 
ATOM      3  C   UNL     1       2.612   3.643  18.888  0.00  0.00    +0.000 A 
ATOM      4  C   UNL     1       1.950   4.758  19.405  0.00  0.00    +0.000 A 
ATOM      5  C   UNL     1       2.403   6.045  19.103  0.00  0.00    +0.000 A 
ATOM      6  C   UNL     1       3.467   6.184  18.176  0.00  0.00    +0.000 A 
ENDROOT
BRANCH   5   7
ATOM      7  C   UNL     1       1.811   7.202  19.791  0.00  0.00    +0.000 A 
ATOM      8  N   UNL     1       1.370   7.295  21.038  0.00  0.00    +0.000 NA
ATOM      9  C   UNL     1       0.946   8.600  21.209  0.00  0.00    +0.000 A 
ATOM     10  C   UNL     1       0.380   9.255  22.315  0.00  0.00    +0.000 A 
ATOM     11  C   UNL     1       0.007  10.605  22.184  0.00  0.00    +0.000 A 
ATOM     12  C   UNL     1       0.209  11.295  20.985  0.00  0.00    +0.000 A 
ATOM     13  C   UNL     1       0.805  10.670  19.888  0.00  0.00    +0.000 A 
ATOM     14  C   UNL     1       1.147   9.330  20.045  0.00  0.00    +0.000 A 
ATOM     15  N   UNL     1       1.735   8.442  19.191  0.00  0.00    +0.000 N 
ATOM     16  H   UNL     1       2.085   8.662  18.269  0.00  0.00    +0.000 HD
ENDBRANCH   5   7
BRANCH   1  19
ATOM     17  O   UNL     1       6.969   4.365  17.839  0.00  0.00    +0.000 OA
ATOM     18  C   UNL     1       6.504   4.954  16.862  0.00  0.00    +0.000 C 
ATOM     19  N   UNL     1       5.160   5.276  16.678  0.00  0.00    +0.000 N 
ATOM     20  H   UNL     1       4.886   5.528  15.735  0.00  0.00    +0.000 HD
BRANCH  18  21
ATOM     21  C   UNL     1       7.434   5.410  15.719  0.00  0.00    +0.000 C 
BRANCH  21  22
ATOM     22  N   UNL     1       7.093   4.785  14.438  0.00  0.00    +0.000 N 
ATOM     23  C   UNL     1       6.109   3.708  14.422  0.00  0.00    +0.000 C 
ATOM     24  C   UNL     1       5.422   3.587  13.074  0.00  0.00    +0.000 C 
ATOM     25  C   UNL     1       6.492   3.489  12.009  0.00  0.00    +0.000 C 
ATOM     26  N   UNL     1       7.456   4.550  12.151  0.00  0.00    +0.000 N 
ATOM     27  C   UNL     1       7.799   5.154  13.320  0.00  0.00    +0.000 C 
ATOM     28  O   UNL     1       8.691   6.000  13.338  0.00  0.00    +0.000 OA
ATOM     29  H   UNL     1       8.034   4.811  11.362  0.00  0.00    +0.000 HD
ENDBRANCH  21  22
ENDBRANCH  18  21
ENDBRANCH   1  19
TORSDOF 4
ENDMDL
MODEL 5
REMARK VINA RESULT:      -7.8      4.488      9.836
REMARK  Name = 
REMARK  4 active torsions:
REMARK  status: ('A' for Active; 'I' for Inactive)
REMARK    1  A    between atoms: C_2  and  C_3
REMARK    2  A    between atoms: C_3  and  N_4
REMARK    3  A    between atoms: N_11  and  C_12
REMARK    4  A    between atoms: C_16  and  C_17
REMARK                            x       y       z     vdW  Elec       q    Type
REMARK                         _______ _______ _______ _____ _____    ______ ____
ROOT
ATOM      1  C   UNL     1       0.034   9.774  19.842  0.00  0.00    +0.000 A 
ATOM      2  C   UNL     1      -0.024   9.366  21.174  0.00  0.00    +0.000 A 
ATOM      3  C   UNL     1       0.868   8.409  21.669  0.00  0.00    +0.000 A 
ATOM      4  C   UNL     1       1.798   7.801  20.825  0.00  0.00    +0.000 A 
ATOM      5  C   UNL     1       1.812   8.106  19.461  0.00  0.00    +0.000 A 
ATOM      6  C   UNL     1       0.943   9.122  18.990  0.00  0.00    +0.000 A 
ENDROOT
BRANCH   5   7
ATOM      7  C   UNL     1       2.673   7.332  18.553  0.00  0.00    +0.000 A 
ATOM      8  N   UNL     1       3.547   7.770  17.658  0.00  0.00    +0.000 NA
ATOM      9  C   UNL     1       4.125   6.649  17.093  0.00  0.00    +0.000 A 
ATOM     10  C   UNL     1       5.098   6.511  16.089  0.00  0.00    +0.000 A 
ATOM     11  C   UNL     1       5.476   5.218  15.684  0.00  0.00    +0.000 A 
ATOM     12  C   UNL     1       4.910   4.085  16.275  0.00  0.00    +0.000 A 
ATOM     13  C   UNL     1       3.970   4.202  17.301  0.00  0.00    +0.000 A 
ATOM     14  C   UNL     1       3.607   5.495  17.666  0.00  0.00    +0.000 A 
ATOM     15  N   UNL     1       2.736   5.955  18.611  0.00  0.00    +0.000 N 
ATOM     16  H   UNL     1       2.232   5.380  19.272  0.00  0.00    +0.000 HD
ENDBRANCH   5   7
BRANCH   1  19
ATOM     17  O   UNL     1      -2.317   9.525  18.073  0.00  0.00    +0.000 OA
ATOM     18  C   UNL     1      -1.876  10.614  18.444  0.00  0.00    +0.000 C 
ATOM     19  N   UNL     1      -0.798  10.796  19.310  0.00  0.00    +0.000 N 
ATOM     20  H   UNL     1      -0.706  11.718  19.720  0.00  0.00    +0.000 HD
BRANCH  18  21
ATOM     21  C   UNL     1      -2.517  11.921  17.936  0.00  0.00    +0.000 C 
BRANCH  21  22
ATOM     22  N   UNL     1      -3.979  11.901  18.030  0.00  0.00    +0.000 N 
ATOM     23  C   UNL     1      -4.601  12.149  19.327  0.00  0.00    +0.000 C 
ATOM     24  C   UNL     1      -6.011  12.694  19.184  0.00  0.00    +0.000 C 
ATOM     25  C   UNL     1      -6.784  11.766  18.273  0.00  0.00    +0.000 C 
ATOM     26  N   UNL     1      -6.056  11.524  17.052  0.00  0.00    +0.000 N 
ATOM     27  C   UNL     1      -4.703  11.534  16.924  0.00  0.00    +0.000 C 
ATOM     28  O   UNL     1      -4.184  11.239  15.850  0.00  0.00    +0.000 OA
ATOM     29  H   UNL     1      -6.551  11.198  16.232  0.00  0.00    +0.000 HD
ENDBRANCH  21  22
ENDBRANCH  18  21
ENDBRANCH   1  19
TORSDOF 4
ENDMDL
MODEL 6
REMARK VINA RESULT:      -7.8      4.509      6.999
REMARK  Name = 
REMARK  4 active torsions:
REMARK  status: ('A' for Active; 'I' for Inactive)
REMARK    1  A    between atoms: C_2  and  C_3
REMARK    2  A    between atoms: C_3  and  N_4
REMARK    3  A    between atoms: N_11  and  C_12
REMARK    4  A    between atoms: C_16  and  C_17
REMARK                            x       y       z     vdW  Elec       q    Type
REMARK                         _______ _______ _______ _____ _____    ______ ____
ROOT
ATOM      1  C   UNL     1       1.372   9.716  18.142  0.00  0.00    +0.000 A 
ATOM      2  C   UNL     1       2.203  10.831  18.255  0.00  0.00    +0.000 A 
ATOM      3  C   UNL     1       1.675  12.089  18.561  0.00  0.00    +0.000 A 
ATOM      4  C   UNL     1       0.298  12.266  18.704  0.00  0.00    +0.000 A 
ATOM      5  C   UNL     1      -0.573  11.195  18.490  0.00  0.00    +0.000 A 
ATOM      6  C   UNL     1      -0.017   9.915  18.242  0.00  0.00    +0.000 A 
ENDROOT
BRANCH   5   7
ATOM      7  C   UNL     1      -2.024  11.433  18.469  0.00  0.00    +0.000 A 
ATOM      8  N   UNL     1      -2.922  11.033  17.579  0.00  0.00    +0.000 NA
ATOM      9  C   UNL     1      -4.149  11.481  18.031  0.00  0.00    +0.000 A 
ATOM     10  C   UNL     1      -5.439  11.360  17.489  0.00  0.00    +0.000 A 
ATOM     11  C   UNL     1      -6.518  11.959  18.165  0.00  0.00    +0.000 A 
ATOM     12  C   UNL     1      -6.321  12.648  19.365  0.00  0.00    +0.000 A 
ATOM     13  C   UNL     1      -5.052  12.746  19.939  0.00  0.00    +0.000 A 
ATOM     14  C   UNL     1      -4.005  12.157  19.236  0.00  0.00    +0.000 A 
ATOM     15  N   UNL     1      -2.671  12.068  19.510  0.00  0.00    +0.000 N 
ATOM     16  H   UNL     1      -2.224  12.394  20.356  0.00  0.00    +0.000 HD
ENDBRANCH   5   7
BRANCH   1  19
ATOM     17  O   UNL     1       2.094   7.625  20.096  0.00  0.00    +0.000 OA
ATOM     18  C   UNL     1       2.226   7.474  18.881  0.00  0.00    +0.000 C 
ATOM     19  N   UNL     1       1.866   8.404  17.908  0.00  0.00    +0.000 N 
ATOM     20  H   UNL     1       1.797   8.054  16.959  0.00  0.00    +0.000 HD
BRANCH  18  21
ATOM     21  C   UNL     1       2.845   6.175  18.327  0.00  0.00    +0.000 C 
BRANCH  21  22
ATOM     22  N   UNL     1       2.365   4.981  19.028  0.00  0.00    +0.000 N 
ATOM     23  C   UNL     1       2.916   4.671  20.343  0.00  0.00    +0.000 C 
ATOM     24  C   UNL     1       1.958   3.841  21.179  0.00  0.00    +0.000 C 
ATOM     25  C   UNL     1       1.543   2.638  20.361  0.00  0.00    +0.000 C 
ATOM     26  N   UNL     1       1.083   3.039  19.055  0.00  0.00    +0.000 N 
ATOM     27  C   UNL     1       1.504   4.137  18.373  0.00  0.00    +0.000 C 
ATOM     28  O   UNL     1       1.100   4.344  17.231  0.00  0.00    +0.000 OA
ATOM     29  H   UNL     1       0.492   2.417  18.520  0.00  0.00    +0.000 HD
ENDBRANCH  21  22
ENDBRANCH  18  21
ENDBRANCH   1  19
TORSDOF 4
ENDMDL
MODEL 7
REMARK VINA RESULT:      -7.8      4.438      9.811
REMARK  Name = 
REMARK  4 active torsions:
REMARK  status: ('A' for Active; 'I' for Inactive)
REMARK    1  A    between atoms: C_2  and  C_3
REMARK    2  A    between atoms: C_3  and  N_4
REMARK    3  A    between atoms: N_11  and  C_12
REMARK    4  A    between atoms: C_16  and  C_17
REMARK                            x       y       z     vdW  Elec       q    Type
REMARK                         _______ _______ _______ _____ _____    ______ ____
ROOT
ATOM      1  C   UNL     1       0.156   9.791  19.784  0.00  0.00    +0.000 A 
ATOM      2  C   UNL     1       0.137   9.537  21.155  0.00  0.00    +0.000 A 
ATOM      3  C   UNL     1       1.015   8.608  21.723  0.00  0.00    +0.000 A 
ATOM      4  C   UNL     1       1.891   7.876  20.920  0.00  0.00    +0.000 A 
ATOM      5  C   UNL     1       1.861   8.026  19.531  0.00  0.00    +0.000 A 
ATOM      6  C   UNL     1       1.009   9.015  18.979  0.00  0.00    +0.000 A 
ENDROOT
BRANCH   5   7
ATOM      7  C   UNL     1       2.659   7.124  18.687  0.00  0.00    +0.000 A 
ATOM      8  N   UNL     1       2.609   5.802  18.598  0.00  0.00    +0.000 NA
ATOM      9  C   UNL     1       3.533   5.437  17.636  0.00  0.00    +0.000 A 
ATOM     10  C   UNL     1       3.913   4.178  17.143  0.00  0.00    +0.000 A 
ATOM     11  C   UNL     1       4.926   4.109  16.170  0.00  0.00    +0.000 A 
ATOM     12  C   UNL     1       5.537   5.268  15.684  0.00  0.00    +0.000 A 
ATOM     13  C   UNL     1       5.146   6.530  16.135  0.00  0.00    +0.000 A 
ATOM     14  C   UNL     1       4.153   6.563  17.109  0.00  0.00    +0.000 A 
ATOM     15  N   UNL     1       3.551   7.606  17.751  0.00  0.00    +0.000 N 
ATOM     16  H   UNL     1       3.712   8.584  17.555  0.00  0.00    +0.000 HD
ENDBRANCH   5   7
BRANCH   1  19
ATOM     17  O   UNL     1      -2.235   9.433  18.089  0.00  0.00    +0.000 OA
ATOM     18  C   UNL     1      -1.761  10.540  18.345  0.00  0.00    +0.000 C 
ATOM     19  N   UNL     1      -0.662  10.778  19.170  0.00  0.00    +0.000 N 
ATOM     20  H   UNL     1      -0.540  11.733  19.487  0.00  0.00    +0.000 HD
BRANCH  18  21
ATOM     21  C   UNL     1      -2.380  11.809  17.723  0.00  0.00    +0.000 C 
BRANCH  21  22
ATOM     22  N   UNL     1      -3.837  11.852  17.874  0.00  0.00    +0.000 N 
ATOM     23  C   UNL     1      -4.398  12.162  19.185  0.00  0.00    +0.000 C 
ATOM     24  C   UNL     1      -5.790  12.760  19.080  0.00  0.00    +0.000 C 
ATOM     25  C   UNL     1      -6.634  11.838  18.227  0.00  0.00    +0.000 C 
ATOM     26  N   UNL     1      -5.965  11.531  16.987  0.00  0.00    +0.000 N 
ATOM     27  C   UNL     1      -4.618  11.482  16.808  0.00  0.00    +0.000 C 
ATOM     28  O   UNL     1      -4.154  11.135  15.724  0.00  0.00    +0.000 OA
ATOM     29  H   UNL     1      -6.504  11.202  16.197  0.00  0.00    +0.000 HD
ENDBRANCH  21  22
ENDBRANCH  18  21
ENDBRANCH   1  19
TORSDOF 4
ENDMDL
MODEL 8
REMARK VINA RESULT:      -7.8      2.779      3.546
REMARK  Name = 
REMARK  4 active torsions:
REMARK  status: ('A' for Active; 'I' for Inactive)
REMARK    1  A    between atoms: C_2  and  C_3
REMARK    2  A    between atoms: C_3  and  N_4
REMARK    3  A    between atoms: N_11  and  C_12
REMARK    4  A    between atoms: C_16  and  C_17
REMARK                            x       y       z     vdW  Elec       q    Type
REMARK                         _______ _______ _______ _____ _____    ______ ____
ROOT
ATOM      1  C   UNL     1       3.597   5.254  19.570  0.00  0.00    +0.000 A 
ATOM      2  C   UNL     1       2.928   4.110  20.005  0.00  0.00    +0.000 A 
ATOM      3  C   UNL     1       1.648   4.197  20.561  0.00  0.00    +0.000 A 
ATOM      4  C   UNL     1       1.035   5.437  20.743  0.00  0.00    +0.000 A 
ATOM      5  C   UNL     1       1.719   6.612  20.420  0.00  0.00    +0.000 A 
ATOM      6  C   UNL     1       2.990   6.502  19.802  0.00  0.00    +0.000 A 
ENDROOT
BRANCH   5   7
ATOM      7  C   UNL     1       1.137   7.913  20.780  0.00  0.00    +0.000 A 
ATOM      8  N   UNL     1       1.089   9.032  20.069  0.00  0.00    +0.000 NA
ATOM      9  C   UNL     1       0.403   9.956  20.835  0.00  0.00    +0.000 A 
ATOM     10  C   UNL     1       0.070  11.298  20.593  0.00  0.00    +0.000 A 
ATOM     11  C   UNL     1      -0.616  12.016  21.589  0.00  0.00    +0.000 A 
ATOM     12  C   UNL     1      -0.978  11.408  22.795  0.00  0.00    +0.000 A 
ATOM     13  C   UNL     1      -0.688  10.064  23.038  0.00  0.00    +0.000 A 
ATOM     14  C   UNL     1       0.005   9.387  22.039  0.00  0.00    +0.000 A 
ATOM     15  N   UNL     1       0.436   8.094  21.955  0.00  0.00    +0.000 N 
ATOM     16  H   UNL     1       0.249   7.371  22.635  0.00  0.00    +0.000 HD
ENDBRANCH   5   7
BRANCH   1  19
ATOM     17  O   UNL     1       4.476   3.600  17.289  0.00  0.00    +0.000 OA
ATOM     18  C   UNL     1       5.230   4.376  17.877  0.00  0.00    +0.000 C 
ATOM     19  N   UNL     1       4.866   5.212  18.931  0.00  0.00    +0.000 N 
ATOM     20  H   UNL     1       5.510   5.965  19.148  0.00  0.00    +0.000 HD
BRANCH  18  21
ATOM     21  C   UNL     1       6.715   4.469  17.470  0.00  0.00    +0.000 C 
BRANCH  21  22
ATOM     22  N   UNL     1       7.290   5.787  17.750  0.00  0.00    +0.000 N 
ATOM     23  C   UNL     1       7.236   6.811  16.712  0.00  0.00    +0.000 C 
ATOM     24  C   UNL     1       7.282   8.213  17.295  0.00  0.00    +0.000 C 
ATOM     25  C   UNL     1       8.481   8.299  18.215  0.00  0.00    +0.000 C 
ATOM     26  N   UNL     1       8.486   7.206  19.154  0.00  0.00    +0.000 N 
ATOM     27  C   UNL     1       7.963   5.971  18.931  0.00  0.00    +0.000 C 
ATOM     28  O   UNL     1       8.090   5.088  19.777  0.00  0.00    +0.000 OA
ATOM     29  H   UNL     1       9.018   7.286  20.011  0.00  0.00    +0.000 HD
ENDBRANCH  21  22
ENDBRANCH  18  21
ENDBRANCH   1  19
TORSDOF 4
ENDMDL
MODEL 9
REMARK VINA RESULT:      -7.7      1.600      2.036
REMARK  Name = 
REMARK  4 active torsions:
REMARK  status: ('A' for Active; 'I' for Inactive)
REMARK    1  A    between atoms: C_2  and  C_3
REMARK    2  A    between atoms: C_3  and  N_4
REMARK    3  A    between atoms: N_11  and  C_12
REMARK    4  A    between atoms: C_16  and  C_17
REMARK                            x       y       z     vdW  Elec       q    Type
REMARK                         _______ _______ _______ _____ _____    ______ ____
ROOT
ATOM      1  C   UNL     1       3.872   4.888  19.331  0.00  0.00    +0.000 A 
ATOM      2  C   UNL     1       3.301   3.790  19.974  0.00  0.00    +0.000 A 
ATOM      3  C   UNL     1       2.100   3.918  20.679  0.00  0.00    +0.000 A 
ATOM      4  C   UNL     1       1.476   5.160  20.799  0.00  0.00    +0.000 A 
ATOM      5  C   UNL     1       2.075   6.302  20.260  0.00  0.00    +0.000 A 
ATOM      6  C   UNL     1       3.259   6.144  19.498  0.00  0.00    +0.000 A 
ENDROOT
BRANCH   5   7
ATOM      7  C   UNL     1       1.501   7.626  20.545  0.00  0.00    +0.000 A 
ATOM      8  N   UNL     1       1.474   8.706  19.777  0.00  0.00    +0.000 NA
ATOM      9  C   UNL     1       0.789   9.675  20.486  0.00  0.00    +0.000 A 
ATOM     10  C   UNL     1       0.472  11.007  20.171  0.00  0.00    +0.000 A 
ATOM     11  C   UNL     1      -0.219  11.781  21.120  0.00  0.00    +0.000 A 
ATOM     12  C   UNL     1      -0.602  11.240  22.350  0.00  0.00    +0.000 A 
ATOM     13  C   UNL     1      -0.329   9.907  22.665  0.00  0.00    +0.000 A 
ATOM     14  C   UNL     1       0.369   9.173  21.712  0.00  0.00    +0.000 A 
ATOM     15  N   UNL     1       0.787   7.874  21.700  0.00  0.00    +0.000 N 
ATOM     16  H   UNL     1       0.585   7.188  22.414  0.00  0.00    +0.000 HD
ENDBRANCH   5   7
BRANCH   1  19
ATOM     17  O   UNL     1       6.686   5.278  20.134  0.00  0.00    +0.000 OA
ATOM     18  C   UNL     1       6.353   5.031  18.974  0.00  0.00    +0.000 C 
ATOM     19  N   UNL     1       5.049   4.796  18.540  0.00  0.00    +0.000 N 
ATOM     20  H   UNL     1       4.953   4.364  17.628  0.00  0.00    +0.000 HD
BRANCH  18  21
ATOM     21  C   UNL     1       7.418   4.973  17.859  0.00  0.00    +0.000 C 
BRANCH  21  22
ATOM     22  N   UNL     1       6.828   5.002  16.519  0.00  0.00    +0.000 N 
ATOM     23  C   UNL     1       6.952   3.821  15.672  0.00  0.00    +0.000 C 
ATOM     24  C   UNL     1       5.840   3.743  14.640  0.00  0.00    +0.000 C 
ATOM     25  C   UNL     1       5.798   5.060  13.896  0.00  0.00    +0.000 C 
ATOM     26  N   UNL     1       5.751   6.168  14.816  0.00  0.00    +0.000 N 
ATOM     27  C   UNL     1       6.286   6.179  16.066  0.00  0.00    +0.000 C 
ATOM     28  O   UNL     1       6.253   7.207  16.740  0.00  0.00    +0.000 OA
ATOM     29  H   UNL     1       5.409   7.066  14.501  0.00  0.00    +0.000 HD
ENDBRANCH  21  22
ENDBRANCH  18  21
ENDBRANCH   1  19
TORSDOF 4
ENDMDL
