MODEL 1
REMARK VINA RESULT:      -8.7      0.000      0.000
REMARK  Name = 
REMARK  7 active torsions:
REMARK  status: ('A' for Active; 'I' for Inactive)
REMARK    1  A    between atoms: C_1  and  O_2
REMARK    2  A    between atoms: O_2  and  C_3
REMARK    3  A    between atoms: C_8  and  C_9
REMARK    4  A    between atoms: C_12  and  C_13
REMARK    5  A    between atoms: C_13  and  N_14
REMARK    6  A    between atoms: C_17  and  C_18
REMARK    7  A    between atoms: N_19  and  C_20
REMARK                            x       y       z     vdW  Elec       q    Type
REMARK                         _______ _______ _______ _____ _____    ______ ____
ROOT
ATOM      1  C   UNL     1       7.795   6.429  18.587  0.00  0.00    +0.000 C 
ENDROOT
BRANCH   1   2
ATOM      2  N   UNL     1       6.639   6.047  17.808  0.00  0.00    +0.000 N 
ATOM      3  C   UNL     1       6.654   5.783  16.477  0.00  0.00    +0.000 C 
ATOM      4  O   UNL     1       7.580   6.020  15.713  0.00  0.00    +0.000 OA
ATOM      5  C   UNL     1       5.343   5.095  16.087  0.00  0.00    +0.000 C 
ATOM      6  C   UNL     1       5.708   3.860  15.265  0.00  0.00    +0.000 C 
ATOM      7  N   UNL     1       4.754   4.890  17.405  0.00  0.00    +0.000 N 
ATOM      8  C   UNL     1       5.503   5.566  18.384  0.00  0.00    +0.000 C 
ATOM      9  O   UNL     1       5.258   5.696  19.573  0.00  0.00    +0.000 OA
BRANCH   7  10
ATOM     10  C   UNL     1       3.655   4.026  17.693  0.00  0.00    +0.000 A 
ATOM     11  C   UNL     1       2.335   4.510  17.698  0.00  0.00    +0.000 A 
ATOM     12  C   UNL     1       1.260   3.726  18.111  0.00  0.00    +0.000 A 
ATOM     13  C   UNL     1       1.476   2.422  18.533  0.00  0.00    +0.000 A 
ATOM     14  C   UNL     1       2.767   1.899  18.494  0.00  0.00    +0.000 A 
ATOM     15  C   UNL     1       3.838   2.685  18.051  0.00  0.00    +0.000 A 
ENDBRANCH   7  10
ENDBRANCH   1   2
BRANCH   1  19
ATOM     16  C   UNL     1       8.850   9.827  18.521  0.00  0.00    +0.000 A 
ATOM     17  N   UNL     1       7.773   9.908  17.724  0.00  0.00    +0.000 NA
ATOM     18  O   UNL     1       7.305   8.605  17.658  0.00  0.00    +0.000 OA
ATOM     19  C   UNL     1       8.163   7.846  18.389  0.00  0.00    +0.000 A 
ATOM     20  N   UNL     1       9.146   8.537  18.919  0.00  0.00    +0.000 NA
BRANCH  16  26
ATOM     21  C   UNL     1       9.644  11.535  20.187  0.00  0.00    +0.000 A 
ATOM     22  C   UNL     1      10.409  12.680  20.448  0.00  0.00    +0.000 A 
ATOM     23  C   UNL     1      11.241  13.222  19.464  0.00  0.00    +0.000 A 
ATOM     24  C   UNL     1      11.331  12.619  18.214  0.00  0.00    +0.000 A 
ATOM     25  C   UNL     1      10.557  11.493  17.935  0.00  0.00    +0.000 A 
ATOM     26  C   UNL     1       9.687  10.960  18.900  0.00  0.00    +0.000 A 
BRANCH  21  28
ATOM     27  C   UNL     1       8.457  11.650  22.266  0.00  0.00    +0.000 C 
ATOM     28  O   UNL     1       8.865  10.911  21.125  0.00  0.00    +0.000 OA
ENDBRANCH  21  28
ENDBRANCH  16  26
ENDBRANCH   1  19
TORSDOF 5
ENDMDL
MODEL 2
REMARK VINA RESULT:      -8.4      1.153      1.524
REMARK  Name = 
REMARK  7 active torsions:
REMARK  status: ('A' for Active; 'I' for Inactive)
REMARK    1  A    between atoms: C_1  and  O_2
REMARK    2  A    between atoms: O_2  and  C_3
REMARK    3  A    between atoms: C_8  and  C_9
REMARK    4  A    between atoms: C_12  and  C_13
REMARK    5  A    between atoms: C_13  and  N_14
REMARK    6  A    between atoms: C_17  and  C_18
REMARK    7  A    between atoms: N_19  and  C_20
REMARK                            x       y       z     vdW  Elec       q    Type
REMARK                         _______ _______ _______ _____ _____    ______ ____
ROOT
ATOM      1  C   UNL     1       7.810   6.375  18.392  0.00  0.00    +0.000 C 
ENDROOT
BRANCH   1   2
ATOM      2  N   UNL     1       6.653   5.970  17.625  0.00  0.00    +0.000 N 
ATOM      3  C   UNL     1       6.675   5.632  16.311  0.00  0.00    +0.000 C 
ATOM      4  O   UNL     1       7.611   5.811  15.543  0.00  0.00    +0.000 OA
ATOM      5  C   UNL     1       5.355   4.945  15.948  0.00  0.00    +0.000 C 
ATOM      6  C   UNL     1       5.706   3.660  15.199  0.00  0.00    +0.000 C 
ATOM      7  N   UNL     1       4.753   4.823  17.270  0.00  0.00    +0.000 N 
ATOM      8  C   UNL     1       5.505   5.540  18.216  0.00  0.00    +0.000 C 
ATOM      9  O   UNL     1       5.253   5.739  19.394  0.00  0.00    +0.000 OA
BRANCH   7  10
ATOM     10  C   UNL     1       3.637   3.995  17.595  0.00  0.00    +0.000 A 
ATOM     11  C   UNL     1       2.342   4.531  17.703  0.00  0.00    +0.000 A 
ATOM     12  C   UNL     1       1.262   3.776  18.155  0.00  0.00    +0.000 A 
ATOM     13  C   UNL     1       1.447   2.450  18.513  0.00  0.00    +0.000 A 
ATOM     14  C   UNL     1       2.709   1.875  18.372  0.00  0.00    +0.000 A 
ATOM     15  C   UNL     1       3.783   2.633  17.891  0.00  0.00    +0.000 A 
ENDBRANCH   7  10
ENDBRANCH   1   2
BRANCH   1  19
ATOM     16  C   UNL     1       8.632   9.837  18.445  0.00  0.00    +0.000 A 
ATOM     17  N   UNL     1       7.717   9.836  17.463  0.00  0.00    +0.000 NA
ATOM     18  O   UNL     1       7.356   8.504  17.341  0.00  0.00    +0.000 OA
ATOM     19  C   UNL     1       8.113   7.813  18.232  0.00  0.00    +0.000 A 
ATOM     20  N   UNL     1       8.934   8.575  18.918  0.00  0.00    +0.000 NA
BRANCH  16  26
ATOM     21  C   UNL     1       9.126  12.302  18.364  0.00  0.00    +0.000 A 
ATOM     22  C   UNL     1       9.881  13.382  18.839  0.00  0.00    +0.000 A 
ATOM     23  C   UNL     1      10.770  13.218  19.905  0.00  0.00    +0.000 A 
ATOM     24  C   UNL     1      10.904  11.977  20.519  0.00  0.00    +0.000 A 
ATOM     25  C   UNL     1      10.175  10.889  20.041  0.00  0.00    +0.000 A 
ATOM     26  C   UNL     1       9.309  11.029  18.944  0.00  0.00    +0.000 A 
BRANCH  21  28
ATOM     27  C   UNL     1       7.295  13.511  17.401  0.00  0.00    +0.000 C 
ATOM     28  O   UNL     1       8.187  12.408  17.373  0.00  0.00    +0.000 OA
ENDBRANCH  21  28
ENDBRANCH  16  26
ENDBRANCH   1  19
TORSDOF 5
ENDMDL
MODEL 3
REMARK VINA RESULT:      -8.3      0.925      1.761
REMARK  Name = 
REMARK  7 active torsions:
REMARK  status: ('A' for Active; 'I' for Inactive)
REMARK    1  A    between atoms: C_1  and  O_2
REMARK    2  A    between atoms: O_2  and  C_3
REMARK    3  A    between atoms: C_8  and  C_9
REMARK    4  A    between atoms: C_12  and  C_13
REMARK    5  A    between atoms: C_13  and  N_14
REMARK    6  A    between atoms: C_17  and  C_18
REMARK    7  A    between atoms: N_19  and  C_20
REMARK                            x       y       z     vdW  Elec       q    Type
REMARK                         _______ _______ _______ _____ _____    ______ ____
ROOT
ATOM      1  C   UNL     1       7.975   6.298  18.414  0.00  0.00    +0.000 C 
ENDROOT
BRANCH   1   2
ATOM      2  N   UNL     1       6.769   5.992  17.678  0.00  0.00    +0.000 N 
ATOM      3  C   UNL     1       6.713   5.765  16.341  0.00  0.00    +0.000 C 
ATOM      4  O   UNL     1       7.614   5.981  15.542  0.00  0.00    +0.000 OA
ATOM      5  C   UNL     1       5.355   5.150  15.994  0.00  0.00    +0.000 C 
ATOM      6  C   UNL     1       5.625   3.922  15.124  0.00  0.00    +0.000 C 
ATOM      7  N   UNL     1       4.816   4.934  17.331  0.00  0.00    +0.000 N 
ATOM      8  C   UNL     1       5.638   5.547  18.292  0.00  0.00    +0.000 C 
ATOM      9  O   UNL     1       5.453   5.654  19.494  0.00  0.00    +0.000 OA
BRANCH   7  10
ATOM     10  C   UNL     1       3.692   4.114  17.646  0.00  0.00    +0.000 A 
ATOM     11  C   UNL     1       2.396   4.655  17.720  0.00  0.00    +0.000 A 
ATOM     12  C   UNL     1       1.306   3.910  18.161  0.00  0.00    +0.000 A 
ATOM     13  C   UNL     1       1.479   2.588  18.542  0.00  0.00    +0.000 A 
ATOM     14  C   UNL     1       2.742   2.008  18.434  0.00  0.00    +0.000 A 
ATOM     15  C   UNL     1       3.828   2.756  17.964  0.00  0.00    +0.000 A 
ENDBRANCH   7  10
ENDBRANCH   1   2
BRANCH   1  19
ATOM     16  C   UNL     1       8.750   9.745  18.843  0.00  0.00    +0.000 A 
ATOM     17  N   UNL     1       7.981   9.820  17.746  0.00  0.00    +0.000 NA
ATOM     18  O   UNL     1       7.653   8.501  17.474  0.00  0.00    +0.000 OA
ATOM     19  C   UNL     1       8.284   7.743  18.408  0.00  0.00    +0.000 A 
ATOM     20  N   UNL     1       8.995   8.450  19.257  0.00  0.00    +0.000 NA
BRANCH  16  26
ATOM     21  C   UNL     1      10.257  11.758  18.888  0.00  0.00    +0.000 A 
ATOM     22  C   UNL     1      10.851  12.785  19.633  0.00  0.00    +0.000 A 
ATOM     23  C   UNL     1      10.509  12.986  20.973  0.00  0.00    +0.000 A 
ATOM     24  C   UNL     1       9.557  12.174  21.581  0.00  0.00    +0.000 A 
ATOM     25  C   UNL     1       8.975  11.134  20.857  0.00  0.00    +0.000 A 
ATOM     26  C   UNL     1       9.339  10.894  19.522  0.00  0.00    +0.000 A 
BRANCH  21  28
ATOM     27  C   UNL     1      11.178  12.555  16.824  0.00  0.00    +0.000 C 
ATOM     28  O   UNL     1      10.493  11.550  17.555  0.00  0.00    +0.000 OA
ENDBRANCH  21  28
ENDBRANCH  16  26
ENDBRANCH   1  19
TORSDOF 5
ENDMDL
MODEL 4
REMARK VINA RESULT:      -7.8      6.464      9.506
REMARK  Name = 
REMARK  7 active torsions:
REMARK  status: ('A' for Active; 'I' for Inactive)
REMARK    1  A    between atoms: C_1  and  O_2
REMARK    2  A    between atoms: O_2  and  C_3
REMARK    3  A    between atoms: C_8  and  C_9
REMARK    4  A    between atoms: C_12  and  C_13
REMARK    5  A    between atoms: C_13  and  N_14
REMARK    6  A    between atoms: C_17  and  C_18
REMARK    7  A    between atoms: N_19  and  C_20
REMARK                            x       y       z     vdW  Elec       q    Type
REMARK                         _______ _______ _______ _____ _____    ______ ____
ROOT
ATOM      1  C   UNL     1       1.845   9.925  17.975  0.00  0.00    +0.000 C 
ENDROOT
BRANCH   1   2
ATOM      2  N   UNL     1       0.706  10.548  18.611  0.00  0.00    +0.000 N 
ATOM      3  C   UNL     1       0.763  11.663  19.383  0.00  0.00    +0.000 C 
ATOM      4  O   UNL     1       1.785  12.180  19.816  0.00  0.00    +0.000 OA
ATOM      5  C   UNL     1      -0.655  12.203  19.590  0.00  0.00    +0.000 C 
ATOM      6  C   UNL     1      -0.618  13.698  19.275  0.00  0.00    +0.000 C 
ATOM      7  N   UNL     1      -1.399  11.333  18.688  0.00  0.00    +0.000 N 
ATOM      8  C   UNL     1      -0.572  10.299  18.215  0.00  0.00    +0.000 C 
ATOM      9  O   UNL     1      -0.875   9.340  17.522  0.00  0.00    +0.000 OA
BRANCH   7  10
ATOM     10  C   UNL     1      -2.735  11.558  18.239  0.00  0.00    +0.000 A 
ATOM     11  C   UNL     1      -3.742  11.963  19.133  0.00  0.00    +0.000 A 
ATOM     12  C   UNL     1      -5.078  12.054  18.751  0.00  0.00    +0.000 A 
ATOM     13  C   UNL     1      -5.451  11.742  17.453  0.00  0.00    +0.000 A 
ATOM     14  C   UNL     1      -4.469  11.383  16.530  0.00  0.00    +0.000 A 
ATOM     15  C   UNL     1      -3.124  11.321  16.914  0.00  0.00    +0.000 A 
ENDBRANCH   7  10
ENDBRANCH   1   2
BRANCH   1  19
ATOM     16  C   UNL     1       2.403   6.526  18.871  0.00  0.00    +0.000 A 
ATOM     17  N   UNL     1       2.014   7.014  20.059  0.00  0.00    +0.000 NA
ATOM     18  O   UNL     1       1.805   8.362  19.818  0.00  0.00    +0.000 OA
ATOM     19  C   UNL     1       2.122   8.578  18.515  0.00  0.00    +0.000 A 
ATOM     20  N   UNL     1       2.523   7.493  17.891  0.00  0.00    +0.000 NA
BRANCH  16  26
ATOM     21  C   UNL     1       4.008   4.591  18.903  0.00  0.00    +0.000 A 
ATOM     22  C   UNL     1       4.282   3.264  18.546  0.00  0.00    +0.000 A 
ATOM     23  C   UNL     1       3.298   2.465  17.958  0.00  0.00    +0.000 A 
ATOM     24  C   UNL     1       2.024   2.976  17.734  0.00  0.00    +0.000 A 
ATOM     25  C   UNL     1       1.745   4.301  18.064  0.00  0.00    +0.000 A 
ATOM     26  C   UNL     1       2.736   5.129  18.618  0.00  0.00    +0.000 A 
BRANCH  21  28
ATOM     27  C   UNL     1       6.237   5.455  19.069  0.00  0.00    +0.000 C 
ATOM     28  O   UNL     1       4.901   5.406  19.546  0.00  0.00    +0.000 OA
ENDBRANCH  21  28
ENDBRANCH  16  26
ENDBRANCH   1  19
TORSDOF 5
ENDMDL
MODEL 5
REMARK VINA RESULT:      -7.6      6.666      9.666
REMARK  Name = 
REMARK  7 active torsions:
REMARK  status: ('A' for Active; 'I' for Inactive)
REMARK    1  A    between atoms: C_1  and  O_2
REMARK    2  A    between atoms: O_2  and  C_3
REMARK    3  A    between atoms: C_8  and  C_9
REMARK    4  A    between atoms: C_12  and  C_13
REMARK    5  A    between atoms: C_13  and  N_14
REMARK    6  A    between atoms: C_17  and  C_18
REMARK    7  A    between atoms: N_19  and  C_20
REMARK                            x       y       z     vdW  Elec       q    Type
REMARK                         _______ _______ _______ _____ _____    ______ ____
ROOT
ATOM      1  C   UNL     1       1.559  10.135  18.161  0.00  0.00    +0.000 C 
ENDROOT
BRANCH   1   2
ATOM      2  N   UNL     1       0.363  10.574  18.844  0.00  0.00    +0.000 N 
ATOM      3  C   UNL     1       0.330  11.517  19.820  0.00  0.00    +0.000 C 
ATOM      4  O   UNL     1       1.303  11.979  20.400  0.00  0.00    +0.000 OA
ATOM      5  C   UNL     1      -1.121  11.949  20.051  0.00  0.00    +0.000 C 
ATOM      6  C   UNL     1      -1.145  13.477  20.036  0.00  0.00    +0.000 C 
ATOM      7  N   UNL     1      -1.780  11.244  18.958  0.00  0.00    +0.000 N 
ATOM      8  C   UNL     1      -0.883  10.358  18.338  0.00  0.00    +0.000 C 
ATOM      9  O   UNL     1      -1.106   9.543  17.457  0.00  0.00    +0.000 OA
BRANCH   7  10
ATOM     10  C   UNL     1      -3.104  11.500  18.490  0.00  0.00    +0.000 A 
ATOM     11  C   UNL     1      -3.445  11.313  17.139  0.00  0.00    +0.000 A 
ATOM     12  C   UNL     1      -4.686  11.688  16.629  0.00  0.00    +0.000 A 
ATOM     13  C   UNL     1      -5.632  12.263  17.464  0.00  0.00    +0.000 A 
ATOM     14  C   UNL     1      -5.342  12.418  18.818  0.00  0.00    +0.000 A 
ATOM     15  C   UNL     1      -4.102  12.013  19.329  0.00  0.00    +0.000 A 
ENDBRANCH   7  10
ENDBRANCH   1   2
BRANCH   1  19
ATOM     16  C   UNL     1       2.380   6.719  18.728  0.00  0.00    +0.000 A 
ATOM     17  N   UNL     1       2.131   7.105  19.989  0.00  0.00    +0.000 NA
ATOM     18  O   UNL     1       1.832   8.454  19.875  0.00  0.00    +0.000 OA
ATOM     19  C   UNL     1       1.964   8.771  18.561  0.00  0.00    +0.000 A 
ATOM     20  N   UNL     1       2.326   7.754  17.813  0.00  0.00    +0.000 NA
BRANCH  16  26
ATOM     21  C   UNL     1       4.076   4.960  18.132  0.00  0.00    +0.000 A 
ATOM     22  C   UNL     1       4.335   3.665  17.663  0.00  0.00    +0.000 A 
ATOM     23  C   UNL     1       3.291   2.764  17.440  0.00  0.00    +0.000 A 
ATOM     24  C   UNL     1       1.976   3.139  17.698  0.00  0.00    +0.000 A 
ATOM     25  C   UNL     1       1.703   4.431  18.143  0.00  0.00    +0.000 A 
ATOM     26  C   UNL     1       2.738   5.361  18.333  0.00  0.00    +0.000 A 
BRANCH  21  28
ATOM     27  C   UNL     1       6.149   5.441  19.235  0.00  0.00    +0.000 C 
ATOM     28  O   UNL     1       5.054   5.868  18.439  0.00  0.00    +0.000 OA
ENDBRANCH  21  28
ENDBRANCH  16  26
ENDBRANCH   1  19
TORSDOF 5
ENDMDL
MODEL 6
REMARK VINA RESULT:      -7.6      6.089      6.994
REMARK  Name = 
REMARK  7 active torsions:
REMARK  status: ('A' for Active; 'I' for Inactive)
REMARK    1  A    between atoms: C_1  and  O_2
REMARK    2  A    between atoms: O_2  and  C_3
REMARK    3  A    between atoms: C_8  and  C_9
REMARK    4  A    between atoms: C_12  and  C_13
REMARK    5  A    between atoms: C_13  and  N_14
REMARK    6  A    between atoms: C_17  and  C_18
REMARK    7  A    between atoms: N_19  and  C_20
REMARK                            x       y       z     vdW  Elec       q    Type
REMARK                         _______ _______ _______ _____ _____    ______ ____
ROOT
ATOM      1  C   UNL     1       0.396   9.864  19.240  0.00  0.00    +0.000 C 
ENDROOT
BRANCH   1   2
ATOM      2  N   UNL     1       1.384   8.835  19.470  0.00  0.00    +0.000 N 
ATOM      3  C   UNL     1       1.450   8.059  20.582  0.00  0.00    +0.000 C 
ATOM      4  O   UNL     1       0.830   8.245  21.620  0.00  0.00    +0.000 OA
ATOM      5  C   UNL     1       2.394   6.882  20.317  0.00  0.00    +0.000 C 
ATOM      6  C   UNL     1       1.666   5.613  20.758  0.00  0.00    +0.000 C 
ATOM      7  N   UNL     1       2.646   7.066  18.893  0.00  0.00    +0.000 N 
ATOM      8  C   UNL     1       2.118   8.294  18.459  0.00  0.00    +0.000 C 
ATOM      9  O   UNL     1       2.221   8.821  17.362  0.00  0.00    +0.000 OA
BRANCH   7  10
ATOM     10  C   UNL     1       3.228   6.093  18.026  0.00  0.00    +0.000 A 
ATOM     11  C   UNL     1       2.595   4.859  17.792  0.00  0.00    +0.000 A 
ATOM     12  C   UNL     1       3.205   3.840  17.065  0.00  0.00    +0.000 A 
ATOM     13  C   UNL     1       4.477   4.027  16.543  0.00  0.00    +0.000 A 
ATOM     14  C   UNL     1       5.110   5.256  16.718  0.00  0.00    +0.000 A 
ATOM     15  C   UNL     1       4.479   6.285  17.426  0.00  0.00    +0.000 A 
ENDBRANCH   7  10
ENDBRANCH   1   2
BRANCH   1  19
ATOM     16  C   UNL     1       1.877  13.094  19.433  0.00  0.00    +0.000 A 
ATOM     17  N   UNL     1       1.863  12.773  20.735  0.00  0.00    +0.000 NA
ATOM     18  O   UNL     1       1.261  11.525  20.768  0.00  0.00    +0.000 OA
ATOM     19  C   UNL     1       0.930  11.220  19.486  0.00  0.00    +0.000 A 
ATOM     20  N   UNL     1       1.258  12.158  18.627  0.00  0.00    +0.000 NA
BRANCH  16  26
ATOM     21  C   UNL     1       1.665  15.516  18.786  0.00  0.00    +0.000 A 
ATOM     22  C   UNL     1       2.232  16.638  18.170  0.00  0.00    +0.000 A 
ATOM     23  C   UNL     1       3.550  16.608  17.705  0.00  0.00    +0.000 A 
ATOM     24  C   UNL     1       4.322  15.462  17.866  0.00  0.00    +0.000 A 
ATOM     25  C   UNL     1       3.762  14.331  18.457  0.00  0.00    +0.000 A 
ATOM     26  C   UNL     1       2.426  14.333  18.891  0.00  0.00    +0.000 A 
BRANCH  21  28
ATOM     27  C   UNL     1      -0.547  16.437  18.850  0.00  0.00    +0.000 C 
ATOM     28  O   UNL     1       0.406  15.499  19.326  0.00  0.00    +0.000 OA
ENDBRANCH  21  28
ENDBRANCH  16  26
ENDBRANCH   1  19
TORSDOF 5
ENDMDL
MODEL 7
REMARK VINA RESULT:      -7.4      6.896      9.631
REMARK  Name = 
REMARK  7 active torsions:
REMARK  status: ('A' for Active; 'I' for Inactive)
REMARK    1  A    between atoms: C_1  and  O_2
REMARK    2  A    between atoms: O_2  and  C_3
REMARK    3  A    between atoms: C_8  and  C_9
REMARK    4  A    between atoms: C_12  and  C_13
REMARK    5  A    between atoms: C_13  and  N_14
REMARK    6  A    between atoms: C_17  and  C_18
REMARK    7  A    between atoms: N_19  and  C_20
REMARK                            x       y       z     vdW  Elec       q    Type
REMARK                         _______ _______ _______ _____ _____    ______ ____
ROOT
ATOM      1  C   UNL     1       0.870  10.259  18.078  0.00  0.00    +0.000 C 
ENDROOT
BRANCH   1   2
ATOM      2  N   UNL     1       0.646  11.007  19.295  0.00  0.00    +0.000 N 
ATOM      3  C   UNL     1       1.327  12.125  19.653  0.00  0.00    +0.000 C 
ATOM      4  O   UNL     1       2.345  12.544  19.117  0.00  0.00    +0.000 OA
ATOM      5  C   UNL     1       0.592  12.811  20.808  0.00  0.00    +0.000 C 
ATOM      6  C   UNL     1       0.454  14.289  20.441  0.00  0.00    +0.000 C 
ATOM      7  N   UNL     1      -0.620  12.004  20.862  0.00  0.00    +0.000 N 
ATOM      8  C   UNL     1      -0.497  10.882  20.024  0.00  0.00    +0.000 C 
ATOM      9  O   UNL     1      -1.268   9.946  19.889  0.00  0.00    +0.000 OA
BRANCH   7  10
ATOM     10  C   UNL     1      -1.815  12.355  21.558  0.00  0.00    +0.000 A 
ATOM     11  C   UNL     1      -1.952  12.109  22.936  0.00  0.00    +0.000 A 
ATOM     12  C   UNL     1      -3.154  12.311  23.609  0.00  0.00    +0.000 A 
ATOM     13  C   UNL     1      -4.265  12.773  22.919  0.00  0.00    +0.000 A 
ATOM     14  C   UNL     1      -4.148  13.072  21.563  0.00  0.00    +0.000 A 
ATOM     15  C   UNL     1      -2.929  12.892  20.899  0.00  0.00    +0.000 A 
ENDBRANCH   7  10
ENDBRANCH   1   2
BRANCH   1  19
ATOM     16  C   UNL     1       2.829   7.290  18.186  0.00  0.00    +0.000 A 
ATOM     17  N   UNL     1       2.460   7.366  19.474  0.00  0.00    +0.000 NA
ATOM     18  O   UNL     1       1.710   8.529  19.542  0.00  0.00    +0.000 OA
ATOM     19  C   UNL     1       1.724   9.074  18.297  0.00  0.00    +0.000 A 
ATOM     20  N   UNL     1       2.419   8.372  17.430  0.00  0.00    +0.000 NA
BRANCH  16  26
ATOM     21  C   UNL     1       3.193   4.880  17.568  0.00  0.00    +0.000 A 
ATOM     22  C   UNL     1       4.063   3.890  17.093  0.00  0.00    +0.000 A 
ATOM     23  C   UNL     1       5.340   4.223  16.630  0.00  0.00    +0.000 A 
ATOM     24  C   UNL     1       5.756   5.550  16.620  0.00  0.00    +0.000 A 
ATOM     25  C   UNL     1       4.908   6.542  17.112  0.00  0.00    +0.000 A 
ATOM     26  C   UNL     1       3.639   6.218  17.618  0.00  0.00    +0.000 A 
BRANCH  21  28
ATOM     27  C   UNL     1       1.535   3.297  18.266  0.00  0.00    +0.000 C 
ATOM     28  O   UNL     1       1.907   4.634  17.969  0.00  0.00    +0.000 OA
ENDBRANCH  21  28
ENDBRANCH  16  26
ENDBRANCH   1  19
TORSDOF 5
ENDMDL
MODEL 8
REMARK VINA RESULT:      -7.3      6.259      7.310
REMARK  Name = 
REMARK  7 active torsions:
REMARK  status: ('A' for Active; 'I' for Inactive)
REMARK    1  A    between atoms: C_1  and  O_2
REMARK    2  A    between atoms: O_2  and  C_3
REMARK    3  A    between atoms: C_8  and  C_9
REMARK    4  A    between atoms: C_12  and  C_13
REMARK    5  A    between atoms: C_13  and  N_14
REMARK    6  A    between atoms: C_17  and  C_18
REMARK    7  A    between atoms: N_19  and  C_20
REMARK                            x       y       z     vdW  Elec       q    Type
REMARK                         _______ _______ _______ _____ _____    ______ ____
ROOT
ATOM      1  C   UNL     1       0.133  10.053  19.109  0.00  0.00    +0.000 C 
ENDROOT
BRANCH   1   2
ATOM      2  N   UNL     1       1.177   9.090  19.376  0.00  0.00    +0.000 N 
ATOM      3  C   UNL     1       1.263   8.332  20.499  0.00  0.00    +0.000 C 
ATOM      4  O   UNL     1       0.605   8.490  21.519  0.00  0.00    +0.000 OA
ATOM      5  C   UNL     1       2.284   7.213  20.272  0.00  0.00    +0.000 C 
ATOM      6  C   UNL     1       1.625   5.905  20.710  0.00  0.00    +0.000 C 
ATOM      7  N   UNL     1       2.561   7.397  18.853  0.00  0.00    +0.000 N 
ATOM      8  C   UNL     1       1.969   8.585  18.390  0.00  0.00    +0.000 C 
ATOM      9  O   UNL     1       2.067   9.105  17.290  0.00  0.00    +0.000 OA
BRANCH   7  10
ATOM     10  C   UNL     1       3.223   6.453  18.012  0.00  0.00    +0.000 A 
ATOM     11  C   UNL     1       2.739   5.140  17.873  0.00  0.00    +0.000 A 
ATOM     12  C   UNL     1       3.442   4.162  17.174  0.00  0.00    +0.000 A 
ATOM     13  C   UNL     1       4.659   4.470  16.585  0.00  0.00    +0.000 A 
ATOM     14  C   UNL     1       5.142   5.775  16.665  0.00  0.00    +0.000 A 
ATOM     15  C   UNL     1       4.417   6.760  17.346  0.00  0.00    +0.000 A 
ENDBRANCH   7  10
ENDBRANCH   1   2
BRANCH   1  19
ATOM     16  C   UNL     1       1.233  13.432  19.311  0.00  0.00    +0.000 A 
ATOM     17  N   UNL     1       1.688  12.974  20.487  0.00  0.00    +0.000 NA
ATOM     18  O   UNL     1       1.271  11.653  20.519  0.00  0.00    +0.000 OA
ATOM     19  C   UNL     1       0.568  11.440  19.376  0.00  0.00    +0.000 A 
ATOM     20  N   UNL     1       0.488  12.504  18.609  0.00  0.00    +0.000 NA
BRANCH  16  26
ATOM     21  C   UNL     1       2.692  15.260  18.386  0.00  0.00    +0.000 A 
ATOM     22  C   UNL     1       2.826  16.604  18.013  0.00  0.00    +0.000 A 
ATOM     23  C   UNL     1       1.722  17.461  18.022  0.00  0.00    +0.000 A 
ATOM     24  C   UNL     1       0.468  16.982  18.387  0.00  0.00    +0.000 A 
ATOM     25  C   UNL     1       0.326  15.652  18.781  0.00  0.00    +0.000 A 
ATOM     26  C   UNL     1       1.434  14.790  18.817  0.00  0.00    +0.000 A 
BRANCH  21  28
ATOM     27  C   UNL     1       4.993  14.793  17.902  0.00  0.00    +0.000 C 
ATOM     28  O   UNL     1       3.714  14.350  18.333  0.00  0.00    +0.000 OA
ENDBRANCH  21  28
ENDBRANCH  16  26
ENDBRANCH   1  19
TORSDOF 5
ENDMDL
MODEL 9
REMARK VINA RESULT:      -7.3      6.281      9.502
REMARK  Name = 
REMARK  7 active torsions:
REMARK  status: ('A' for Active; 'I' for Inactive)
REMARK    1  A    between atoms: C_1  and  O_2
REMARK    2  A    between atoms: O_2  and  C_3
REMARK    3  A    between atoms: C_8  and  C_9
REMARK    4  A    between atoms: C_12  and  C_13
REMARK    5  A    between atoms: C_13  and  N_14
REMARK    6  A    between atoms: C_17  and  C_18
REMARK    7  A    between atoms: N_19  and  C_20
REMARK                            x       y       z     vdW  Elec       q    Type
REMARK                         _______ _______ _______ _____ _____    ______ ____
ROOT
ATOM      1  C   UNL     1       1.219   9.626  21.709  0.00  0.00    +0.000 C 
ENDROOT
BRANCH   1   2
ATOM      2  N   UNL     1       0.387  10.589  21.025  0.00  0.00    +0.000 N 
ATOM      3  C   UNL     1       0.770  11.850  20.698  0.00  0.00    +0.000 C 
ATOM      4  O   UNL     1       1.775  12.418  21.103  0.00  0.00    +0.000 OA
ATOM      5  C   UNL     1      -0.235  12.437  19.702  0.00  0.00    +0.000 C 
ATOM      6  C   UNL     1       0.570  13.024  18.543  0.00  0.00    +0.000 C 
ATOM      7  N   UNL     1      -1.056  11.262  19.438  0.00  0.00    +0.000 N 
ATOM      8  C   UNL     1      -0.721  10.223  20.323  0.00  0.00    +0.000 C 
ATOM      9  O   UNL     1      -1.258   9.135  20.457  0.00  0.00    +0.000 OA
BRANCH   7  10
ATOM     10  C   UNL     1      -1.979  11.126  18.358  0.00  0.00    +0.000 A 
ATOM     11  C   UNL     1      -3.232  11.764  18.389  0.00  0.00    +0.000 A 
ATOM     12  C   UNL     1      -4.204  11.536  17.418  0.00  0.00    +0.000 A 
ATOM     13  C   UNL     1      -3.949  10.658  16.375  0.00  0.00    +0.000 A 
ATOM     14  C   UNL     1      -2.699  10.047  16.290  0.00  0.00    +0.000 A 
ATOM     15  C   UNL     1      -1.717  10.303  17.255  0.00  0.00    +0.000 A 
ENDBRANCH   7  10
ENDBRANCH   1   2
BRANCH   1  19
ATOM     16  C   UNL     1       2.000   6.553  20.093  0.00  0.00    +0.000 A 
ATOM     17  N   UNL     1       2.298   7.411  19.105  0.00  0.00    +0.000 NA
ATOM     18  O   UNL     1       1.987   8.654  19.634  0.00  0.00    +0.000 OA
ATOM     19  C   UNL     1       1.494   8.433  20.880  0.00  0.00    +0.000 A 
ATOM     20  N   UNL     1       1.452   7.161  21.205  0.00  0.00    +0.000 NA
BRANCH  16  26
ATOM     21  C   UNL     1       3.409   4.503  19.714  0.00  0.00    +0.000 A 
ATOM     22  C   UNL     1       3.471   3.112  19.561  0.00  0.00    +0.000 A 
ATOM     23  C   UNL     1       2.333   2.322  19.743  0.00  0.00    +0.000 A 
ATOM     24  C   UNL     1       1.123   2.909  20.098  0.00  0.00    +0.000 A 
ATOM     25  C   UNL     1       1.042   4.295  20.231  0.00  0.00    +0.000 A 
ATOM     26  C   UNL     1       2.168   5.106  20.011  0.00  0.00    +0.000 A 
BRANCH  21  28
ATOM     27  C   UNL     1       5.651   4.854  18.942  0.00  0.00    +0.000 C 
ATOM     28  O   UNL     1       4.497   5.329  19.620  0.00  0.00    +0.000 OA
ENDBRANCH  21  28
ENDBRANCH  16  26
ENDBRANCH   1  19
TORSDOF 5
ENDMDL
