MODEL 1
REMARK VINA RESULT:      -9.0      0.000      0.000
REMARK  Name = 
REMARK  6 active torsions:
REMARK  status: ('A' for Active; 'I' for Inactive)
REMARK    1  A    between atoms: C_1  and  O_2
REMARK    2  A    between atoms: O_2  and  C_3
REMARK    3  A    between atoms: C_6  and  C_7
REMARK    4  A    between atoms: N_9  and  C_10
REMARK    5  A    between atoms: C_11  and  C_12
REMARK    6  A    between atoms: N_26  and  C_27
REMARK                            x       y       z     vdW  Elec       q    Type
REMARK                         _______ _______ _______ _____ _____    ______ ____
ROOT
ATOM      1  C   UNL     1       3.334   6.200  18.640  0.00  0.00    +0.000 A 
ATOM      2  C   UNL     1       2.899   5.640  17.479  0.00  0.00    +0.000 A 
ATOM      3  C   UNL     1       1.835   4.639  17.861  0.00  0.00    +0.000 A 
ATOM      4  O   UNL     1       0.926   4.328  17.098  0.00  0.00    +0.000 OA
ATOM      5  C   UNL     1       1.955   3.998  19.216  0.00  0.00    +0.000 A 
ATOM      6  C   UNL     1       0.962   3.155  19.714  0.00  0.00    +0.000 A 
ATOM      7  C   UNL     1       1.202   2.448  20.891  0.00  0.00    +0.000 A 
ATOM      8  C   UNL     1       2.447   2.535  21.522  0.00  0.00    +0.000 A 
ATOM      9  C   UNL     1       3.414   3.428  21.057  0.00  0.00    +0.000 A 
ATOM     10  C   UNL     1       3.142   4.232  19.948  0.00  0.00    +0.000 A 
ATOM     11  N   UNL     1       3.930   5.363  19.603  0.00  0.00    +0.000 N 
ATOM     12  C   UNL     1       5.380   5.164  19.659  0.00  0.00    +0.000 C 
ENDROOT
BRANCH   2  13
ATOM     13  C   UNL     1       4.072   5.254  16.640  0.00  0.00    +0.000 A 
ATOM     14  C   UNL     1       4.466   3.922  16.459  0.00  0.00    +0.000 A 
ATOM     15  C   UNL     1       5.815   3.628  16.234  0.00  0.00    +0.000 A 
ATOM     16  C   UNL     1       6.756   4.655  16.137  0.00  0.00    +0.000 A 
ATOM     17  C   UNL     1       6.342   5.984  16.164  0.00  0.00    +0.000 A 
ATOM     18  C   UNL     1       4.999   6.284  16.382  0.00  0.00    +0.000 A 
ENDBRANCH   2  13
BRANCH   1  21
ATOM     19  C   UNL     1       2.159   8.361  18.459  0.00  0.00    +0.000 C 
ATOM     20  O   UNL     1       2.451   8.659  17.307  0.00  0.00    +0.000 OA
ATOM     21  N   UNL     1       2.654   7.279  19.158  0.00  0.00    +0.000 N 
ATOM     22  H   UNL     1       2.533   7.236  20.160  0.00  0.00    +0.000 HD
BRANCH  19  26
ATOM     23  C   UNL     1      -0.524  10.813  20.743  0.00  0.00    +0.000 A 
ATOM     24  C   UNL     1      -0.401  11.018  19.373  0.00  0.00    +0.000 A 
ATOM     25  C   UNL     1       0.475  10.236  18.617  0.00  0.00    +0.000 A 
ATOM     26  C   UNL     1       1.224   9.227  19.229  0.00  0.00    +0.000 A 
ATOM     27  C   UNL     1       1.125   9.027  20.611  0.00  0.00    +0.000 A 
ATOM     28  C   UNL     1       0.248   9.824  21.363  0.00  0.00    +0.000 A 
BRANCH  23  30
ATOM     29  C   UNL     1      -1.277  11.116  22.969  0.00  0.00    +0.000 C 
ATOM     30  O   UNL     1      -1.329  11.507  21.597  0.00  0.00    +0.000 OA
ENDBRANCH  23  30
ENDBRANCH  19  26
ENDBRANCH   1  21
TORSDOF 4
ENDMDL
MODEL 2
REMARK VINA RESULT:      -8.4      0.504      1.027
REMARK  Name = 
REMARK  6 active torsions:
REMARK  status: ('A' for Active; 'I' for Inactive)
REMARK    1  A    between atoms: C_1  and  O_2
REMARK    2  A    between atoms: O_2  and  C_3
REMARK    3  A    between atoms: C_6  and  C_7
REMARK    4  A    between atoms: N_9  and  C_10
REMARK    5  A    between atoms: C_11  and  C_12
REMARK    6  A    between atoms: N_26  and  C_27
REMARK                            x       y       z     vdW  Elec       q    Type
REMARK                         _______ _______ _______ _____ _____    ______ ____
ROOT
ATOM      1  C   UNL     1       3.423   6.191  18.730  0.00  0.00    +0.000 A 
ATOM      2  C   UNL     1       3.068   5.632  17.542  0.00  0.00    +0.000 A 
ATOM      3  C   UNL     1       1.967   4.644  17.847  0.00  0.00    +0.000 A 
ATOM      4  O   UNL     1       1.112   4.341  17.021  0.00  0.00    +0.000 OA
ATOM      5  C   UNL     1       1.982   4.006  19.209  0.00  0.00    +0.000 A 
ATOM      6  C   UNL     1       0.945   3.176  19.635  0.00  0.00    +0.000 A 
ATOM      7  C   UNL     1       1.092   2.469  20.828  0.00  0.00    +0.000 A 
ATOM      8  C   UNL     1       2.288   2.544  21.547  0.00  0.00    +0.000 A 
ATOM      9  C   UNL     1       3.297   3.426  21.152  0.00  0.00    +0.000 A 
ATOM     10  C   UNL     1       3.115   4.229  20.024  0.00  0.00    +0.000 A 
ATOM     11  N   UNL     1       3.938   5.351  19.736  0.00  0.00    +0.000 N 
ATOM     12  C   UNL     1       5.378   5.136  19.897  0.00  0.00    +0.000 C 
ENDROOT
BRANCH   2  13
ATOM     13  C   UNL     1       4.293   5.231  16.791  0.00  0.00    +0.000 A 
ATOM     14  C   UNL     1       5.028   6.129  16.007  0.00  0.00    +0.000 A 
ATOM     15  C   UNL     1       5.727   5.658  14.891  0.00  0.00    +0.000 A 
ATOM     16  C   UNL     1       5.738   4.294  14.588  0.00  0.00    +0.000 A 
ATOM     17  C   UNL     1       5.136   3.384  15.453  0.00  0.00    +0.000 A 
ATOM     18  C   UNL     1       4.443   3.847  16.568  0.00  0.00    +0.000 A 
ENDBRANCH   2  13
BRANCH   1  21
ATOM     19  C   UNL     1       2.226   8.329  18.448  0.00  0.00    +0.000 C 
ATOM     20  O   UNL     1       2.539   8.589  17.292  0.00  0.00    +0.000 OA
ATOM     21  N   UNL     1       2.719   7.278  19.194  0.00  0.00    +0.000 N 
ATOM     22  H   UNL     1       2.578   7.270  20.195  0.00  0.00    +0.000 HD
BRANCH  19  26
ATOM     23  C   UNL     1      -0.542  10.820  20.583  0.00  0.00    +0.000 A 
ATOM     24  C   UNL     1      -0.275  11.078  19.242  0.00  0.00    +0.000 A 
ATOM     25  C   UNL     1       0.630  10.284  18.535  0.00  0.00    +0.000 A 
ATOM     26  C   UNL     1       1.265   9.209  19.166  0.00  0.00    +0.000 A 
ATOM     27  C   UNL     1       1.022   8.955  20.521  0.00  0.00    +0.000 A 
ATOM     28  C   UNL     1       0.116   9.764  21.224  0.00  0.00    +0.000 A 
BRANCH  23  30
ATOM     29  C   UNL     1      -1.149  11.420  22.793  0.00  0.00    +0.000 C 
ATOM     30  O   UNL     1      -1.390  11.519  21.390  0.00  0.00    +0.000 OA
ENDBRANCH  23  30
ENDBRANCH  19  26
ENDBRANCH   1  21
TORSDOF 4
ENDMDL
MODEL 3
REMARK VINA RESULT:      -8.4      0.744      1.545
REMARK  Name = 
REMARK  6 active torsions:
REMARK  status: ('A' for Active; 'I' for Inactive)
REMARK    1  A    between atoms: C_1  and  O_2
REMARK    2  A    between atoms: O_2  and  C_3
REMARK    3  A    between atoms: C_6  and  C_7
REMARK    4  A    between atoms: N_9  and  C_10
REMARK    5  A    between atoms: C_11  and  C_12
REMARK    6  A    between atoms: N_26  and  C_27
REMARK                            x       y       z     vdW  Elec       q    Type
REMARK                         _______ _______ _______ _____ _____    ______ ____
ROOT
ATOM      1  C   UNL     1       3.395   6.177  18.685  0.00  0.00    +0.000 A 
ATOM      2  C   UNL     1       3.065   5.586  17.506  0.00  0.00    +0.000 A 
ATOM      3  C   UNL     1       1.978   4.585  17.819  0.00  0.00    +0.000 A 
ATOM      4  O   UNL     1       1.140   4.249  16.989  0.00  0.00    +0.000 OA
ATOM      5  C   UNL     1       1.985   3.979  19.194  0.00  0.00    +0.000 A 
ATOM      6  C   UNL     1       0.958   3.140  19.626  0.00  0.00    +0.000 A 
ATOM      7  C   UNL     1       1.101   2.462  20.836  0.00  0.00    +0.000 A 
ATOM      8  C   UNL     1       2.286   2.575  21.569  0.00  0.00    +0.000 A 
ATOM      9  C   UNL     1       3.284   3.465  21.167  0.00  0.00    +0.000 A 
ATOM     10  C   UNL     1       3.104   4.240  20.019  0.00  0.00    +0.000 A 
ATOM     11  N   UNL     1       3.911   5.369  19.716  0.00  0.00    +0.000 N 
ATOM     12  C   UNL     1       5.352   5.183  19.900  0.00  0.00    +0.000 C 
ENDROOT
BRANCH   2  13
ATOM     13  C   UNL     1       4.308   5.189  16.780  0.00  0.00    +0.000 A 
ATOM     14  C   UNL     1       5.038   6.083  15.986  0.00  0.00    +0.000 A 
ATOM     15  C   UNL     1       5.760   5.600  14.890  0.00  0.00    +0.000 A 
ATOM     16  C   UNL     1       5.797   4.231  14.617  0.00  0.00    +0.000 A 
ATOM     17  C   UNL     1       5.198   3.329  15.492  0.00  0.00    +0.000 A 
ATOM     18  C   UNL     1       4.483   3.804  16.588  0.00  0.00    +0.000 A 
ENDBRANCH   2  13
BRANCH   1  21
ATOM     19  C   UNL     1       2.228   8.324  18.351  0.00  0.00    +0.000 C 
ATOM     20  O   UNL     1       2.617   8.597  17.222  0.00  0.00    +0.000 OA
ATOM     21  N   UNL     1       2.667   7.262  19.116  0.00  0.00    +0.000 N 
ATOM     22  H   UNL     1       2.460   7.242  20.105  0.00  0.00    +0.000 HD
BRANCH  19  26
ATOM     23  C   UNL     1      -0.676  10.889  20.201  0.00  0.00    +0.000 A 
ATOM     24  C   UNL     1       0.034   9.979  20.977  0.00  0.00    +0.000 A 
ATOM     25  C   UNL     1       0.975   9.130  20.390  0.00  0.00    +0.000 A 
ATOM     26  C   UNL     1       1.225   9.200  19.016  0.00  0.00    +0.000 A 
ATOM     27  C   UNL     1       0.500  10.096  18.221  0.00  0.00    +0.000 A 
ATOM     28  C   UNL     1      -0.449  10.939  18.820  0.00  0.00    +0.000 A 
BRANCH  23  30
ATOM     29  C   UNL     1      -2.516  12.275  19.651  0.00  0.00    +0.000 C 
ATOM     30  O   UNL     1      -1.624  11.764  20.640  0.00  0.00    +0.000 OA
ENDBRANCH  23  30
ENDBRANCH  19  26
ENDBRANCH   1  21
TORSDOF 4
ENDMDL
MODEL 4
REMARK VINA RESULT:      -7.6      1.106      1.166
REMARK  Name = 
REMARK  6 active torsions:
REMARK  status: ('A' for Active; 'I' for Inactive)
REMARK    1  A    between atoms: C_1  and  O_2
REMARK    2  A    between atoms: O_2  and  C_3
REMARK    3  A    between atoms: C_6  and  C_7
REMARK    4  A    between atoms: N_9  and  C_10
REMARK    5  A    between atoms: C_11  and  C_12
REMARK    6  A    between atoms: N_26  and  C_27
REMARK                            x       y       z     vdW  Elec       q    Type
REMARK                         _______ _______ _______ _____ _____    ______ ____
ROOT
ATOM      1  C   UNL     1       3.248   6.218  18.622  0.00  0.00    +0.000 A 
ATOM      2  C   UNL     1       2.886   5.624  17.454  0.00  0.00    +0.000 A 
ATOM      3  C   UNL     1       1.864   4.570  17.810  0.00  0.00    +0.000 A 
ATOM      4  O   UNL     1       1.001   4.203  17.020  0.00  0.00    +0.000 OA
ATOM      5  C   UNL     1       1.971   3.951  19.176  0.00  0.00    +0.000 A 
ATOM      6  C   UNL     1       1.008   3.060  19.649  0.00  0.00    +0.000 A 
ATOM      7  C   UNL     1       1.244   2.378  20.842  0.00  0.00    +0.000 A 
ATOM      8  C   UNL     1       2.460   2.539  21.515  0.00  0.00    +0.000 A 
ATOM      9  C   UNL     1       3.393   3.480  21.073  0.00  0.00    +0.000 A 
ATOM     10  C   UNL     1       3.117   4.256  19.946  0.00  0.00    +0.000 A 
ATOM     11  N   UNL     1       3.853   5.425  19.616  0.00  0.00    +0.000 N 
ATOM     12  C   UNL     1       5.310   5.306  19.724  0.00  0.00    +0.000 C 
ENDROOT
BRANCH   2  13
ATOM     13  C   UNL     1       4.106   5.294  16.661  0.00  0.00    +0.000 A 
ATOM     14  C   UNL     1       4.568   3.982  16.494  0.00  0.00    +0.000 A 
ATOM     15  C   UNL     1       5.936   3.750  16.321  0.00  0.00    +0.000 A 
ATOM     16  C   UNL     1       6.832   4.820  16.262  0.00  0.00    +0.000 A 
ATOM     17  C   UNL     1       6.357   6.129  16.274  0.00  0.00    +0.000 A 
ATOM     18  C   UNL     1       4.995   6.366  16.440  0.00  0.00    +0.000 A 
ENDBRANCH   2  13
BRANCH   1  21
ATOM     19  C   UNL     1       1.748   7.285  20.265  0.00  0.00    +0.000 C 
ATOM     20  O   UNL     1       1.443   6.304  20.933  0.00  0.00    +0.000 OA
ATOM     21  N   UNL     1       2.492   7.263  19.103  0.00  0.00    +0.000 N 
ATOM     22  H   UNL     1       2.507   8.079  18.507  0.00  0.00    +0.000 HD
BRANCH  19  26
ATOM     23  C   UNL     1       0.358  11.146  21.524  0.00  0.00    +0.000 A 
ATOM     24  C   UNL     1       0.671  10.930  20.186  0.00  0.00    +0.000 A 
ATOM     25  C   UNL     1       1.134   9.682  19.761  0.00  0.00    +0.000 A 
ATOM     26  C   UNL     1       1.271   8.634  20.676  0.00  0.00    +0.000 A 
ATOM     27  C   UNL     1       0.981   8.847  22.029  0.00  0.00    +0.000 A 
ATOM     28  C   UNL     1       0.524  10.107  22.446  0.00  0.00    +0.000 A 
BRANCH  23  30
ATOM     29  C   UNL     1      -1.239  12.208  22.915  0.00  0.00    +0.000 C 
ATOM     30  O   UNL     1      -0.092  12.310  22.073  0.00  0.00    +0.000 OA
ENDBRANCH  23  30
ENDBRANCH  19  26
ENDBRANCH   1  21
TORSDOF 4
ENDMDL
MODEL 5
REMARK VINA RESULT:      -7.2      1.136      1.476
REMARK  Name = 
REMARK  6 active torsions:
REMARK  status: ('A' for Active; 'I' for Inactive)
REMARK    1  A    between atoms: C_1  and  O_2
REMARK    2  A    between atoms: O_2  and  C_3
REMARK    3  A    between atoms: C_6  and  C_7
REMARK    4  A    between atoms: N_9  and  C_10
REMARK    5  A    between atoms: C_11  and  C_12
REMARK    6  A    between atoms: N_26  and  C_27
REMARK                            x       y       z     vdW  Elec       q    Type
REMARK                         _______ _______ _______ _____ _____    ______ ____
ROOT
ATOM      1  C   UNL     1       3.379   6.163  18.581  0.00  0.00    +0.000 A 
ATOM      2  C   UNL     1       3.112   5.520  17.412  0.00  0.00    +0.000 A 
ATOM      3  C   UNL     1       2.070   4.474  17.729  0.00  0.00    +0.000 A 
ATOM      4  O   UNL     1       1.272   4.069  16.889  0.00  0.00    +0.000 OA
ATOM      5  C   UNL     1       2.072   3.910  19.123  0.00  0.00    +0.000 A 
ATOM      6  C   UNL     1       1.079   3.031  19.554  0.00  0.00    +0.000 A 
ATOM      7  C   UNL     1       1.224   2.399  20.788  0.00  0.00    +0.000 A 
ATOM      8  C   UNL     1       2.382   2.595  21.547  0.00  0.00    +0.000 A 
ATOM      9  C   UNL     1       3.343   3.525  21.143  0.00  0.00    +0.000 A 
ATOM     10  C   UNL     1       3.153   4.254  19.967  0.00  0.00    +0.000 A 
ATOM     11  N   UNL     1       3.908   5.414  19.649  0.00  0.00    +0.000 N 
ATOM     12  C   UNL     1       5.352   5.311  19.875  0.00  0.00    +0.000 C 
ENDROOT
BRANCH   2  13
ATOM     13  C   UNL     1       4.392   5.169  16.731  0.00  0.00    +0.000 A 
ATOM     14  C   UNL     1       5.098   6.077  15.932  0.00  0.00    +0.000 A 
ATOM     15  C   UNL     1       5.873   5.602  14.869  0.00  0.00    +0.000 A 
ATOM     16  C   UNL     1       5.987   4.230  14.635  0.00  0.00    +0.000 A 
ATOM     17  C   UNL     1       5.410   3.322  15.519  0.00  0.00    +0.000 A 
ATOM     18  C   UNL     1       4.642   3.789  16.583  0.00  0.00    +0.000 A 
ENDBRANCH   2  13
BRANCH   1  21
ATOM     19  C   UNL     1       1.820   7.319  20.104  0.00  0.00    +0.000 C 
ATOM     20  O   UNL     1       1.535   6.390  20.851  0.00  0.00    +0.000 OA
ATOM     21  N   UNL     1       2.583   7.221  18.959  0.00  0.00    +0.000 N 
ATOM     22  H   UNL     1       2.582   7.982  18.294  0.00  0.00    +0.000 HD
BRANCH  19  26
ATOM     23  C   UNL     1       0.287  11.226  21.003  0.00  0.00    +0.000 A 
ATOM     24  C   UNL     1       0.689  10.926  19.706  0.00  0.00    +0.000 A 
ATOM     25  C   UNL     1       1.200   9.662  19.399  0.00  0.00    +0.000 A 
ATOM     26  C   UNL     1       1.295   8.682  20.391  0.00  0.00    +0.000 A 
ATOM     27  C   UNL     1       0.915   8.980  21.704  0.00  0.00    +0.000 A 
ATOM     28  C   UNL     1       0.410  10.255  22.004  0.00  0.00    +0.000 A 
BRANCH  23  30
ATOM     29  C   UNL     1      -0.952  12.376  22.663  0.00  0.00    +0.000 C 
ATOM     30  O   UNL     1      -0.217  12.415  21.441  0.00  0.00    +0.000 OA
ENDBRANCH  23  30
ENDBRANCH  19  26
ENDBRANCH   1  21
TORSDOF 4
ENDMDL
MODEL 6
REMARK VINA RESULT:      -7.1      1.208      1.897
REMARK  Name = 
REMARK  6 active torsions:
REMARK  status: ('A' for Active; 'I' for Inactive)
REMARK    1  A    between atoms: C_1  and  O_2
REMARK    2  A    between atoms: O_2  and  C_3
REMARK    3  A    between atoms: C_6  and  C_7
REMARK    4  A    between atoms: N_9  and  C_10
REMARK    5  A    between atoms: C_11  and  C_12
REMARK    6  A    between atoms: N_26  and  C_27
REMARK                            x       y       z     vdW  Elec       q    Type
REMARK                         _______ _______ _______ _____ _____    ______ ____
ROOT
ATOM      1  C   UNL     1       3.339   6.217  18.456  0.00  0.00    +0.000 A 
ATOM      2  C   UNL     1       3.106   5.490  17.330  0.00  0.00    +0.000 A 
ATOM      3  C   UNL     1       2.053   4.469  17.692  0.00  0.00    +0.000 A 
ATOM      4  O   UNL     1       1.281   4.004  16.860  0.00  0.00    +0.000 OA
ATOM      5  C   UNL     1       2.011   4.010  19.123  0.00  0.00    +0.000 A 
ATOM      6  C   UNL     1       1.003   3.166  19.588  0.00  0.00    +0.000 A 
ATOM      7  C   UNL     1       1.109   2.627  20.869  0.00  0.00    +0.000 A 
ATOM      8  C   UNL     1       2.244   2.879  21.646  0.00  0.00    +0.000 A 
ATOM      9  C   UNL     1       3.218   3.776  21.204  0.00  0.00    +0.000 A 
ATOM     10  C   UNL     1       3.066   4.416  19.972  0.00  0.00    +0.000 A 
ATOM     11  N   UNL     1       3.833   5.550  19.592  0.00  0.00    +0.000 N 
ATOM     12  C   UNL     1       5.269   5.463  19.870  0.00  0.00    +0.000 C 
ENDROOT
BRANCH   2  13
ATOM     13  C   UNL     1       4.406   5.088  16.717  0.00  0.00    +0.000 A 
ATOM     14  C   UNL     1       5.159   5.950  15.909  0.00  0.00    +0.000 A 
ATOM     15  C   UNL     1       5.967   5.417  14.899  0.00  0.00    +0.000 A 
ATOM     16  C   UNL     1       6.065   4.035  14.728  0.00  0.00    +0.000 A 
ATOM     17  C   UNL     1       5.438   3.175  15.627  0.00  0.00    +0.000 A 
ATOM     18  C   UNL     1       4.637   3.700  16.638  0.00  0.00    +0.000 A 
ENDBRANCH   2  13
BRANCH   1  21
ATOM     19  C   UNL     1       1.894   7.579  19.919  0.00  0.00    +0.000 C 
ATOM     20  O   UNL     1       1.738   6.792  20.845  0.00  0.00    +0.000 OA
ATOM     21  N   UNL     1       2.535   7.300  18.729  0.00  0.00    +0.000 N 
ATOM     22  H   UNL     1       2.423   7.928  17.946  0.00  0.00    +0.000 HD
BRANCH  19  26
ATOM     23  C   UNL     1       0.291  11.556  20.132  0.00  0.00    +0.000 A 
ATOM     24  C   UNL     1       0.409  10.798  21.292  0.00  0.00    +0.000 A 
ATOM     25  C   UNL     1       0.920   9.499  21.239  0.00  0.00    +0.000 A 
ATOM     26  C   UNL     1       1.332   8.954  20.019  0.00  0.00    +0.000 A 
ATOM     27  C   UNL     1       1.195   9.699  18.842  0.00  0.00    +0.000 A 
ATOM     28  C   UNL     1       0.674  11.001  18.905  0.00  0.00    +0.000 A 
BRANCH  23  30
ATOM     29  C   UNL     1      -0.313  13.361  18.722  0.00  0.00    +0.000 C 
ATOM     30  O   UNL     1      -0.197  12.825  20.039  0.00  0.00    +0.000 OA
ENDBRANCH  23  30
ENDBRANCH  19  26
ENDBRANCH   1  21
TORSDOF 4
ENDMDL
MODEL 7
REMARK VINA RESULT:      -6.9      7.461     11.679
REMARK  Name = 
REMARK  6 active torsions:
REMARK  status: ('A' for Active; 'I' for Inactive)
REMARK    1  A    between atoms: C_1  and  O_2
REMARK    2  A    between atoms: O_2  and  C_3
REMARK    3  A    between atoms: C_6  and  C_7
REMARK    4  A    between atoms: N_9  and  C_10
REMARK    5  A    between atoms: C_11  and  C_12
REMARK    6  A    between atoms: N_26  and  C_27
REMARK                            x       y       z     vdW  Elec       q    Type
REMARK                         _______ _______ _______ _____ _____    ______ ____
ROOT
ATOM      1  C   UNL     1      -3.300  14.149  22.202  0.00  0.00    +0.000 A 
ATOM      2  C   UNL     1      -2.883  13.471  23.305  0.00  0.00    +0.000 A 
ATOM      3  C   UNL     1      -4.096  12.754  23.848  0.00  0.00    +0.000 A 
ATOM      4  O   UNL     1      -4.007  11.716  24.494  0.00  0.00    +0.000 OA
ATOM      5  C   UNL     1      -5.435  13.392  23.597  0.00  0.00    +0.000 A 
ATOM      6  C   UNL     1      -6.623  12.753  23.948  0.00  0.00    +0.000 A 
ATOM      7  C   UNL     1      -7.823  13.458  23.860  0.00  0.00    +0.000 A 
ATOM      8  C   UNL     1      -7.820  14.806  23.490  0.00  0.00    +0.000 A 
ATOM      9  C   UNL     1      -6.637  15.423  23.077  0.00  0.00    +0.000 A 
ATOM     10  C   UNL     1      -5.447  14.694  23.045  0.00  0.00    +0.000 A 
ATOM     11  N   UNL     1      -4.286  15.142  22.360  0.00  0.00    +0.000 N 
ATOM     12  C   UNL     1      -3.935  16.549  22.565  0.00  0.00    +0.000 C 
ENDROOT
BRANCH   2  13
ATOM     13  C   UNL     1      -2.057  14.370  24.162  0.00  0.00    +0.000 A 
ATOM     14  C   UNL     1      -2.537  14.933  25.352  0.00  0.00    +0.000 A 
ATOM     15  C   UNL     1      -2.046  16.172  25.775  0.00  0.00    +0.000 A 
ATOM     16  C   UNL     1      -1.045  16.821  25.049  0.00  0.00    +0.000 A 
ATOM     17  C   UNL     1      -0.460  16.192  23.953  0.00  0.00    +0.000 A 
ATOM     18  C   UNL     1      -0.941  14.956  23.530  0.00  0.00    +0.000 A 
ENDBRANCH   2  13
BRANCH   1  21
ATOM     19  C   UNL     1      -2.248  13.005  20.286  0.00  0.00    +0.000 C 
ATOM     20  O   UNL     1      -1.073  13.273  20.505  0.00  0.00    +0.000 OA
ATOM     21  N   UNL     1      -3.328  13.500  20.989  0.00  0.00    +0.000 N 
ATOM     22  H   UNL     1      -4.258  13.403  20.605  0.00  0.00    +0.000 HD
BRANCH  19  26
ATOM     23  C   UNL     1      -3.183  10.396  17.008  0.00  0.00    +0.000 A 
ATOM     24  C   UNL     1      -4.210  11.039  17.691  0.00  0.00    +0.000 A 
ATOM     25  C   UNL     1      -3.924  11.884  18.766  0.00  0.00    +0.000 A 
ATOM     26  C   UNL     1      -2.599  12.103  19.155  0.00  0.00    +0.000 A 
ATOM     27  C   UNL     1      -1.559  11.443  18.490  0.00  0.00    +0.000 A 
ATOM     28  C   UNL     1      -1.858  10.590  17.416  0.00  0.00    +0.000 A 
BRANCH  23  30
ATOM     29  C   UNL     1      -3.046  10.086  14.663  0.00  0.00    +0.000 C 
ATOM     30  O   UNL     1      -3.321   9.542  15.954  0.00  0.00    +0.000 OA
ENDBRANCH  23  30
ENDBRANCH  19  26
ENDBRANCH   1  21
TORSDOF 4
ENDMDL
MODEL 8
REMARK VINA RESULT:      -6.8      5.300      8.011
REMARK  Name = 
REMARK  6 active torsions:
REMARK  status: ('A' for Active; 'I' for Inactive)
REMARK    1  A    between atoms: C_1  and  O_2
REMARK    2  A    between atoms: O_2  and  C_3
REMARK    3  A    between atoms: C_6  and  C_7
REMARK    4  A    between atoms: N_9  and  C_10
REMARK    5  A    between atoms: C_11  and  C_12
REMARK    6  A    between atoms: N_26  and  C_27
REMARK                            x       y       z     vdW  Elec       q    Type
REMARK                         _______ _______ _______ _____ _____    ______ ____
ROOT
ATOM      1  C   UNL     1      -0.186  11.930  18.866  0.00  0.00    +0.000 A 
ATOM      2  C   UNL     1      -1.470  12.304  19.111  0.00  0.00    +0.000 A 
ATOM      3  C   UNL     1      -1.682  12.153  20.598  0.00  0.00    +0.000 A 
ATOM      4  O   UNL     1      -2.500  12.828  21.214  0.00  0.00    +0.000 OA
ATOM      5  C   UNL     1      -0.868  11.102  21.300  0.00  0.00    +0.000 A 
ATOM      6  C   UNL     1      -0.897  10.964  22.688  0.00  0.00    +0.000 A 
ATOM      7  C   UNL     1      -0.268   9.865  23.272  0.00  0.00    +0.000 A 
ATOM      8  C   UNL     1       0.323   8.884  22.469  0.00  0.00    +0.000 A 
ATOM      9  C   UNL     1       0.406   9.059  21.086  0.00  0.00    +0.000 A 
ATOM     10  C   UNL     1      -0.114  10.214  20.498  0.00  0.00    +0.000 A 
ATOM     11  N   UNL     1       0.196  10.610  19.170  0.00  0.00    +0.000 N 
ATOM     12  C   UNL     1       0.149   9.544  18.166  0.00  0.00    +0.000 C 
ENDROOT
BRANCH   2  13
ATOM     13  C   UNL     1      -2.378  11.652  18.121  0.00  0.00    +0.000 A 
ATOM     14  C   UNL     1      -3.257  10.618  18.468  0.00  0.00    +0.000 A 
ATOM     15  C   UNL     1      -3.601   9.656  17.513  0.00  0.00    +0.000 A 
ATOM     16  C   UNL     1      -3.114   9.752  16.207  0.00  0.00    +0.000 A 
ATOM     17  C   UNL     1      -2.366  10.861  15.822  0.00  0.00    +0.000 A 
ATOM     18  C   UNL     1      -2.025  11.825  16.767  0.00  0.00    +0.000 A 
ENDBRANCH   2  13
BRANCH   1  21
ATOM     19  C   UNL     1       2.048  12.853  18.370  0.00  0.00    +0.000 C 
ATOM     20  O   UNL     1       2.542  11.895  17.787  0.00  0.00    +0.000 OA
ATOM     21  N   UNL     1       0.818  12.863  18.996  0.00  0.00    +0.000 N 
ATOM     22  H   UNL     1       0.591  13.614  19.633  0.00  0.00    +0.000 HD
BRANCH  19  26
ATOM     23  C   UNL     1       4.318  16.485  18.659  0.00  0.00    +0.000 A 
ATOM     24  C   UNL     1       2.942  16.515  18.856  0.00  0.00    +0.000 A 
ATOM     25  C   UNL     1       2.186  15.345  18.756  0.00  0.00    +0.000 A 
ATOM     26  C   UNL     1       2.812  14.127  18.473  0.00  0.00    +0.000 A 
ATOM     27  C   UNL     1       4.193  14.088  18.250  0.00  0.00    +0.000 A 
ATOM     28  C   UNL     1       4.941  15.271  18.345  0.00  0.00    +0.000 A 
BRANCH  23  30
ATOM     29  C   UNL     1       6.548  17.241  18.919  0.00  0.00    +0.000 C 
ATOM     30  O   UNL     1       5.169  17.548  18.717  0.00  0.00    +0.000 OA
ENDBRANCH  23  30
ENDBRANCH  19  26
ENDBRANCH   1  21
TORSDOF 4
ENDMDL
MODEL 9
REMARK VINA RESULT:      -6.8      9.120     10.591
REMARK  Name = 
REMARK  6 active torsions:
REMARK  status: ('A' for Active; 'I' for Inactive)
REMARK    1  A    between atoms: C_1  and  O_2
REMARK    2  A    between atoms: O_2  and  C_3
REMARK    3  A    between atoms: C_6  and  C_7
REMARK    4  A    between atoms: N_9  and  C_10
REMARK    5  A    between atoms: C_11  and  C_12
REMARK    6  A    between atoms: N_26  and  C_27
REMARK                            x       y       z     vdW  Elec       q    Type
REMARK                         _______ _______ _______ _____ _____    ______ ____
ROOT
ATOM      1  C   UNL     1       8.637  14.326  19.984  0.00  0.00    +0.000 A 
ATOM      2  C   UNL     1       8.620  13.096  20.565  0.00  0.00    +0.000 A 
ATOM      3  C   UNL     1       8.566  13.330  22.056  0.00  0.00    +0.000 A 
ATOM      4  O   UNL     1       8.065  12.519  22.828  0.00  0.00    +0.000 OA
ATOM      5  C   UNL     1       9.194  14.595  22.571  0.00  0.00    +0.000 A 
ATOM      6  C   UNL     1       9.092  14.966  23.912  0.00  0.00    +0.000 A 
ATOM      7  C   UNL     1       9.840  16.048  24.374  0.00  0.00    +0.000 A 
ATOM      8  C   UNL     1      10.728  16.706  23.517  0.00  0.00    +0.000 A 
ATOM      9  C   UNL     1      10.779  16.374  22.162  0.00  0.00    +0.000 A 
ATOM     10  C   UNL     1       9.947  15.371  21.660  0.00  0.00    +0.000 A 
ATOM     11  N   UNL     1       9.714  15.186  20.271  0.00  0.00    +0.000 N 
ATOM     12  C   UNL     1      10.904  15.240  19.418  0.00  0.00    +0.000 C 
ENDROOT
BRANCH   2  13
ATOM     13  C   UNL     1       9.671  12.236  19.946  0.00  0.00    +0.000 A 
ATOM     14  C   UNL     1      10.902  11.982  20.564  0.00  0.00    +0.000 A 
ATOM     15  C   UNL     1      12.031  11.739  19.775  0.00  0.00    +0.000 A 
ATOM     16  C   UNL     1      11.926  11.696  18.384  0.00  0.00    +0.000 A 
ATOM     17  C   UNL     1      10.677  11.796  17.776  0.00  0.00    +0.000 A 
ATOM     18  C   UNL     1       9.548  12.032  18.556  0.00  0.00    +0.000 A 
ENDBRANCH   2  13
BRANCH   1  21
ATOM     19  C   UNL     1       6.667  14.858  18.598  0.00  0.00    +0.000 C 
ATOM     20  O   UNL     1       7.028  14.372  17.532  0.00  0.00    +0.000 OA
ATOM     21  N   UNL     1       7.443  14.963  19.734  0.00  0.00    +0.000 N 
ATOM     22  H   UNL     1       7.145  15.569  20.486  0.00  0.00    +0.000 HD
BRANCH  19  26
ATOM     23  C   UNL     1       2.703  16.480  18.880  0.00  0.00    +0.000 A 
ATOM     24  C   UNL     1       3.620  16.723  19.897  0.00  0.00    +0.000 A 
ATOM     25  C   UNL     1       4.911  16.194  19.826  0.00  0.00    +0.000 A 
ATOM     26  C   UNL     1       5.298  15.429  18.721  0.00  0.00    +0.000 A 
ATOM     27  C   UNL     1       4.375  15.159  17.703  0.00  0.00    +0.000 A 
ATOM     28  C   UNL     1       3.079  15.689  17.789  0.00  0.00    +0.000 A 
BRANCH  23  30
ATOM     29  C   UNL     1       1.142  17.954  17.879  0.00  0.00    +0.000 C 
ATOM     30  O   UNL     1       1.415  16.924  18.828  0.00  0.00    +0.000 OA
ENDBRANCH  23  30
ENDBRANCH  19  26
ENDBRANCH   1  21
TORSDOF 4
ENDMDL
