MODEL 1
REMARK VINA RESULT:      -8.4      0.000      0.000
REMARK  Name = 
REMARK  9 active torsions:
REMARK  status: ('A' for Active; 'I' for Inactive)
REMARK    1  A    between atoms: C_1  and  C_2
REMARK    2  A    between atoms: C_2  and  C_3
REMARK    3  A    between atoms: C_2  and  C_10
REMARK    4  A    between atoms: C_3  and  C_4
REMARK    5  A    between atoms: N_8  and  C_9
REMARK    6  A    between atoms: C_14  and  N_15
REMARK    7  A    between atoms: N_15  and  C_16
REMARK    8  A    between atoms: C_21  and  C_22
REMARK    9  A    between atoms: C_22  and  C_23
REMARK                            x       y       z     vdW  Elec       q    Type
REMARK                         _______ _______ _______ _____ _____    ______ ____
ROOT
ATOM      1  C   UNL     1       2.949   3.634  19.073  0.00  0.00    +0.000 A 
ATOM      2  C   UNL     1       1.848   2.967  19.626  0.00  0.00    +0.000 A 
ATOM      3  C   UNL     1       0.939   3.649  20.438  0.00  0.00    +0.000 A 
ATOM      4  C   UNL     1       1.107   5.011  20.696  0.00  0.00    +0.000 A 
ATOM      5  C   UNL     1       2.176   5.713  20.131  0.00  0.00    +0.000 A 
ATOM      6  C   UNL     1       3.093   5.008  19.333  0.00  0.00    +0.000 A 
ENDROOT
BRANCH   1   8
ATOM      7  C   UNL     1       3.684   1.432  18.029  0.00  0.00    +0.000 C 
ATOM      8  C   UNL     1       3.986   2.928  18.204  0.00  0.00    +0.000 C 
BRANCH   8   9
ATOM      9  C   UNL     1       4.138   3.663  16.855  0.00  0.00    +0.000 C 
BRANCH   9  10
ATOM     10  C   UNL     1       5.529   4.150  16.617  0.00  0.00    +0.000 A 
ATOM     11  N   UNL     1       6.403   4.476  17.552  0.00  0.00    +0.000 NA
ATOM     12  N   UNL     1       7.551   4.908  16.935  0.00  0.00    +0.000 NA
ATOM     13  C   UNL     1       7.364   4.827  15.639  0.00  0.00    +0.000 A 
ATOM     14  N   UNL     1       6.115   4.345  15.392  0.00  0.00    +0.000 N 
ATOM     15  C   UNL     1       5.548   4.096  14.095  0.00  0.00    +0.000 C 
ENDBRANCH   9  10
ENDBRANCH   8   9
ENDBRANCH   1   8
BRANCH   5  16
ATOM     16  N   UNL     1       2.359   7.086  20.420  0.00  0.00    +0.000 N 
ATOM     17  H   UNL     1       2.277   7.285  21.418  0.00  0.00    +0.000 HD
BRANCH  16  18
ATOM     18  C   UNL     1       1.887   8.179  19.658  0.00  0.00    +0.000 A 
ATOM     19  C   UNL     1       2.309   8.396  18.341  0.00  0.00    +0.000 A 
ATOM     20  N   UNL     1       1.868   9.390  17.534  0.00  0.00    +0.000 NA
ATOM     21  C   UNL     1       0.925  10.202  18.046  0.00  0.00    +0.000 A 
ATOM     22  C   UNL     1       0.421  10.072  19.329  0.00  0.00    +0.000 A 
ATOM     23  C   UNL     1       0.907   9.050  20.164  0.00  0.00    +0.000 A 
BRANCH  23  24
ATOM     24  C   UNL     1       0.360   8.931  21.570  0.00  0.00    +0.000 C 
ATOM     25  C   UNL     1      -0.368  10.180  22.049  0.00  0.00    +0.000 C 
ATOM     26  F   UNL     1      -0.534   7.897  21.683  0.00  0.00    +0.000 F 
ATOM     27  F   UNL     1       1.342   8.638  22.473  0.00  0.00    +0.000 F 
ENDBRANCH  23  24
ENDBRANCH  16  18
ENDBRANCH   5  16
TORSDOF 6
ENDMDL
MODEL 2
REMARK VINA RESULT:      -8.1      1.088      1.331
REMARK  Name = 
REMARK  9 active torsions:
REMARK  status: ('A' for Active; 'I' for Inactive)
REMARK    1  A    between atoms: C_1  and  C_2
REMARK    2  A    between atoms: C_2  and  C_3
REMARK    3  A    between atoms: C_2  and  C_10
REMARK    4  A    between atoms: C_3  and  C_4
REMARK    5  A    between atoms: N_8  and  C_9
REMARK    6  A    between atoms: C_14  and  N_15
REMARK    7  A    between atoms: N_15  and  C_16
REMARK    8  A    between atoms: C_21  and  C_22
REMARK    9  A    between atoms: C_22  and  C_23
REMARK                            x       y       z     vdW  Elec       q    Type
REMARK                         _______ _______ _______ _____ _____    ______ ____
ROOT
ATOM      1  C   UNL     1       2.992   3.540  19.400  0.00  0.00    +0.000 A 
ATOM      2  C   UNL     1       1.812   2.838  19.675  0.00  0.00    +0.000 A 
ATOM      3  C   UNL     1       0.729   3.478  20.282  0.00  0.00    +0.000 A 
ATOM      4  C   UNL     1       0.803   4.833  20.609  0.00  0.00    +0.000 A 
ATOM      5  C   UNL     1       1.954   5.571  20.317  0.00  0.00    +0.000 A 
ATOM      6  C   UNL     1       3.042   4.908  19.724  0.00  0.00    +0.000 A 
ENDROOT
BRANCH   1   8
ATOM      7  C   UNL     1       3.883   1.518  18.137  0.00  0.00    +0.000 C 
ATOM      8  C   UNL     1       4.213   2.881  18.765  0.00  0.00    +0.000 C 
BRANCH   8   9
ATOM      9  C   UNL     1       4.879   3.849  17.764  0.00  0.00    +0.000 C 
BRANCH   9  10
ATOM     10  C   UNL     1       6.017   4.606  18.366  0.00  0.00    +0.000 A 
ATOM     11  N   UNL     1       6.312   4.664  19.651  0.00  0.00    +0.000 NA
ATOM     12  N   UNL     1       7.401   5.486  19.806  0.00  0.00    +0.000 NA
ATOM     13  C   UNL     1       7.760   5.903  18.615  0.00  0.00    +0.000 A 
ATOM     14  N   UNL     1       6.928   5.368  17.679  0.00  0.00    +0.000 N 
ATOM     15  C   UNL     1       7.013   5.573  16.259  0.00  0.00    +0.000 C 
ENDBRANCH   9  10
ENDBRANCH   8   9
ENDBRANCH   1   8
BRANCH   5  16
ATOM     16  N   UNL     1       2.036   6.937  20.678  0.00  0.00    +0.000 N 
ATOM     17  H   UNL     1       1.685   7.108  21.621  0.00  0.00    +0.000 HD
BRANCH  16  18
ATOM     18  C   UNL     1       1.775   8.047  19.844  0.00  0.00    +0.000 A 
ATOM     19  C   UNL     1       2.291   8.130  18.545  0.00  0.00    +0.000 A 
ATOM     20  N   UNL     1       2.048   9.136  17.672  0.00  0.00    +0.000 NA
ATOM     21  C   UNL     1       1.215  10.105  18.093  0.00  0.00    +0.000 A 
ATOM     22  C   UNL     1       0.634  10.118  19.349  0.00  0.00    +0.000 A 
ATOM     23  C   UNL     1       0.915   9.080  20.254  0.00  0.00    +0.000 A 
BRANCH  23  24
ATOM     24  C   UNL     1       0.286   9.117  21.630  0.00  0.00    +0.000 C 
ATOM     25  C   UNL     1      -0.453  10.415  21.928  0.00  0.00    +0.000 C 
ATOM     26  F   UNL     1      -0.626   8.106  21.801  0.00  0.00    +0.000 F 
ATOM     27  F   UNL     1       1.211   8.918  22.615  0.00  0.00    +0.000 F 
ENDBRANCH  23  24
ENDBRANCH  16  18
ENDBRANCH   5  16
TORSDOF 6
ENDMDL
MODEL 3
REMARK VINA RESULT:      -8.1      1.531      2.073
REMARK  Name = 
REMARK  9 active torsions:
REMARK  status: ('A' for Active; 'I' for Inactive)
REMARK    1  A    between atoms: C_1  and  C_2
REMARK    2  A    between atoms: C_2  and  C_3
REMARK    3  A    between atoms: C_2  and  C_10
REMARK    4  A    between atoms: C_3  and  C_4
REMARK    5  A    between atoms: N_8  and  C_9
REMARK    6  A    between atoms: C_14  and  N_15
REMARK    7  A    between atoms: N_15  and  C_16
REMARK    8  A    between atoms: C_21  and  C_22
REMARK    9  A    between atoms: C_22  and  C_23
REMARK                            x       y       z     vdW  Elec       q    Type
REMARK                         _______ _______ _______ _____ _____    ______ ____
ROOT
ATOM      1  C   UNL     1       2.828   5.244  18.626  0.00  0.00    +0.000 A 
ATOM      2  C   UNL     1       2.134   4.197  19.245  0.00  0.00    +0.000 A 
ATOM      3  C   UNL     1       1.345   4.437  20.373  0.00  0.00    +0.000 A 
ATOM      4  C   UNL     1       1.226   5.728  20.889  0.00  0.00    +0.000 A 
ATOM      5  C   UNL     1       1.879   6.801  20.274  0.00  0.00    +0.000 A 
ATOM      6  C   UNL     1       2.685   6.540  19.152  0.00  0.00    +0.000 A 
ENDROOT
BRANCH   1   8
ATOM      7  C   UNL     1       4.322   6.345  16.884  0.00  0.00    +0.000 C 
ATOM      8  C   UNL     1       3.726   5.030  17.410  0.00  0.00    +0.000 C 
BRANCH   8   9
ATOM      9  C   UNL     1       4.807   3.974  17.727  0.00  0.00    +0.000 C 
BRANCH   9  10
ATOM     10  C   UNL     1       6.004   4.559  18.402  0.00  0.00    +0.000 A 
ATOM     11  N   UNL     1       6.097   4.858  19.684  0.00  0.00    +0.000 NA
ATOM     12  N   UNL     1       7.336   5.405  19.909  0.00  0.00    +0.000 NA
ATOM     13  C   UNL     1       7.980   5.419  18.767  0.00  0.00    +0.000 A 
ATOM     14  N   UNL     1       7.189   4.887  17.795  0.00  0.00    +0.000 N 
ATOM     15  C   UNL     1       7.550   4.712  16.415  0.00  0.00    +0.000 C 
ENDBRANCH   9  10
ENDBRANCH   8   9
ENDBRANCH   1   8
BRANCH   5  16
ATOM     16  N   UNL     1       1.780   8.103  20.819  0.00  0.00    +0.000 N 
ATOM     17  H   UNL     1       1.684   8.090  21.835  0.00  0.00    +0.000 HD
BRANCH  16  18
ATOM     18  C   UNL     1       1.072   9.196  20.269  0.00  0.00    +0.000 A 
ATOM     19  C   UNL     1       1.257   9.601  18.942  0.00  0.00    +0.000 A 
ATOM     20  N   UNL     1       0.584  10.605  18.331  0.00  0.00    +0.000 NA
ATOM     21  C   UNL     1      -0.356  11.227  19.066  0.00  0.00    +0.000 A 
ATOM     22  C   UNL     1      -0.637  10.900  20.381  0.00  0.00    +0.000 A 
ATOM     23  C   UNL     1       0.088   9.872  21.010  0.00  0.00    +0.000 A 
BRANCH  23  24
ATOM     24  C   UNL     1      -0.218   9.538  22.454  0.00  0.00    +0.000 C 
ATOM     25  C   UNL     1      -1.066  10.589  23.157  0.00  0.00    +0.000 C 
ATOM     26  F   UNL     1      -0.900   8.353  22.569  0.00  0.00    +0.000 F 
ATOM     27  F   UNL     1       0.922   9.352  23.183  0.00  0.00    +0.000 F 
ENDBRANCH  23  24
ENDBRANCH  16  18
ENDBRANCH   5  16
TORSDOF 6
ENDMDL
MODEL 4
REMARK VINA RESULT:      -7.8      1.165      1.257
REMARK  Name = 
REMARK  9 active torsions:
REMARK  status: ('A' for Active; 'I' for Inactive)
REMARK    1  A    between atoms: C_1  and  C_2
REMARK    2  A    between atoms: C_2  and  C_3
REMARK    3  A    between atoms: C_2  and  C_10
REMARK    4  A    between atoms: C_3  and  C_4
REMARK    5  A    between atoms: N_8  and  C_9
REMARK    6  A    between atoms: C_14  and  N_15
REMARK    7  A    between atoms: N_15  and  C_16
REMARK    8  A    between atoms: C_21  and  C_22
REMARK    9  A    between atoms: C_22  and  C_23
REMARK                            x       y       z     vdW  Elec       q    Type
REMARK                         _______ _______ _______ _____ _____    ______ ____
ROOT
ATOM      1  C   UNL     1       3.010   3.600  19.243  0.00  0.00    +0.000 A 
ATOM      2  C   UNL     1       1.834   2.943  19.626  0.00  0.00    +0.000 A 
ATOM      3  C   UNL     1       0.824   3.630  20.302  0.00  0.00    +0.000 A 
ATOM      4  C   UNL     1       0.966   4.988  20.592  0.00  0.00    +0.000 A 
ATOM      5  C   UNL     1       2.112   5.682  20.193  0.00  0.00    +0.000 A 
ATOM      6  C   UNL     1       3.129   4.972  19.531  0.00  0.00    +0.000 A 
ENDROOT
BRANCH   1   8
ATOM      7  C   UNL     1       3.824   1.424  18.204  0.00  0.00    +0.000 C 
ATOM      8  C   UNL     1       4.156   2.889  18.529  0.00  0.00    +0.000 C 
BRANCH   8   9
ATOM      9  C   UNL     1       4.583   3.690  17.280  0.00  0.00    +0.000 C 
BRANCH   9  10
ATOM     10  C   UNL     1       5.753   4.581  17.540  0.00  0.00    +0.000 A 
ATOM     11  N   UNL     1       6.783   4.295  18.314  0.00  0.00    +0.000 NA
ATOM     12  N   UNL     1       7.628   5.377  18.323  0.00  0.00    +0.000 NA
ATOM     13  C   UNL     1       7.108   6.297  17.545  0.00  0.00    +0.000 A 
ATOM     14  N   UNL     1       5.938   5.837  17.022  0.00  0.00    +0.000 N 
ATOM     15  C   UNL     1       5.085   6.547  16.108  0.00  0.00    +0.000 C 
ENDBRANCH   9  10
ENDBRANCH   8   9
ENDBRANCH   1   8
BRANCH   5  16
ATOM     16  N   UNL     1       2.265   7.051  20.516  0.00  0.00    +0.000 N 
ATOM     17  H   UNL     1       2.029   7.247  21.489  0.00  0.00    +0.000 HD
BRANCH  16  18
ATOM     18  C   UNL     1       1.934   8.154  19.695  0.00  0.00    +0.000 A 
ATOM     19  C   UNL     1       2.298   8.201  18.344  0.00  0.00    +0.000 A 
ATOM     20  N   UNL     1       1.978   9.198  17.485  0.00  0.00    +0.000 NA
ATOM     21  C   UNL     1       1.221  10.194  17.980  0.00  0.00    +0.000 A 
ATOM     22  C   UNL     1       0.789  10.243  19.294  0.00  0.00    +0.000 A 
ATOM     23  C   UNL     1       1.151   9.213  20.182  0.00  0.00    +0.000 A 
BRANCH  23  24
ATOM     24  C   UNL     1       0.686   9.290  21.620  0.00  0.00    +0.000 C 
ATOM     25  C   UNL     1      -0.519   8.408  21.920  0.00  0.00    +0.000 C 
ATOM     26  F   UNL     1       1.671   8.906  22.494  0.00  0.00    +0.000 F 
ATOM     27  F   UNL     1       0.380  10.570  21.985  0.00  0.00    +0.000 F 
ENDBRANCH  23  24
ENDBRANCH  16  18
ENDBRANCH   5  16
TORSDOF 6
ENDMDL
MODEL 5
REMARK VINA RESULT:      -7.8      2.577      8.040
REMARK  Name = 
REMARK  9 active torsions:
REMARK  status: ('A' for Active; 'I' for Inactive)
REMARK    1  A    between atoms: C_1  and  C_2
REMARK    2  A    between atoms: C_2  and  C_3
REMARK    3  A    between atoms: C_2  and  C_10
REMARK    4  A    between atoms: C_3  and  C_4
REMARK    5  A    between atoms: N_8  and  C_9
REMARK    6  A    between atoms: C_14  and  N_15
REMARK    7  A    between atoms: N_15  and  C_16
REMARK    8  A    between atoms: C_21  and  C_22
REMARK    9  A    between atoms: C_22  and  C_23
REMARK                            x       y       z     vdW  Elec       q    Type
REMARK                         _______ _______ _______ _____ _____    ______ ____
ROOT
ATOM      1  C   UNL     1       1.075   8.854  19.793  0.00  0.00    +0.000 A 
ATOM      2  C   UNL     1       1.296   9.407  18.526  0.00  0.00    +0.000 A 
ATOM      3  C   UNL     1       2.224   8.834  17.653  0.00  0.00    +0.000 A 
ATOM      4  C   UNL     1       2.932   7.690  18.027  0.00  0.00    +0.000 A 
ATOM      5  C   UNL     1       2.709   7.093  19.272  0.00  0.00    +0.000 A 
ATOM      6  C   UNL     1       1.787   7.693  20.146  0.00  0.00    +0.000 A 
ENDROOT
BRANCH   1   8
ATOM      7  C   UNL     1      -0.270   8.478  21.921  0.00  0.00    +0.000 C 
ATOM      8  C   UNL     1       0.095   9.458  20.795  0.00  0.00    +0.000 C 
BRANCH   8   9
ATOM      9  C   UNL     1       0.641  10.799  21.330  0.00  0.00    +0.000 C 
BRANCH   9  10
ATOM     10  C   UNL     1      -0.238  11.957  20.988  0.00  0.00    +0.000 A 
ATOM     11  N   UNL     1      -0.136  12.709  19.908  0.00  0.00    +0.000 NA
ATOM     12  N   UNL     1      -1.098  13.687  19.973  0.00  0.00    +0.000 NA
ATOM     13  C   UNL     1      -1.777  13.507  21.081  0.00  0.00    +0.000 A 
ATOM     14  N   UNL     1      -1.282  12.426  21.744  0.00  0.00    +0.000 N 
ATOM     15  C   UNL     1      -1.774  11.899  22.987  0.00  0.00    +0.000 C 
ENDBRANCH   9  10
ENDBRANCH   8   9
ENDBRANCH   1   8
BRANCH   5  16
ATOM     16  N   UNL     1       3.451   5.953  19.658  0.00  0.00    +0.000 N 
ATOM     17  H   UNL     1       4.418   6.182  19.893  0.00  0.00    +0.000 HD
BRANCH  16  18
ATOM     18  C   UNL     1       3.374   4.662  19.086  0.00  0.00    +0.000 A 
ATOM     19  C   UNL     1       4.120   4.314  17.953  0.00  0.00    +0.000 A 
ATOM     20  N   UNL     1       4.136   3.089  17.377  0.00  0.00    +0.000 NA
ATOM     21  C   UNL     1       3.397   2.137  17.974  0.00  0.00    +0.000 A 
ATOM     22  C   UNL     1       2.634   2.363  19.107  0.00  0.00    +0.000 A 
ATOM     23  C   UNL     1       2.608   3.647  19.681  0.00  0.00    +0.000 A 
BRANCH  23  24
ATOM     24  C   UNL     1       1.755   3.882  20.909  0.00  0.00    +0.000 C 
ATOM     25  C   UNL     1       1.360   2.602  21.632  0.00  0.00    +0.000 C 
ATOM     26  F   UNL     1       2.399   4.665  21.833  0.00  0.00    +0.000 F 
ATOM     27  F   UNL     1       0.614   4.571  20.608  0.00  0.00    +0.000 F 
ENDBRANCH  23  24
ENDBRANCH  16  18
ENDBRANCH   5  16
TORSDOF 6
ENDMDL
MODEL 6
REMARK VINA RESULT:      -7.8      0.912      1.156
REMARK  Name = 
REMARK  9 active torsions:
REMARK  status: ('A' for Active; 'I' for Inactive)
REMARK    1  A    between atoms: C_1  and  C_2
REMARK    2  A    between atoms: C_2  and  C_3
REMARK    3  A    between atoms: C_2  and  C_10
REMARK    4  A    between atoms: C_3  and  C_4
REMARK    5  A    between atoms: N_8  and  C_9
REMARK    6  A    between atoms: C_14  and  N_15
REMARK    7  A    between atoms: N_15  and  C_16
REMARK    8  A    between atoms: C_21  and  C_22
REMARK    9  A    between atoms: C_22  and  C_23
REMARK                            x       y       z     vdW  Elec       q    Type
REMARK                         _______ _______ _______ _____ _____    ______ ____
ROOT
ATOM      1  C   UNL     1       2.940   3.741  19.072  0.00  0.00    +0.000 A 
ATOM      2  C   UNL     1       1.866   3.026  19.617  0.00  0.00    +0.000 A 
ATOM      3  C   UNL     1       0.933   3.662  20.438  0.00  0.00    +0.000 A 
ATOM      4  C   UNL     1       1.049   5.025  20.714  0.00  0.00    +0.000 A 
ATOM      5  C   UNL     1       2.089   5.776  20.158  0.00  0.00    +0.000 A 
ATOM      6  C   UNL     1       3.032   5.117  19.350  0.00  0.00    +0.000 A 
ENDROOT
BRANCH   1   8
ATOM      7  C   UNL     1       3.713   1.601  17.930  0.00  0.00    +0.000 C 
ATOM      8  C   UNL     1       4.003   3.087  18.194  0.00  0.00    +0.000 C 
BRANCH   8   9
ATOM      9  C   UNL     1       4.186   3.895  16.891  0.00  0.00    +0.000 C 
BRANCH   9  10
ATOM     10  C   UNL     1       5.531   4.538  16.796  0.00  0.00    +0.000 A 
ATOM     11  N   UNL     1       6.691   3.915  16.888  0.00  0.00    +0.000 NA
ATOM     12  N   UNL     1       7.691   4.851  16.786  0.00  0.00    +0.000 NA
ATOM     13  C   UNL     1       7.125   6.023  16.620  0.00  0.00    +0.000 A 
ATOM     14  N   UNL     1       5.772   5.875  16.607  0.00  0.00    +0.000 N 
ATOM     15  C   UNL     1       4.809   6.926  16.427  0.00  0.00    +0.000 C 
ENDBRANCH   9  10
ENDBRANCH   8   9
ENDBRANCH   1   8
BRANCH   5  16
ATOM     16  N   UNL     1       2.221   7.150  20.465  0.00  0.00    +0.000 N 
ATOM     17  H   UNL     1       2.041   7.345  21.451  0.00  0.00    +0.000 HD
BRANCH  16  18
ATOM     18  C   UNL     1       1.804   8.238  19.664  0.00  0.00    +0.000 A 
ATOM     19  C   UNL     1       2.305   8.435  18.371  0.00  0.00    +0.000 A 
ATOM     20  N   UNL     1       1.922   9.422  17.528  0.00  0.00    +0.000 NA
ATOM     21  C   UNL     1       0.957  10.247  17.973  0.00  0.00    +0.000 A 
ATOM     22  C   UNL     1       0.377  10.137  19.225  0.00  0.00    +0.000 A 
ATOM     23  C   UNL     1       0.803   9.122  20.100  0.00  0.00    +0.000 A 
BRANCH  23  24
ATOM     24  C   UNL     1       0.172   9.025  21.472  0.00  0.00    +0.000 C 
ATOM     25  C   UNL     1       1.171   9.154  22.614  0.00  0.00    +0.000 C 
ATOM     26  F   UNL     1      -0.768  10.004  21.670  0.00  0.00    +0.000 F 
ATOM     27  F   UNL     1      -0.510   7.853  21.634  0.00  0.00    +0.000 F 
ENDBRANCH  23  24
ENDBRANCH  16  18
ENDBRANCH   5  16
TORSDOF 6
ENDMDL
MODEL 7
REMARK VINA RESULT:      -7.7      3.102      8.359
REMARK  Name = 
REMARK  9 active torsions:
REMARK  status: ('A' for Active; 'I' for Inactive)
REMARK    1  A    between atoms: C_1  and  C_2
REMARK    2  A    between atoms: C_2  and  C_3
REMARK    3  A    between atoms: C_2  and  C_10
REMARK    4  A    between atoms: C_3  and  C_4
REMARK    5  A    between atoms: N_8  and  C_9
REMARK    6  A    between atoms: C_14  and  N_15
REMARK    7  A    between atoms: N_15  and  C_16
REMARK    8  A    between atoms: C_21  and  C_22
REMARK    9  A    between atoms: C_22  and  C_23
REMARK                            x       y       z     vdW  Elec       q    Type
REMARK                         _______ _______ _______ _____ _____    ______ ____
ROOT
ATOM      1  C   UNL     1       0.854   9.169  20.359  0.00  0.00    +0.000 A 
ATOM      2  C   UNL     1       0.998   9.678  19.062  0.00  0.00    +0.000 A 
ATOM      3  C   UNL     1       1.777   9.006  18.118  0.00  0.00    +0.000 A 
ATOM      4  C   UNL     1       2.410   7.806  18.450  0.00  0.00    +0.000 A 
ATOM      5  C   UNL     1       2.258   7.254  19.726  0.00  0.00    +0.000 A 
ATOM      6  C   UNL     1       1.488   7.953  20.670  0.00  0.00    +0.000 A 
ENDROOT
BRANCH   1   8
ATOM      7  C   UNL     1       0.343   9.351  22.846  0.00  0.00    +0.000 C 
ATOM      8  C   UNL     1       0.038   9.880  21.435  0.00  0.00    +0.000 C 
BRANCH   8   9
ATOM      9  C   UNL     1       0.226  11.408  21.322  0.00  0.00    +0.000 C 
BRANCH   9  10
ATOM     10  C   UNL     1      -0.919  12.174  21.898  0.00  0.00    +0.000 A 
ATOM     11  N   UNL     1      -1.006  12.615  23.139  0.00  0.00    +0.000 NA
ATOM     12  N   UNL     1      -2.220  13.238  23.291  0.00  0.00    +0.000 NA
ATOM     13  C   UNL     1      -2.847  13.178  22.139  0.00  0.00    +0.000 A 
ATOM     14  N   UNL     1      -2.064  12.531  21.232  0.00  0.00    +0.000 N 
ATOM     15  C   UNL     1      -2.395  12.285  19.855  0.00  0.00    +0.000 C 
ENDBRANCH   9  10
ENDBRANCH   8   9
ENDBRANCH   1   8
BRANCH   5  16
ATOM     16  N   UNL     1       2.926   6.055  20.068  0.00  0.00    +0.000 N 
ATOM     17  H   UNL     1       3.714   6.217  20.696  0.00  0.00    +0.000 HD
BRANCH  16  18
ATOM     18  C   UNL     1       3.197   4.965  19.209  0.00  0.00    +0.000 A 
ATOM     19  C   UNL     1       4.242   5.003  18.278  0.00  0.00    +0.000 A 
ATOM     20  N   UNL     1       4.592   3.985  17.456  0.00  0.00    +0.000 NA
ATOM     21  C   UNL     1       3.889   2.846  17.583  0.00  0.00    +0.000 A 
ATOM     22  C   UNL     1       2.846   2.689  18.480  0.00  0.00    +0.000 A 
ATOM     23  C   UNL     1       2.478   3.763  19.310  0.00  0.00    +0.000 A 
BRANCH  23  24
ATOM     24  C   UNL     1       1.324   3.582  20.273  0.00  0.00    +0.000 C 
ATOM     25  C   UNL     1       1.748   3.075  21.644  0.00  0.00    +0.000 C 
ATOM     26  F   UNL     1       0.651   4.758  20.488  0.00  0.00    +0.000 F 
ATOM     27  F   UNL     1       0.379   2.729  19.776  0.00  0.00    +0.000 F 
ENDBRANCH  23  24
ENDBRANCH  16  18
ENDBRANCH   5  16
TORSDOF 6
ENDMDL
MODEL 8
REMARK VINA RESULT:      -7.7      2.344      7.583
REMARK  Name = 
REMARK  9 active torsions:
REMARK  status: ('A' for Active; 'I' for Inactive)
REMARK    1  A    between atoms: C_1  and  C_2
REMARK    2  A    between atoms: C_2  and  C_3
REMARK    3  A    between atoms: C_2  and  C_10
REMARK    4  A    between atoms: C_3  and  C_4
REMARK    5  A    between atoms: N_8  and  C_9
REMARK    6  A    between atoms: C_14  and  N_15
REMARK    7  A    between atoms: N_15  and  C_16
REMARK    8  A    between atoms: C_21  and  C_22
REMARK    9  A    between atoms: C_22  and  C_23
REMARK                            x       y       z     vdW  Elec       q    Type
REMARK                         _______ _______ _______ _____ _____    ______ ____
ROOT
ATOM      1  C   UNL     1       1.281   8.765  19.726  0.00  0.00    +0.000 A 
ATOM      2  C   UNL     1       1.523   9.275  18.444  0.00  0.00    +0.000 A 
ATOM      3  C   UNL     1       2.426   8.643  17.587  0.00  0.00    +0.000 A 
ATOM      4  C   UNL     1       3.089   7.483  17.991  0.00  0.00    +0.000 A 
ATOM      5  C   UNL     1       2.845   6.929  19.252  0.00  0.00    +0.000 A 
ATOM      6  C   UNL     1       1.948   7.588  20.110  0.00  0.00    +0.000 A 
ENDROOT
BRANCH   1   8
ATOM      7  C   UNL     1       0.817   9.331  22.164  0.00  0.00    +0.000 C 
ATOM      8  C   UNL     1       0.327   9.434  20.711  0.00  0.00    +0.000 C 
BRANCH   8   9
ATOM      9  C   UNL     1       0.054  10.891  20.281  0.00  0.00    +0.000 C 
BRANCH   9  10
ATOM     10  C   UNL     1      -0.982  10.991  19.210  0.00  0.00    +0.000 A 
ATOM     11  N   UNL     1      -1.892  10.077  18.929  0.00  0.00    +0.000 NA
ATOM     12  N   UNL     1      -2.633  10.520  17.862  0.00  0.00    +0.000 NA
ATOM     13  C   UNL     1      -2.173  11.700  17.519  0.00  0.00    +0.000 A 
ATOM     14  N   UNL     1      -1.145  12.042  18.344  0.00  0.00    +0.000 N 
ATOM     15  C   UNL     1      -0.398  13.269  18.298  0.00  0.00    +0.000 C 
ENDBRANCH   9  10
ENDBRANCH   8   9
ENDBRANCH   1   8
BRANCH   5  16
ATOM     16  N   UNL     1       3.542   5.771  19.669  0.00  0.00    +0.000 N 
ATOM     17  H   UNL     1       4.514   5.971  19.908  0.00  0.00    +0.000 HD
BRANCH  16  18
ATOM     18  C   UNL     1       3.425   4.472  19.122  0.00  0.00    +0.000 A 
ATOM     19  C   UNL     1       4.176   4.072  18.010  0.00  0.00    +0.000 A 
ATOM     20  N   UNL     1       4.154   2.835  17.458  0.00  0.00    +0.000 NA
ATOM     21  C   UNL     1       3.369   1.925  18.063  0.00  0.00    +0.000 A 
ATOM     22  C   UNL     1       2.596   2.204  19.177  0.00  0.00    +0.000 A 
ATOM     23  C   UNL     1       2.610   3.500  19.724  0.00  0.00    +0.000 A 
BRANCH  23  24
ATOM     24  C   UNL     1       1.747   3.794  20.932  0.00  0.00    +0.000 C 
ATOM     25  C   UNL     1       1.321   2.548  21.695  0.00  0.00    +0.000 C 
ATOM     26  F   UNL     1       2.393   4.598  21.836  0.00  0.00    +0.000 F 
ATOM     27  F   UNL     1       0.622   4.491  20.592  0.00  0.00    +0.000 F 
ENDBRANCH  23  24
ENDBRANCH  16  18
ENDBRANCH   5  16
TORSDOF 6
ENDMDL
MODEL 9
REMARK VINA RESULT:      -7.7      3.242      8.717
REMARK  Name = 
REMARK  9 active torsions:
REMARK  status: ('A' for Active; 'I' for Inactive)
REMARK    1  A    between atoms: C_1  and  C_2
REMARK    2  A    between atoms: C_2  and  C_3
REMARK    3  A    between atoms: C_2  and  C_10
REMARK    4  A    between atoms: C_3  and  C_4
REMARK    5  A    between atoms: N_8  and  C_9
REMARK    6  A    between atoms: C_14  and  N_15
REMARK    7  A    between atoms: N_15  and  C_16
REMARK    8  A    between atoms: C_21  and  C_22
REMARK    9  A    between atoms: C_22  and  C_23
REMARK                            x       y       z     vdW  Elec       q    Type
REMARK                         _______ _______ _______ _____ _____    ______ ____
ROOT
ATOM      1  C   UNL     1       0.543   9.365  20.639  0.00  0.00    +0.000 A 
ATOM      2  C   UNL     1       0.706   9.992  19.397  0.00  0.00    +0.000 A 
ATOM      3  C   UNL     1       1.522   9.425  18.416  0.00  0.00    +0.000 A 
ATOM      4  C   UNL     1       2.176   8.215  18.655  0.00  0.00    +0.000 A 
ATOM      5  C   UNL     1       2.007   7.546  19.871  0.00  0.00    +0.000 A 
ATOM      6  C   UNL     1       1.198   8.140  20.855  0.00  0.00    +0.000 A 
ENDROOT
BRANCH   1   8
ATOM      7  C   UNL     1       0.113   9.465  23.146  0.00  0.00    +0.000 C 
ATOM      8  C   UNL     1      -0.314   9.958  21.754  0.00  0.00    +0.000 C 
BRANCH   8   9
ATOM      9  C   UNL     1      -0.330  11.498  21.650  0.00  0.00    +0.000 C 
BRANCH   9  10
ATOM     10  C   UNL     1      -1.662  12.034  21.238  0.00  0.00    +0.000 A 
ATOM     11  N   UNL     1      -2.030  12.318  20.002  0.00  0.00    +0.000 NA
ATOM     12  N   UNL     1      -3.308  12.818  20.038  0.00  0.00    +0.000 NA
ATOM     13  C   UNL     1      -3.702  12.818  21.290  0.00  0.00    +0.000 A 
ATOM     14  N   UNL     1      -2.707  12.323  22.077  0.00  0.00    +0.000 N 
ATOM     15  C   UNL     1      -2.768  12.147  23.502  0.00  0.00    +0.000 C 
ENDBRANCH   9  10
ENDBRANCH   8   9
ENDBRANCH   1   8
BRANCH   5  16
ATOM     16  N   UNL     1       2.695   6.335  20.121  0.00  0.00    +0.000 N 
ATOM     17  H   UNL     1       3.706   6.438  20.019  0.00  0.00    +0.000 HD
BRANCH  16  18
ATOM     18  C   UNL     1       2.289   5.038  19.732  0.00  0.00    +0.000 A 
ATOM     19  C   UNL     1       1.216   4.386  20.352  0.00  0.00    +0.000 A 
ATOM     20  N   UNL     1       0.739   3.167  20.006  0.00  0.00    +0.000 NA
ATOM     21  C   UNL     1       1.335   2.567  18.960  0.00  0.00    +0.000 A 
ATOM     22  C   UNL     1       2.392   3.124  18.262  0.00  0.00    +0.000 A 
ATOM     23  C   UNL     1       2.893   4.380  18.648  0.00  0.00    +0.000 A 
BRANCH  23  24
ATOM     24  C   UNL     1       4.061   4.968  17.886  0.00  0.00    +0.000 C 
ATOM     25  C   UNL     1       4.741   3.978  16.951  0.00  0.00    +0.000 C 
ATOM     26  F   UNL     1       3.677   6.031  17.109  0.00  0.00    +0.000 F 
ATOM     27  F   UNL     1       5.008   5.479  18.727  0.00  0.00    +0.000 F 
ENDBRANCH  23  24
ENDBRANCH  16  18
ENDBRANCH   5  16
TORSDOF 6
ENDMDL
