MODEL 1
REMARK VINA RESULT:      -8.6      0.000      0.000
REMARK  Name = 
REMARK  8 active torsions:
REMARK  status: ('A' for Active; 'I' for Inactive)
REMARK    1  A    between atoms: C_1  and  O_2
REMARK    2  A    between atoms: O_2  and  C_3
REMARK    3  A    between atoms: C_6  and  N_7
REMARK    4  A    between atoms: C_8  and  C_10
REMARK    5  A    between atoms: C_10  and  N_11
REMARK    6  A    between atoms: C_10  and  C_22
REMARK    7  A    between atoms: N_11  and  C_12
REMARK    8  A    between atoms: C_12  and  C_13
REMARK                            x       y       z     vdW  Elec       q    Type
REMARK                         _______ _______ _______ _____ _____    ______ ____
ROOT
ATOM      1  C   UNL     1       3.606   5.570  18.033  0.00  0.00    +0.000 C 
ENDROOT
BRANCH   1   2
ATOM      2  C   UNL     1       2.794   4.474  18.722  0.00  0.00    +0.000 A 
ATOM      3  C   UNL     1       2.932   4.247  20.101  0.00  0.00    +0.000 A 
ATOM      4  C   UNL     1       2.105   3.330  20.756  0.00  0.00    +0.000 A 
ATOM      5  C   UNL     1       1.133   2.627  20.045  0.00  0.00    +0.000 A 
ATOM      6  C   UNL     1       1.002   2.819  18.675  0.00  0.00    +0.000 A 
ATOM      7  C   UNL     1       1.829   3.730  18.017  0.00  0.00    +0.000 A 
ENDBRANCH   1   2
BRANCH   1   9
ATOM      8  N   UNL     1       2.127   7.036  19.417  0.00  0.00    +0.000 N 
ATOM      9  C   UNL     1       3.012   6.977  18.340  0.00  0.00    +0.000 C 
ATOM     10  O   UNL     1       3.289   7.943  17.618  0.00  0.00    +0.000 OA
ATOM     11  H   UNL     1       1.722   6.163  19.735  0.00  0.00    +0.000 HD
BRANCH   8  15
ATOM     12  C   UNL     1       0.337  10.578  20.917  0.00  0.00    +0.000 A 
ATOM     13  C   UNL     1       0.772  10.513  19.597  0.00  0.00    +0.000 A 
ATOM     14  C   UNL     1       1.374   9.352  19.109  0.00  0.00    +0.000 A 
ATOM     15  C   UNL     1       1.565   8.236  19.923  0.00  0.00    +0.000 A 
ATOM     16  C   UNL     1       1.205   8.322  21.269  0.00  0.00    +0.000 A 
ATOM     17  C   UNL     1       0.586   9.488  21.762  0.00  0.00    +0.000 A 
ATOM     18 CL   UNL     1       0.107   9.514  23.421  0.00  0.00    +0.000 Cl
BRANCH  12  20
ATOM     19  C   UNL     1      -0.442  12.772  20.517  0.00  0.00    +0.000 C 
ATOM     20  O   UNL     1      -0.288  11.687  21.435  0.00  0.00    +0.000 OA
ENDBRANCH  12  20
ENDBRANCH   8  15
ENDBRANCH   1   9
BRANCH   1  21
ATOM     21  N   UNL     1       5.024   5.602  18.469  0.00  0.00    +0.000 NA
ATOM     22  H   UNL     1       5.029   5.692  19.491  0.00  0.00    +0.000 HD
BRANCH  21  23
ATOM     23  C   UNL     1       5.768   4.388  18.132  0.00  0.00    +0.000 C 
BRANCH  23  24
ATOM     24  C   UNL     1       6.151   4.458  16.687  0.00  0.00    +0.000 A 
ATOM     25  C   UNL     1       7.094   5.259  16.074  0.00  0.00    +0.000 A 
ATOM     26  N   UNL     1       7.057   4.931  14.744  0.00  0.00    +0.000 N 
ATOM     27  C   UNL     1       7.809   5.436  13.685  0.00  0.00    +0.000 A 
ATOM     28  C   UNL     1       7.598   4.960  12.446  0.00  0.00    +0.000 A 
ATOM     29  C   UNL     1       6.580   3.937  12.250  0.00  0.00    +0.000 A 
ATOM     30  C   UNL     1       5.856   3.456  13.280  0.00  0.00    +0.000 A 
ATOM     31  C   UNL     1       6.084   3.949  14.597  0.00  0.00    +0.000 A 
ATOM     32  N   UNL     1       5.533   3.645  15.754  0.00  0.00    +0.000 NA
ENDBRANCH  23  24
ENDBRANCH  21  23
ENDBRANCH   1  21
TORSDOF 7
ENDMDL
MODEL 2
REMARK VINA RESULT:      -8.6      1.029      1.693
REMARK  Name = 
REMARK  8 active torsions:
REMARK  status: ('A' for Active; 'I' for Inactive)
REMARK    1  A    between atoms: C_1  and  O_2
REMARK    2  A    between atoms: O_2  and  C_3
REMARK    3  A    between atoms: C_6  and  N_7
REMARK    4  A    between atoms: C_8  and  C_10
REMARK    5  A    between atoms: C_10  and  N_11
REMARK    6  A    between atoms: C_10  and  C_22
REMARK    7  A    between atoms: N_11  and  C_12
REMARK    8  A    between atoms: C_12  and  C_13
REMARK                            x       y       z     vdW  Elec       q    Type
REMARK                         _______ _______ _______ _____ _____    ______ ____
ROOT
ATOM      1  C   UNL     1       4.368   5.511  17.536  0.00  0.00    +0.000 C 
ENDROOT
BRANCH   1   2
ATOM      2  C   UNL     1       3.567   4.378  18.176  0.00  0.00    +0.000 A 
ATOM      3  C   UNL     1       2.770   3.535  17.385  0.00  0.00    +0.000 A 
ATOM      4  C   UNL     1       2.133   2.426  17.948  0.00  0.00    +0.000 A 
ATOM      5  C   UNL     1       2.278   2.145  19.305  0.00  0.00    +0.000 A 
ATOM      6  C   UNL     1       3.041   2.986  20.109  0.00  0.00    +0.000 A 
ATOM      7  C   UNL     1       3.674   4.096  19.552  0.00  0.00    +0.000 A 
ENDBRANCH   1   2
BRANCH   1   9
ATOM      8  N   UNL     1       2.607   6.886  18.659  0.00  0.00    +0.000 N 
ATOM      9  C   UNL     1       3.645   6.878  17.727  0.00  0.00    +0.000 C 
ATOM     10  O   UNL     1       3.965   7.855  17.038  0.00  0.00    +0.000 OA
ATOM     11  H   UNL     1       2.216   5.990  18.928  0.00  0.00    +0.000 HD
BRANCH   8  15
ATOM     12  C   UNL     1       0.390  10.304  19.842  0.00  0.00    +0.000 A 
ATOM     13  C   UNL     1       0.776  10.140  18.515  0.00  0.00    +0.000 A 
ATOM     14  C   UNL     1       1.518   9.021  18.131  0.00  0.00    +0.000 A 
ATOM     15  C   UNL     1       1.900   8.050  19.055  0.00  0.00    +0.000 A 
ATOM     16  C   UNL     1       1.586   8.249  20.401  0.00  0.00    +0.000 A 
ATOM     17  C   UNL     1       0.827   9.371  20.791  0.00  0.00    +0.000 A 
ATOM     18 CL   UNL     1       0.415   9.532  22.461  0.00  0.00    +0.000 Cl
BRANCH  12  20
ATOM     19  C   UNL     1      -1.579  11.573  19.534  0.00  0.00    +0.000 C 
ATOM     20  O   UNL     1      -0.366  11.372  20.263  0.00  0.00    +0.000 OA
ENDBRANCH  12  20
ENDBRANCH   8  15
ENDBRANCH   1   9
BRANCH   1  21
ATOM     21  N   UNL     1       5.725   5.662  18.117  0.00  0.00    +0.000 NA
ATOM     22  H   UNL     1       5.624   5.666  19.137  0.00  0.00    +0.000 HD
BRANCH  21  23
ATOM     23  C   UNL     1       6.635   4.570  17.771  0.00  0.00    +0.000 C 
BRANCH  23  24
ATOM     24  C   UNL     1       6.684   4.455  16.280  0.00  0.00    +0.000 A 
ATOM     25  C   UNL     1       6.019   3.573  15.453  0.00  0.00    +0.000 A 
ATOM     26  N   UNL     1       6.406   3.889  14.176  0.00  0.00    +0.000 N 
ATOM     27  C   UNL     1       6.026   3.314  12.966  0.00  0.00    +0.000 A 
ATOM     28  C   UNL     1       6.544   3.793  11.821  0.00  0.00    +0.000 A 
ATOM     29  C   UNL     1       7.494   4.895  11.887  0.00  0.00    +0.000 A 
ATOM     30  C   UNL     1       7.857   5.445  13.063  0.00  0.00    +0.000 A 
ATOM     31  C   UNL     1       7.302   4.947  14.278  0.00  0.00    +0.000 A 
ATOM     32  N   UNL     1       7.478   5.307  15.533  0.00  0.00    +0.000 NA
ENDBRANCH  23  24
ENDBRANCH  21  23
ENDBRANCH   1  21
TORSDOF 7
ENDMDL
MODEL 3
REMARK VINA RESULT:      -8.5      1.866      2.029
REMARK  Name = 
REMARK  8 active torsions:
REMARK  status: ('A' for Active; 'I' for Inactive)
REMARK    1  A    between atoms: C_1  and  O_2
REMARK    2  A    between atoms: O_2  and  C_3
REMARK    3  A    between atoms: C_6  and  N_7
REMARK    4  A    between atoms: C_8  and  C_10
REMARK    5  A    between atoms: C_10  and  N_11
REMARK    6  A    between atoms: C_10  and  C_22
REMARK    7  A    between atoms: N_11  and  C_12
REMARK    8  A    between atoms: C_12  and  C_13
REMARK                            x       y       z     vdW  Elec       q    Type
REMARK                         _______ _______ _______ _____ _____    ______ ____
ROOT
ATOM      1  C   UNL     1       3.046   6.093  18.024  0.00  0.00    +0.000 C 
ENDROOT
BRANCH   1   2
ATOM      2  C   UNL     1       2.398   4.880  18.692  0.00  0.00    +0.000 A 
ATOM      3  C   UNL     1       2.440   4.730  20.087  0.00  0.00    +0.000 A 
ATOM      4  C   UNL     1       1.746   3.689  20.711  0.00  0.00    +0.000 A 
ATOM      5  C   UNL     1       1.008   2.783  19.951  0.00  0.00    +0.000 A 
ATOM      6  C   UNL     1       0.980   2.900  18.566  0.00  0.00    +0.000 A 
ATOM      7  C   UNL     1       1.674   3.935  17.941  0.00  0.00    +0.000 A 
ENDBRANCH   1   2
BRANCH   1   9
ATOM      8  N   UNL     1       2.198   8.424  17.711  0.00  0.00    +0.000 N 
ATOM      9  C   UNL     1       2.497   7.419  18.631  0.00  0.00    +0.000 C 
ATOM     10  O   UNL     1       2.400   7.551  19.858  0.00  0.00    +0.000 OA
ATOM     11  H   UNL     1       2.604   8.345  16.785  0.00  0.00    +0.000 HD
BRANCH   8  15
ATOM     12  C   UNL     1       0.415  12.106  18.837  0.00  0.00    +0.000 A 
ATOM     13  C   UNL     1      -0.361  10.959  18.707  0.00  0.00    +0.000 A 
ATOM     14  C   UNL     1       0.225   9.751  18.323  0.00  0.00    +0.000 A 
ATOM     15  C   UNL     1       1.590   9.660  18.049  0.00  0.00    +0.000 A 
ATOM     16  C   UNL     1       2.359  10.824  18.099  0.00  0.00    +0.000 A 
ATOM     17  C   UNL     1       1.774  12.042  18.498  0.00  0.00    +0.000 A 
ATOM     18 CL   UNL     1       2.789  13.436  18.600  0.00  0.00    +0.000 Cl
BRANCH  12  20
ATOM     19  C   UNL     1      -1.467  13.255  19.680  0.00  0.00    +0.000 C 
ATOM     20  O   UNL     1      -0.109  13.310  19.241  0.00  0.00    +0.000 OA
ENDBRANCH  12  20
ENDBRANCH   8  15
ENDBRANCH   1   9
BRANCH   1  21
ATOM     21  N   UNL     1       4.520   6.127  18.188  0.00  0.00    +0.000 NA
ATOM     22  H   UNL     1       4.715   6.438  19.145  0.00  0.00    +0.000 HD
BRANCH  21  23
ATOM     23  C   UNL     1       5.159   4.824  18.011  0.00  0.00    +0.000 C 
BRANCH  23  24
ATOM     24  C   UNL     1       5.682   4.743  16.610  0.00  0.00    +0.000 A 
ATOM     25  C   UNL     1       6.757   5.396  16.044  0.00  0.00    +0.000 A 
ATOM     26  N   UNL     1       6.812   4.972  14.742  0.00  0.00    +0.000 N 
ATOM     27  C   UNL     1       7.709   5.315  13.734  0.00  0.00    +0.000 A 
ATOM     28  C   UNL     1       7.566   4.768  12.514  0.00  0.00    +0.000 A 
ATOM     29  C   UNL     1       6.468   3.839  12.285  0.00  0.00    +0.000 A 
ATOM     30  C   UNL     1       5.603   3.513  13.266  0.00  0.00    +0.000 A 
ATOM     31  C   UNL     1       5.758   4.082  14.564  0.00  0.00    +0.000 A 
ATOM     32  N   UNL     1       5.071   3.925  15.677  0.00  0.00    +0.000 NA
ENDBRANCH  23  24
ENDBRANCH  21  23
ENDBRANCH   1  21
TORSDOF 7
ENDMDL
MODEL 4
REMARK VINA RESULT:      -8.5      1.847      1.957
REMARK  Name = 
REMARK  8 active torsions:
REMARK  status: ('A' for Active; 'I' for Inactive)
REMARK    1  A    between atoms: C_1  and  O_2
REMARK    2  A    between atoms: O_2  and  C_3
REMARK    3  A    between atoms: C_6  and  N_7
REMARK    4  A    between atoms: C_8  and  C_10
REMARK    5  A    between atoms: C_10  and  N_11
REMARK    6  A    between atoms: C_10  and  C_22
REMARK    7  A    between atoms: N_11  and  C_12
REMARK    8  A    between atoms: C_12  and  C_13
REMARK                            x       y       z     vdW  Elec       q    Type
REMARK                         _______ _______ _______ _____ _____    ______ ____
ROOT
ATOM      1  C   UNL     1       2.947   6.192  18.148  0.00  0.00    +0.000 C 
ENDROOT
BRANCH   1   2
ATOM      2  C   UNL     1       2.280   4.965  18.768  0.00  0.00    +0.000 A 
ATOM      3  C   UNL     1       2.187   4.836  20.163  0.00  0.00    +0.000 A 
ATOM      4  C   UNL     1       1.472   3.778  20.732  0.00  0.00    +0.000 A 
ATOM      5  C   UNL     1       0.846   2.834  19.919  0.00  0.00    +0.000 A 
ATOM      6  C   UNL     1       0.952   2.932  18.536  0.00  0.00    +0.000 A 
ATOM      7  C   UNL     1       1.668   3.983  17.966  0.00  0.00    +0.000 A 
ENDBRANCH   1   2
BRANCH   1   9
ATOM      8  N   UNL     1       1.910   8.436  17.770  0.00  0.00    +0.000 N 
ATOM      9  C   UNL     1       2.334   7.506  18.720  0.00  0.00    +0.000 C 
ATOM     10  O   UNL     1       2.293   7.695  19.942  0.00  0.00    +0.000 OA
ATOM     11  H   UNL     1       2.271   8.337  16.828  0.00  0.00    +0.000 HD
BRANCH   8  15
ATOM     12  C   UNL     1      -0.136  12.061  18.587  0.00  0.00    +0.000 A 
ATOM     13  C   UNL     1       1.252  12.003  18.665  0.00  0.00    +0.000 A 
ATOM     14  C   UNL     1       1.922  10.806  18.410  0.00  0.00    +0.000 A 
ATOM     15  C   UNL     1       1.230   9.641  18.082  0.00  0.00    +0.000 A 
ATOM     16  C   UNL     1      -0.166   9.672  18.082  0.00  0.00    +0.000 A 
ATOM     17  C   UNL     1      -0.846  10.881  18.327  0.00  0.00    +0.000 A 
ATOM     18 CL   UNL     1      -2.572  10.873  18.251  0.00  0.00    +0.000 Cl
BRANCH  12  20
ATOM     19  C   UNL     1      -1.077  13.537  20.173  0.00  0.00    +0.000 C 
ATOM     20  O   UNL     1      -0.840  13.223  18.800  0.00  0.00    +0.000 OA
ENDBRANCH  12  20
ENDBRANCH   8  15
ENDBRANCH   1   9
BRANCH   1  21
ATOM     21  N   UNL     1       4.406   6.253  18.409  0.00  0.00    +0.000 NA
ATOM     22  H   UNL     1       4.531   6.563  19.379  0.00  0.00    +0.000 HD
BRANCH  21  23
ATOM     23  C   UNL     1       5.081   4.963  18.270  0.00  0.00    +0.000 C 
BRANCH  23  24
ATOM     24  C   UNL     1       5.600   4.854  16.870  0.00  0.00    +0.000 A 
ATOM     25  C   UNL     1       6.709   5.450  16.304  0.00  0.00    +0.000 A 
ATOM     26  N   UNL     1       6.742   5.021  15.003  0.00  0.00    +0.000 N 
ATOM     27  C   UNL     1       7.657   5.316  13.995  0.00  0.00    +0.000 A 
ATOM     28  C   UNL     1       7.487   4.776  12.775  0.00  0.00    +0.000 A 
ATOM     29  C   UNL     1       6.342   3.905  12.547  0.00  0.00    +0.000 A 
ATOM     30  C   UNL     1       5.461   3.626  13.527  0.00  0.00    +0.000 A 
ATOM     31  C   UNL     1       5.644   4.187  14.824  0.00  0.00    +0.000 A 
ATOM     32  N   UNL     1       4.948   4.068  15.937  0.00  0.00    +0.000 NA
ENDBRANCH  23  24
ENDBRANCH  21  23
ENDBRANCH   1  21
TORSDOF 7
ENDMDL
MODEL 5
REMARK VINA RESULT:      -8.5      1.157      1.731
REMARK  Name = 
REMARK  8 active torsions:
REMARK  status: ('A' for Active; 'I' for Inactive)
REMARK    1  A    between atoms: C_1  and  O_2
REMARK    2  A    between atoms: O_2  and  C_3
REMARK    3  A    between atoms: C_6  and  N_7
REMARK    4  A    between atoms: C_8  and  C_10
REMARK    5  A    between atoms: C_10  and  N_11
REMARK    6  A    between atoms: C_10  and  C_22
REMARK    7  A    between atoms: N_11  and  C_12
REMARK    8  A    between atoms: C_12  and  C_13
REMARK                            x       y       z     vdW  Elec       q    Type
REMARK                         _______ _______ _______ _____ _____    ______ ____
ROOT
ATOM      1  C   UNL     1       3.528   5.685  17.994  0.00  0.00    +0.000 C 
ENDROOT
BRANCH   1   2
ATOM      2  C   UNL     1       2.774   4.564  18.709  0.00  0.00    +0.000 A 
ATOM      3  C   UNL     1       2.957   4.350  20.085  0.00  0.00    +0.000 A 
ATOM      4  C   UNL     1       2.181   3.408  20.766  0.00  0.00    +0.000 A 
ATOM      5  C   UNL     1       1.218   2.665  20.085  0.00  0.00    +0.000 A 
ATOM      6  C   UNL     1       1.045   2.845  18.717  0.00  0.00    +0.000 A 
ATOM      7  C   UNL     1       1.820   3.780  18.034  0.00  0.00    +0.000 A 
ENDBRANCH   1   2
BRANCH   1   9
ATOM      8  N   UNL     1       2.123   7.091  19.512  0.00  0.00    +0.000 N 
ATOM      9  C   UNL     1       2.960   7.080  18.395  0.00  0.00    +0.000 C 
ATOM     10  O   UNL     1       3.214   8.078  17.710  0.00  0.00    +0.000 OA
ATOM     11  H   UNL     1       1.724   6.206  19.804  0.00  0.00    +0.000 HD
BRANCH   8  15
ATOM     12  C   UNL     1       0.650  10.661  21.267  0.00  0.00    +0.000 A 
ATOM     13  C   UNL     1       0.930   9.551  22.058  0.00  0.00    +0.000 A 
ATOM     14  C   UNL     1       1.401   8.372  21.477  0.00  0.00    +0.000 A 
ATOM     15  C   UNL     1       1.595   8.268  20.100  0.00  0.00    +0.000 A 
ATOM     16  C   UNL     1       1.239   9.350  19.292  0.00  0.00    +0.000 A 
ATOM     17  C   UNL     1       0.775  10.546  19.876  0.00  0.00    +0.000 A 
ATOM     18 CL   UNL     1       0.410  11.872  18.831  0.00  0.00    +0.000 Cl
BRANCH  12  20
ATOM     19  C   UNL     1      -1.098  11.814  22.359  0.00  0.00    +0.000 C 
ATOM     20  O   UNL     1       0.214  11.853  21.795  0.00  0.00    +0.000 OA
ENDBRANCH  12  20
ENDBRANCH   8  15
ENDBRANCH   1   9
BRANCH   1  21
ATOM     21  N   UNL     1       4.976   5.706  18.314  0.00  0.00    +0.000 NA
ATOM     22  H   UNL     1       5.066   5.889  19.319  0.00  0.00    +0.000 HD
BRANCH  21  23
ATOM     23  C   UNL     1       5.657   4.442  18.035  0.00  0.00    +0.000 C 
BRANCH  23  24
ATOM     24  C   UNL     1       5.986   4.398  16.576  0.00  0.00    +0.000 A 
ATOM     25  C   UNL     1       5.413   3.636  15.578  0.00  0.00    +0.000 A 
ATOM     26  N   UNL     1       6.070   3.972  14.423  0.00  0.00    +0.000 N 
ATOM     27  C   UNL     1       5.881   3.504  13.125  0.00  0.00    +0.000 A 
ATOM     28  C   UNL     1       6.656   3.981  12.136  0.00  0.00    +0.000 A 
ATOM     29  C   UNL     1       7.676   4.970  12.458  0.00  0.00    +0.000 A 
ATOM     30  C   UNL     1       7.853   5.417  13.717  0.00  0.00    +0.000 A 
ATOM     31  C   UNL     1       7.027   4.922  14.767  0.00  0.00    +0.000 A 
ATOM     32  N   UNL     1       6.988   5.196  16.055  0.00  0.00    +0.000 NA
ENDBRANCH  23  24
ENDBRANCH  21  23
ENDBRANCH   1  21
TORSDOF 7
ENDMDL
MODEL 6
REMARK VINA RESULT:      -8.4      1.911      2.266
REMARK  Name = 
REMARK  8 active torsions:
REMARK  status: ('A' for Active; 'I' for Inactive)
REMARK    1  A    between atoms: C_1  and  O_2
REMARK    2  A    between atoms: O_2  and  C_3
REMARK    3  A    between atoms: C_6  and  N_7
REMARK    4  A    between atoms: C_8  and  C_10
REMARK    5  A    between atoms: C_10  and  N_11
REMARK    6  A    between atoms: C_10  and  C_22
REMARK    7  A    between atoms: N_11  and  C_12
REMARK    8  A    between atoms: C_12  and  C_13
REMARK                            x       y       z     vdW  Elec       q    Type
REMARK                         _______ _______ _______ _____ _____    ______ ____
ROOT
ATOM      1  C   UNL     1       2.940   6.232  18.142  0.00  0.00    +0.000 C 
ENDROOT
BRANCH   1   2
ATOM      2  C   UNL     1       2.274   5.000  18.754  0.00  0.00    +0.000 A 
ATOM      3  C   UNL     1       2.122   4.892  20.146  0.00  0.00    +0.000 A 
ATOM      4  C   UNL     1       1.407   3.826  20.702  0.00  0.00    +0.000 A 
ATOM      5  C   UNL     1       0.840   2.855  19.879  0.00  0.00    +0.000 A 
ATOM      6  C   UNL     1       1.006   2.932  18.500  0.00  0.00    +0.000 A 
ATOM      7  C   UNL     1       1.722   3.990  17.943  0.00  0.00    +0.000 A 
ENDBRANCH   1   2
BRANCH   1   9
ATOM      8  N   UNL     1       1.993   8.517  17.779  0.00  0.00    +0.000 N 
ATOM      9  C   UNL     1       2.322   7.541  18.720  0.00  0.00    +0.000 C 
ATOM     10  O   UNL     1       2.199   7.686  19.942  0.00  0.00    +0.000 OA
ATOM     11  H   UNL     1       2.418   8.442  16.862  0.00  0.00    +0.000 HD
BRANCH   8  15
ATOM     12  C   UNL     1      -0.024  12.160  18.590  0.00  0.00    +0.000 A 
ATOM     13  C   UNL     1       1.366  12.107  18.606  0.00  0.00    +0.000 A 
ATOM     14  C   UNL     1       2.028  10.904  18.353  0.00  0.00    +0.000 A 
ATOM     15  C   UNL     1       1.325   9.729  18.089  0.00  0.00    +0.000 A 
ATOM     16  C   UNL     1      -0.070   9.758  18.152  0.00  0.00    +0.000 A 
ATOM     17  C   UNL     1      -0.742  10.973  18.395  0.00  0.00    +0.000 A 
ATOM     18 CL   UNL     1      -2.469  10.959  18.399  0.00  0.00    +0.000 Cl
BRANCH  12  20
ATOM     19  C   UNL     1       0.085  14.505  18.856  0.00  0.00    +0.000 C 
ATOM     20  O   UNL     1      -0.721  13.326  18.802  0.00  0.00    +0.000 OA
ENDBRANCH  12  20
ENDBRANCH   8  15
ENDBRANCH   1   9
BRANCH   1  21
ATOM     21  N   UNL     1       4.398   6.295  18.407  0.00  0.00    +0.000 NA
ATOM     22  H   UNL     1       4.521   6.636  19.366  0.00  0.00    +0.000 HD
BRANCH  21  23
ATOM     23  C   UNL     1       5.068   4.998  18.314  0.00  0.00    +0.000 C 
BRANCH  23  24
ATOM     24  C   UNL     1       5.491   4.789  16.893  0.00  0.00    +0.000 A 
ATOM     25  C   UNL     1       4.925   3.983  15.927  0.00  0.00    +0.000 A 
ATOM     26  N   UNL     1       5.686   4.156  14.800  0.00  0.00    +0.000 N 
ATOM     27  C   UNL     1       5.547   3.582  13.539  0.00  0.00    +0.000 A 
ATOM     28  C   UNL     1       6.426   3.901  12.572  0.00  0.00    +0.000 A 
ATOM     29  C   UNL     1       7.502   4.833  12.881  0.00  0.00    +0.000 A 
ATOM     30  C   UNL     1       7.630   5.383  14.105  0.00  0.00    +0.000 A 
ATOM     31  C   UNL     1       6.694   5.056  15.129  0.00  0.00    +0.000 A 
ATOM     32  N   UNL     1       6.590   5.454  16.381  0.00  0.00    +0.000 NA
ENDBRANCH  23  24
ENDBRANCH  21  23
ENDBRANCH   1  21
TORSDOF 7
ENDMDL
MODEL 7
REMARK VINA RESULT:      -8.3      1.928      2.295
REMARK  Name = 
REMARK  8 active torsions:
REMARK  status: ('A' for Active; 'I' for Inactive)
REMARK    1  A    between atoms: C_1  and  O_2
REMARK    2  A    between atoms: O_2  and  C_3
REMARK    3  A    between atoms: C_6  and  N_7
REMARK    4  A    between atoms: C_8  and  C_10
REMARK    5  A    between atoms: C_10  and  N_11
REMARK    6  A    between atoms: C_10  and  C_22
REMARK    7  A    between atoms: N_11  and  C_12
REMARK    8  A    between atoms: C_12  and  C_13
REMARK                            x       y       z     vdW  Elec       q    Type
REMARK                         _______ _______ _______ _____ _____    ______ ____
ROOT
ATOM      1  C   UNL     1       3.024   6.114  18.175  0.00  0.00    +0.000 C 
ENDROOT
BRANCH   1   2
ATOM      2  C   UNL     1       2.434   4.906  18.903  0.00  0.00    +0.000 A 
ATOM      3  C   UNL     1       2.569   4.780  20.295  0.00  0.00    +0.000 A 
ATOM      4  C   UNL     1       1.930   3.743  20.980  0.00  0.00    +0.000 A 
ATOM      5  C   UNL     1       1.151   2.818  20.286  0.00  0.00    +0.000 A 
ATOM      6  C   UNL     1       1.031   2.912  18.904  0.00  0.00    +0.000 A 
ATOM      7  C   UNL     1       1.671   3.942  18.218  0.00  0.00    +0.000 A 
ENDBRANCH   1   2
BRANCH   1   9
ATOM      8  N   UNL     1       2.173   8.432  17.781  0.00  0.00    +0.000 N 
ATOM      9  C   UNL     1       2.428   7.442  18.731  0.00  0.00    +0.000 C 
ATOM     10  O   UNL     1       2.259   7.589  19.948  0.00  0.00    +0.000 OA
ATOM     11  H   UNL     1       2.633   8.344  16.882  0.00  0.00    +0.000 HD
BRANCH   8  15
ATOM     12  C   UNL     1       0.292  12.109  18.753  0.00  0.00    +0.000 A 
ATOM     13  C   UNL     1      -0.466  10.958  18.565  0.00  0.00    +0.000 A 
ATOM     14  C   UNL     1       0.153   9.752  18.231  0.00  0.00    +0.000 A 
ATOM     15  C   UNL     1       1.535   9.666  18.068  0.00  0.00    +0.000 A 
ATOM     16  C   UNL     1       2.293  10.833  18.175  0.00  0.00    +0.000 A 
ATOM     17  C   UNL     1       1.674  12.050  18.524  0.00  0.00    +0.000 A 
ATOM     18 CL   UNL     1       2.671  13.448  18.703  0.00  0.00    +0.000 Cl
BRANCH  12  20
ATOM     19  C   UNL     1      -1.478  13.209  19.864  0.00  0.00    +0.000 C 
ATOM     20  O   UNL     1      -0.268  13.312  19.112  0.00  0.00    +0.000 OA
ENDBRANCH  12  20
ENDBRANCH   8  15
ENDBRANCH   1   9
BRANCH   1  21
ATOM     21  N   UNL     1       4.497   6.214  18.317  0.00  0.00    +0.000 NA
ATOM     22  H   UNL     1       4.691   6.586  19.252  0.00  0.00    +0.000 HD
BRANCH  21  23
ATOM     23  C   UNL     1       5.186   4.929  18.204  0.00  0.00    +0.000 C 
BRANCH  23  24
ATOM     24  C   UNL     1       5.581   4.732  16.774  0.00  0.00    +0.000 A 
ATOM     25  C   UNL     1       5.008   3.919  15.817  0.00  0.00    +0.000 A 
ATOM     26  N   UNL     1       5.743   4.109  14.675  0.00  0.00    +0.000 N 
ATOM     27  C   UNL     1       5.586   3.536  13.415  0.00  0.00    +0.000 A 
ATOM     28  C   UNL     1       6.439   3.874  12.431  0.00  0.00    +0.000 A 
ATOM     29  C   UNL     1       7.505   4.822  12.720  0.00  0.00    +0.000 A 
ATOM     30  C   UNL     1       7.650   5.370  13.943  0.00  0.00    +0.000 A 
ATOM     31  C   UNL     1       6.742   5.024  14.986  0.00  0.00    +0.000 A 
ATOM     32  N   UNL     1       6.659   5.416  16.241  0.00  0.00    +0.000 NA
ENDBRANCH  23  24
ENDBRANCH  21  23
ENDBRANCH   1  21
TORSDOF 7
ENDMDL
MODEL 8
REMARK VINA RESULT:      -8.3      0.747      1.214
REMARK  Name = 
REMARK  8 active torsions:
REMARK  status: ('A' for Active; 'I' for Inactive)
REMARK    1  A    between atoms: C_1  and  O_2
REMARK    2  A    between atoms: O_2  and  C_3
REMARK    3  A    between atoms: C_6  and  N_7
REMARK    4  A    between atoms: C_8  and  C_10
REMARK    5  A    between atoms: C_10  and  N_11
REMARK    6  A    between atoms: C_10  and  C_22
REMARK    7  A    between atoms: N_11  and  C_12
REMARK    8  A    between atoms: C_12  and  C_13
REMARK                            x       y       z     vdW  Elec       q    Type
REMARK                         _______ _______ _______ _____ _____    ______ ____
ROOT
ATOM      1  C   UNL     1       3.573   5.764  17.906  0.00  0.00    +0.000 C 
ENDROOT
BRANCH   1   2
ATOM      2  C   UNL     1       2.806   4.759  18.766  0.00  0.00    +0.000 A 
ATOM      3  C   UNL     1       2.998   4.721  20.156  0.00  0.00    +0.000 A 
ATOM      4  C   UNL     1       2.212   3.890  20.959  0.00  0.00    +0.000 A 
ATOM      5  C   UNL     1       1.230   3.083  20.386  0.00  0.00    +0.000 A 
ATOM      6  C   UNL     1       1.047   3.088  19.008  0.00  0.00    +0.000 A 
ATOM      7  C   UNL     1       1.832   3.913  18.204  0.00  0.00    +0.000 A 
ENDBRANCH   1   2
BRANCH   1   9
ATOM      8  N   UNL     1       2.142   7.399  19.145  0.00  0.00    +0.000 N 
ATOM      9  C   UNL     1       2.949   7.187  18.026  0.00  0.00    +0.000 C 
ATOM     10  O   UNL     1       3.137   8.028  17.138  0.00  0.00    +0.000 OA
ATOM     11  H   UNL     1       1.794   6.579  19.630  0.00  0.00    +0.000 HD
BRANCH   8  15
ATOM     12  C   UNL     1       0.330  11.099  20.158  0.00  0.00    +0.000 A 
ATOM     13  C   UNL     1       0.931  10.926  18.915  0.00  0.00    +0.000 A 
ATOM     14  C   UNL     1       1.540   9.712  18.589  0.00  0.00    +0.000 A 
ATOM     15  C   UNL     1       1.573   8.650  19.492  0.00  0.00    +0.000 A 
ATOM     16  C   UNL     1       1.044   8.844  20.769  0.00  0.00    +0.000 A 
ATOM     17  C   UNL     1       0.418  10.063  21.098  0.00  0.00    +0.000 A 
ATOM     18 CL   UNL     1      -0.274  10.223  22.673  0.00  0.00    +0.000 Cl
BRANCH  12  20
ATOM     19  C   UNL     1      -1.615  12.423  19.962  0.00  0.00    +0.000 C 
ATOM     20  O   UNL     1      -0.307  12.263  20.514  0.00  0.00    +0.000 OA
ENDBRANCH  12  20
ENDBRANCH   8  15
ENDBRANCH   1   9
BRANCH   1  21
ATOM     21  N   UNL     1       4.999   5.890  18.295  0.00  0.00    +0.000 NA
ATOM     22  H   UNL     1       5.027   6.099  19.298  0.00  0.00    +0.000 HD
BRANCH  21  23
ATOM     23  C   UNL     1       5.775   4.669  18.079  0.00  0.00    +0.000 C 
BRANCH  23  24
ATOM     24  C   UNL     1       6.059   4.546  16.614  0.00  0.00    +0.000 A 
ATOM     25  C   UNL     1       5.452   3.737  15.675  0.00  0.00    +0.000 A 
ATOM     26  N   UNL     1       6.076   4.008  14.485  0.00  0.00    +0.000 N 
ATOM     27  C   UNL     1       5.845   3.473  13.220  0.00  0.00    +0.000 A 
ATOM     28  C   UNL     1       6.592   3.894  12.184  0.00  0.00    +0.000 A 
ATOM     29  C   UNL     1       7.626   4.891  12.422  0.00  0.00    +0.000 A 
ATOM     30  C   UNL     1       7.844   5.402  13.650  0.00  0.00    +0.000 A 
ATOM     31  C   UNL     1       7.047   4.968  14.749  0.00  0.00    +0.000 A 
ATOM     32  N   UNL     1       7.049   5.310  16.022  0.00  0.00    +0.000 NA
ENDBRANCH  23  24
ENDBRANCH  21  23
ENDBRANCH   1  21
TORSDOF 7
ENDMDL
MODEL 9
REMARK VINA RESULT:      -8.3      1.937      2.406
REMARK  Name = 
REMARK  8 active torsions:
REMARK  status: ('A' for Active; 'I' for Inactive)
REMARK    1  A    between atoms: C_1  and  O_2
REMARK    2  A    between atoms: O_2  and  C_3
REMARK    3  A    between atoms: C_6  and  N_7
REMARK    4  A    between atoms: C_8  and  C_10
REMARK    5  A    between atoms: C_10  and  N_11
REMARK    6  A    between atoms: C_10  and  C_22
REMARK    7  A    between atoms: N_11  and  C_12
REMARK    8  A    between atoms: C_12  and  C_13
REMARK                            x       y       z     vdW  Elec       q    Type
REMARK                         _______ _______ _______ _____ _____    ______ ____
ROOT
ATOM      1  C   UNL     1       3.611   5.976  17.727  0.00  0.00    +0.000 C 
ENDROOT
BRANCH   1   2
ATOM      2  C   UNL     1       3.113   4.643  18.284  0.00  0.00    +0.000 A 
ATOM      3  C   UNL     1       2.404   3.749  17.465  0.00  0.00    +0.000 A 
ATOM      4  C   UNL     1       2.053   2.480  17.934  0.00  0.00    +0.000 A 
ATOM      5  C   UNL     1       2.399   2.089  19.227  0.00  0.00    +0.000 A 
ATOM      6  C   UNL     1       3.075   2.972  20.061  0.00  0.00    +0.000 A 
ATOM      7  C   UNL     1       3.423   4.240  19.597  0.00  0.00    +0.000 A 
ENDBRANCH   1   2
BRANCH   1   9
ATOM      8  N   UNL     1       2.521   8.218  17.535  0.00  0.00    +0.000 N 
ATOM      9  C   UNL     1       2.862   7.170  18.391  0.00  0.00    +0.000 C 
ATOM     10  O   UNL     1       2.651   7.174  19.610  0.00  0.00    +0.000 OA
ATOM     11  H   UNL     1       3.008   8.271  16.647  0.00  0.00    +0.000 HD
BRANCH   8  15
ATOM     12  C   UNL     1       0.232  11.558  18.801  0.00  0.00    +0.000 A 
ATOM     13  C   UNL     1      -0.389  10.347  18.517  0.00  0.00    +0.000 A 
ATOM     14  C   UNL     1       0.365   9.252  18.087  0.00  0.00    +0.000 A 
ATOM     15  C   UNL     1       1.746   9.341  17.920  0.00  0.00    +0.000 A 
ATOM     16  C   UNL     1       2.364  10.576  18.125  0.00  0.00    +0.000 A 
ATOM     17  C   UNL     1       1.610  11.680  18.571  0.00  0.00    +0.000 A 
ATOM     18 CL   UNL     1       2.439  13.165  18.868  0.00  0.00    +0.000 Cl
BRANCH  12  20
ATOM     19  C   UNL     1      -1.876  12.476  19.342  0.00  0.00    +0.000 C 
ATOM     20  O   UNL     1      -0.461  12.655  19.256  0.00  0.00    +0.000 OA
ENDBRANCH  12  20
ENDBRANCH   8  15
ENDBRANCH   1   9
BRANCH   1  21
ATOM     21  N   UNL     1       5.059   6.197  17.961  0.00  0.00    +0.000 NA
ATOM     22  H   UNL     1       5.166   6.535  18.923  0.00  0.00    +0.000 HD
BRANCH  21  23
ATOM     23  C   UNL     1       5.866   4.984  17.829  0.00  0.00    +0.000 C 
BRANCH  23  24
ATOM     24  C   UNL     1       6.141   4.760  16.375  0.00  0.00    +0.000 A 
ATOM     25  C   UNL     1       5.562   3.853  15.509  0.00  0.00    +0.000 A 
ATOM     26  N   UNL     1       6.162   4.058  14.294  0.00  0.00    +0.000 N 
ATOM     27  C   UNL     1       5.943   3.416  13.078  0.00  0.00    +0.000 A 
ATOM     28  C   UNL     1       6.661   3.786  12.002  0.00  0.00    +0.000 A 
ATOM     29  C   UNL     1       7.652   4.843  12.149  0.00  0.00    +0.000 A 
ATOM     30  C   UNL     1       7.858   5.458  13.331  0.00  0.00    +0.000 A 
ATOM     31  C   UNL     1       7.092   5.077  14.470  0.00  0.00    +0.000 A 
ATOM     32  N   UNL     1       7.090   5.517  15.712  0.00  0.00    +0.000 NA
ENDBRANCH  23  24
ENDBRANCH  21  23
ENDBRANCH   1  21
TORSDOF 7
ENDMDL
