MODEL 1
REMARK VINA RESULT:      -8.7      0.000      0.000
REMARK  Name = 
REMARK  4 active torsions:
REMARK  status: ('A' for Active; 'I' for Inactive)
REMARK    1  A    between atoms: C_2  and  C_17
REMARK    2  A    between atoms: N_3  and  C_4
REMARK    3  A    between atoms: C_4  and  C_5
REMARK    4  A    between atoms: C_8  and  C_9
REMARK                            x       y       z     vdW  Elec       q    Type
REMARK                         _______ _______ _______ _____ _____    ______ ____
ROOT
ATOM      1  O   UNL     1       8.771   7.959  19.088  0.00  0.00    +0.000 OA
ATOM      2  C   UNL     1       8.440   8.748  18.208  0.00  0.00    +0.000 C 
ATOM      3  N   UNL     1       7.787   8.381  17.052  0.00  0.00    +0.000 N 
ATOM      4  H   UNL     1       7.558   9.126  16.399  0.00  0.00    +0.000 HD
ENDROOT
BRANCH   2   5
ATOM      5  C   UNL     1       8.757  10.205  18.331  0.00  0.00    +0.000 A 
ATOM      6  C   UNL     1       9.867  10.594  19.062  0.00  0.00    +0.000 A 
ATOM      7  C   UNL     1      10.220  11.939  19.014  0.00  0.00    +0.000 A 
ATOM      8  C   UNL     1      11.437  12.424  19.678  0.00  0.00    +0.000 A 
ATOM      9  O   UNL     1      12.129  11.703  20.387  0.00  0.00    +0.000 OA
ATOM     10  N   UNL     1      11.753  13.739  19.444  0.00  0.00    +0.000 N 
ATOM     11  C   UNL     1      10.957  14.572  18.714  0.00  0.00    +0.000 A 
ATOM     12  N   UNL     1       9.851  14.211  18.156  0.00  0.00    +0.000 NA
ATOM     13  C   UNL     1       9.475  12.863  18.285  0.00  0.00    +0.000 A 
ATOM     14  C   UNL     1       8.347  12.371  17.637  0.00  0.00    +0.000 A 
ATOM     15  N   UNL     1       7.963  11.068  17.634  0.00  0.00    +0.000 NA
ATOM     16  H   UNL     1      12.606  14.076  19.872  0.00  0.00    +0.000 HD
ENDBRANCH   2   5
BRANCH   3  17
ATOM     17  C   UNL     1       7.425   7.010  16.759  0.00  0.00    +0.000 C 
BRANCH  17  18
ATOM     18  C   UNL     1       6.229   6.492  17.577  0.00  0.00    +0.000 C 
ATOM     19  C   UNL     1       6.485   5.084  18.134  0.00  0.00    +0.000 C 
ATOM     20  C   UNL     1       5.295   4.567  18.946  0.00  0.00    +0.000 C 
ATOM     21  C   UNL     1       3.993   4.615  18.130  0.00  0.00    +0.000 C 
ATOM     22  C   UNL     1       3.733   6.033  17.597  0.00  0.00    +0.000 C 
ATOM     23  C   UNL     1       4.915   6.542  16.781  0.00  0.00    +0.000 C 
BRANCH  21  24
ATOM     24  C   UNL     1       2.796   4.110  18.914  0.00  0.00    +0.000 A 
ATOM     25  C   UNL     1       1.844   3.261  18.329  0.00  0.00    +0.000 A 
ATOM     26  C   UNL     1       0.779   2.762  19.079  0.00  0.00    +0.000 A 
ATOM     27  C   UNL     1       0.650   3.105  20.422  0.00  0.00    +0.000 A 
ATOM     28  C   UNL     1       1.583   3.954  21.015  0.00  0.00    +0.000 A 
ATOM     29  C   UNL     1       2.649   4.454  20.266  0.00  0.00    +0.000 A 
ENDBRANCH  21  24
ENDBRANCH  17  18
ENDBRANCH   3  17
TORSDOF 4
ENDMDL
MODEL 2
REMARK VINA RESULT:      -8.5      6.206      8.327
REMARK  Name = 
REMARK  4 active torsions:
REMARK  status: ('A' for Active; 'I' for Inactive)
REMARK    1  A    between atoms: C_2  and  C_17
REMARK    2  A    between atoms: N_3  and  C_4
REMARK    3  A    between atoms: C_4  and  C_5
REMARK    4  A    between atoms: C_8  and  C_9
REMARK                            x       y       z     vdW  Elec       q    Type
REMARK                         _______ _______ _______ _____ _____    ______ ____
ROOT
ATOM      1  O   UNL     1       1.365   6.479  21.134  0.00  0.00    +0.000 OA
ATOM      2  C   UNL     1       1.733   7.313  20.313  0.00  0.00    +0.000 C 
ATOM      3  N   UNL     1       2.732   7.095  19.389  0.00  0.00    +0.000 N 
ATOM      4  H   UNL     1       2.944   7.861  18.755  0.00  0.00    +0.000 HD
ENDROOT
BRANCH   2   5
ATOM      5  C   UNL     1       1.113   8.674  20.278  0.00  0.00    +0.000 A 
ATOM      6  C   UNL     1       0.449   9.142  21.400  0.00  0.00    +0.000 A 
ATOM      7  C   UNL     1       0.033  10.469  21.384  0.00  0.00    +0.000 A 
ATOM      8  C   UNL     1      -0.591  11.079  22.566  0.00  0.00    +0.000 A 
ATOM      9  O   UNL     1      -0.872  10.429  23.567  0.00  0.00    +0.000 OA
ATOM     10  N   UNL     1      -0.831  12.427  22.479  0.00  0.00    +0.000 N 
ATOM     11  C   UNL     1      -0.589  13.149  21.347  0.00  0.00    +0.000 A 
ATOM     12  N   UNL     1      -0.093  12.652  20.264  0.00  0.00    +0.000 NA
ATOM     13  C   UNL     1       0.247  11.288  20.278  0.00  0.00    +0.000 A 
ATOM     14  C   UNL     1       0.871  10.697  19.185  0.00  0.00    +0.000 A 
ATOM     15  N   UNL     1       1.315   9.413  19.149  0.00  0.00    +0.000 NA
ATOM     16  H   UNL     1      -1.233  12.862  23.298  0.00  0.00    +0.000 HD
ENDBRANCH   2   5
BRANCH   3  17
ATOM     17  C   UNL     1       3.455   5.845  19.299  0.00  0.00    +0.000 C 
BRANCH  17  18
ATOM     18  C   UNL     1       3.894   5.479  17.870  0.00  0.00    +0.000 C 
ATOM     19  C   UNL     1       4.643   4.138  17.828  0.00  0.00    +0.000 C 
ATOM     20  C   UNL     1       5.081   3.774  16.408  0.00  0.00    +0.000 C 
ATOM     21  C   UNL     1       5.914   4.898  15.771  0.00  0.00    +0.000 C 
ATOM     22  C   UNL     1       5.147   6.230  15.795  0.00  0.00    +0.000 C 
ATOM     23  C   UNL     1       4.721   6.594  17.213  0.00  0.00    +0.000 C 
BRANCH  21  24
ATOM     24  C   UNL     1       6.360   4.563  14.359  0.00  0.00    +0.000 A 
ATOM     25  C   UNL     1       5.681   3.610  13.584  0.00  0.00    +0.000 A 
ATOM     26  C   UNL     1       6.069   3.354  12.269  0.00  0.00    +0.000 A 
ATOM     27  C   UNL     1       7.142   4.045  11.712  0.00  0.00    +0.000 A 
ATOM     28  C   UNL     1       7.831   4.988  12.472  0.00  0.00    +0.000 A 
ATOM     29  C   UNL     1       7.443   5.246  13.787  0.00  0.00    +0.000 A 
ENDBRANCH  21  24
ENDBRANCH  17  18
ENDBRANCH   3  17
TORSDOF 4
ENDMDL
MODEL 3
REMARK VINA RESULT:      -8.5      7.206      9.988
REMARK  Name = 
REMARK  4 active torsions:
REMARK  status: ('A' for Active; 'I' for Inactive)
REMARK    1  A    between atoms: C_2  and  C_17
REMARK    2  A    between atoms: N_3  and  C_4
REMARK    3  A    between atoms: C_4  and  C_5
REMARK    4  A    between atoms: C_8  and  C_9
REMARK                            x       y       z     vdW  Elec       q    Type
REMARK                         _______ _______ _______ _____ _____    ______ ____
ROOT
ATOM      1  O   UNL     1       1.590   8.569  21.001  0.00  0.00    +0.000 OA
ATOM      2  C   UNL     1       1.754   7.961  19.948  0.00  0.00    +0.000 C 
ATOM      3  N   UNL     1       1.575   8.520  18.702  0.00  0.00    +0.000 N 
ATOM      4  H   UNL     1       1.749   7.918  17.900  0.00  0.00    +0.000 HD
ENDROOT
BRANCH   2   5
ATOM      5  C   UNL     1       2.152   6.519  19.953  0.00  0.00    +0.000 A 
ATOM      6  C   UNL     1       3.293   6.132  19.270  0.00  0.00    +0.000 A 
ATOM      7  C   UNL     1       3.717   4.818  19.436  0.00  0.00    +0.000 A 
ATOM      8  C   UNL     1       4.970   4.347  18.829  0.00  0.00    +0.000 A 
ATOM      9  O   UNL     1       5.632   5.044  18.069  0.00  0.00    +0.000 OA
ATOM     10  N   UNL     1       5.353   3.076  19.177  0.00  0.00    +0.000 N 
ATOM     11  C   UNL     1       4.592   2.264  19.965  0.00  0.00    +0.000 A 
ATOM     12  N   UNL     1       3.459   2.608  20.479  0.00  0.00    +0.000 NA
ATOM     13  C   UNL     1       3.012   3.918  20.232  0.00  0.00    +0.000 A 
ATOM     14  C   UNL     1       1.849   4.399  20.823  0.00  0.00    +0.000 A 
ATOM     15  N   UNL     1       1.395   5.675  20.712  0.00  0.00    +0.000 NA
ATOM     16  H   UNL     1       6.229   2.753  18.788  0.00  0.00    +0.000 HD
ENDBRANCH   2   5
BRANCH   3  17
ATOM     17  C   UNL     1       1.167   9.896  18.512  0.00  0.00    +0.000 C 
BRANCH  17  18
ATOM     18  C   UNL     1      -0.329  10.145  18.773  0.00  0.00    +0.000 C 
ATOM     19  C   UNL     1      -1.181   9.868  17.524  0.00  0.00    +0.000 C 
ATOM     20  C   UNL     1      -2.668  10.116  17.782  0.00  0.00    +0.000 C 
ATOM     21  C   UNL     1      -2.917  11.533  18.324  0.00  0.00    +0.000 C 
ATOM     22  C   UNL     1      -2.080  11.792  19.587  0.00  0.00    +0.000 C 
ATOM     23  C   UNL     1      -0.597  11.553  19.324  0.00  0.00    +0.000 C 
BRANCH  21  24
ATOM     24  C   UNL     1      -4.386  11.805  18.592  0.00  0.00    +0.000 A 
ATOM     25  C   UNL     1      -5.391  11.252  17.783  0.00  0.00    +0.000 A 
ATOM     26  C   UNL     1      -6.738  11.467  18.075  0.00  0.00    +0.000 A 
ATOM     27  C   UNL     1      -7.098  12.237  19.177  0.00  0.00    +0.000 A 
ATOM     28  C   UNL     1      -6.112  12.800  19.984  0.00  0.00    +0.000 A 
ATOM     29  C   UNL     1      -4.764  12.585  19.694  0.00  0.00    +0.000 A 
ENDBRANCH  21  24
ENDBRANCH  17  18
ENDBRANCH   3  17
TORSDOF 4
ENDMDL
MODEL 4
REMARK VINA RESULT:      -8.4      7.261     10.341
REMARK  Name = 
REMARK  4 active torsions:
REMARK  status: ('A' for Active; 'I' for Inactive)
REMARK    1  A    between atoms: C_2  and  C_17
REMARK    2  A    between atoms: N_3  and  C_4
REMARK    3  A    between atoms: C_4  and  C_5
REMARK    4  A    between atoms: C_8  and  C_9
REMARK                            x       y       z     vdW  Elec       q    Type
REMARK                         _______ _______ _______ _____ _____    ______ ____
ROOT
ATOM      1  O   UNL     1       1.774   8.402  20.577  0.00  0.00    +0.000 OA
ATOM      2  C   UNL     1       1.960   8.078  19.407  0.00  0.00    +0.000 C 
ATOM      3  N   UNL     1       1.737   8.913  18.334  0.00  0.00    +0.000 N 
ATOM      4  H   UNL     1       1.935   8.534  17.411  0.00  0.00    +0.000 HD
ENDROOT
BRANCH   2   5
ATOM      5  C   UNL     1       2.437   6.703  19.062  0.00  0.00    +0.000 A 
ATOM      6  C   UNL     1       1.967   5.624  19.792  0.00  0.00    +0.000 A 
ATOM      7  C   UNL     1       2.304   4.354  19.336  0.00  0.00    +0.000 A 
ATOM      8  C   UNL     1       1.770   3.150  19.988  0.00  0.00    +0.000 A 
ATOM      9  O   UNL     1       1.104   3.204  21.016  0.00  0.00    +0.000 OA
ATOM     10  N   UNL     1       2.059   1.963  19.366  0.00  0.00    +0.000 N 
ATOM     11  C   UNL     1       2.857   1.882  18.262  0.00  0.00    +0.000 A 
ATOM     12  N   UNL     1       3.395   2.901  17.682  0.00  0.00    +0.000 NA
ATOM     13  C   UNL     1       3.103   4.171  18.209  0.00  0.00    +0.000 A 
ATOM     14  C   UNL     1       3.567   5.326  17.589  0.00  0.00    +0.000 A 
ATOM     15  N   UNL     1       3.257   6.591  17.978  0.00  0.00    +0.000 NA
ATOM     16  H   UNL     1       1.671   1.131  19.790  0.00  0.00    +0.000 HD
ENDBRANCH   2   5
BRANCH   3  17
ATOM     17  C   UNL     1       1.252  10.268  18.484  0.00  0.00    +0.000 C 
BRANCH  17  18
ATOM     18  C   UNL     1      -0.254  10.362  18.786  0.00  0.00    +0.000 C 
ATOM     19  C   UNL     1      -1.107  10.027  17.552  0.00  0.00    +0.000 C 
ATOM     20  C   UNL     1      -2.604  10.121  17.851  0.00  0.00    +0.000 C 
ATOM     21  C   UNL     1      -2.978  11.495  18.430  0.00  0.00    +0.000 C 
ATOM     22  C   UNL     1      -2.138  11.810  19.678  0.00  0.00    +0.000 C 
ATOM     23  C   UNL     1      -0.646  11.725  19.375  0.00  0.00    +0.000 C 
BRANCH  21  24
ATOM     24  C   UNL     1      -4.459  11.614  18.738  0.00  0.00    +0.000 A 
ATOM     25  C   UNL     1      -5.400  10.754  18.150  0.00  0.00    +0.000 A 
ATOM     26  C   UNL     1      -6.751  10.841  18.486  0.00  0.00    +0.000 A 
ATOM     27  C   UNL     1      -7.179  11.788  19.412  0.00  0.00    +0.000 A 
ATOM     28  C   UNL     1      -6.259  12.655  19.998  0.00  0.00    +0.000 A 
ATOM     29  C   UNL     1      -4.907  12.568  19.663  0.00  0.00    +0.000 A 
ENDBRANCH  21  24
ENDBRANCH  17  18
ENDBRANCH   3  17
TORSDOF 4
ENDMDL
MODEL 5
REMARK VINA RESULT:      -8.3      6.128      8.034
REMARK  Name = 
REMARK  4 active torsions:
REMARK  status: ('A' for Active; 'I' for Inactive)
REMARK    1  A    between atoms: C_2  and  C_17
REMARK    2  A    between atoms: N_3  and  C_4
REMARK    3  A    between atoms: C_4  and  C_5
REMARK    4  A    between atoms: C_8  and  C_9
REMARK                            x       y       z     vdW  Elec       q    Type
REMARK                         _______ _______ _______ _____ _____    ______ ____
ROOT
ATOM      1  O   UNL     1       1.542   4.737  19.914  0.00  0.00    +0.000 OA
ATOM      2  C   UNL     1       2.321   5.680  20.017  0.00  0.00    +0.000 C 
ATOM      3  N   UNL     1       3.692   5.551  19.993  0.00  0.00    +0.000 N 
ATOM      4  H   UNL     1       4.234   6.407  20.079  0.00  0.00    +0.000 HD
ENDROOT
BRANCH   2   5
ATOM      5  C   UNL     1       1.811   7.074  20.202  0.00  0.00    +0.000 A 
ATOM      6  C   UNL     1       2.023   8.008  19.202  0.00  0.00    +0.000 A 
ATOM      7  C   UNL     1       1.392   9.240  19.340  0.00  0.00    +0.000 A 
ATOM      8  C   UNL     1       1.480  10.256  18.281  0.00  0.00    +0.000 A 
ATOM      9  O   UNL     1       2.191  10.113  17.293  0.00  0.00    +0.000 OA
ATOM     10  N   UNL     1       0.705  11.373  18.469  0.00  0.00    +0.000 N 
ATOM     11  C   UNL     1      -0.037  11.577  19.595  0.00  0.00    +0.000 A 
ATOM     12  N   UNL     1      -0.106  10.744  20.577  0.00  0.00    +0.000 NA
ATOM     13  C   UNL     1       0.604   9.537  20.449  0.00  0.00    +0.000 A 
ATOM     14  C   UNL     1       0.509   8.546  21.420  0.00  0.00    +0.000 A 
ATOM     15  N   UNL     1       1.086   7.319  21.332  0.00  0.00    +0.000 NA
ATOM     16  H   UNL     1       0.735  12.065  17.732  0.00  0.00    +0.000 HD
ENDBRANCH   2   5
BRANCH   3  17
ATOM     17  C   UNL     1       4.356   4.273  19.846  0.00  0.00    +0.000 C 
BRANCH  17  18
ATOM     18  C   UNL     1       4.930   4.026  18.439  0.00  0.00    +0.000 C 
ATOM     19  C   UNL     1       6.217   4.831  18.199  0.00  0.00    +0.000 C 
ATOM     20  C   UNL     1       6.788   4.588  16.801  0.00  0.00    +0.000 C 
ATOM     21  C   UNL     1       5.743   4.868  15.708  0.00  0.00    +0.000 C 
ATOM     22  C   UNL     1       4.470   4.040  15.944  0.00  0.00    +0.000 C 
ATOM     23  C   UNL     1       3.897   4.292  17.334  0.00  0.00    +0.000 C 
BRANCH  21  24
ATOM     24  C   UNL     1       6.284   4.631  14.310  0.00  0.00    +0.000 A 
ATOM     25  C   UNL     1       7.410   5.320  13.836  0.00  0.00    +0.000 A 
ATOM     26  C   UNL     1       7.928   5.051  12.568  0.00  0.00    +0.000 A 
ATOM     27  C   UNL     1       7.326   4.092  11.759  0.00  0.00    +0.000 A 
ATOM     28  C   UNL     1       6.201   3.406  12.213  0.00  0.00    +0.000 A 
ATOM     29  C   UNL     1       5.683   3.673  13.480  0.00  0.00    +0.000 A 
ENDBRANCH  21  24
ENDBRANCH  17  18
ENDBRANCH   3  17
TORSDOF 4
ENDMDL
MODEL 6
REMARK VINA RESULT:      -8.3      7.212     10.288
REMARK  Name = 
REMARK  4 active torsions:
REMARK  status: ('A' for Active; 'I' for Inactive)
REMARK    1  A    between atoms: C_2  and  C_17
REMARK    2  A    between atoms: N_3  and  C_4
REMARK    3  A    between atoms: C_4  and  C_5
REMARK    4  A    between atoms: C_8  and  C_9
REMARK                            x       y       z     vdW  Elec       q    Type
REMARK                         _______ _______ _______ _____ _____    ______ ____
ROOT
ATOM      1  O   UNL     1       2.978   8.363  16.988  0.00  0.00    +0.000 OA
ATOM      2  C   UNL     1       2.554   7.909  18.046  0.00  0.00    +0.000 C 
ATOM      3  N   UNL     1       1.725   8.600  18.902  0.00  0.00    +0.000 N 
ATOM      4  H   UNL     1       1.433   8.116  19.748  0.00  0.00    +0.000 HD
ENDROOT
BRANCH   2   5
ATOM      5  C   UNL     1       2.943   6.538  18.499  0.00  0.00    +0.000 A 
ATOM      6  C   UNL     1       2.064   5.487  18.297  0.00  0.00    +0.000 A 
ATOM      7  C   UNL     1       2.529   4.206  18.580  0.00  0.00    +0.000 A 
ATOM      8  C   UNL     1       1.702   3.024  18.303  0.00  0.00    +0.000 A 
ATOM      9  O   UNL     1       0.541   3.112  17.921  0.00  0.00    +0.000 OA
ATOM     10  N   UNL     1       2.319   1.814  18.493  0.00  0.00    +0.000 N 
ATOM     11  C   UNL     1       3.587   1.699  18.984  0.00  0.00    +0.000 A 
ATOM     12  N   UNL     1       4.336   2.702  19.294  0.00  0.00    +0.000 NA
ATOM     13  C   UNL     1       3.814   3.989  19.072  0.00  0.00    +0.000 A 
ATOM     14  C   UNL     1       4.589   5.122  19.292  0.00  0.00    +0.000 A 
ATOM     15  N   UNL     1       4.196   6.394  19.019  0.00  0.00    +0.000 NA
ATOM     16  H   UNL     1       1.768   0.993  18.277  0.00  0.00    +0.000 HD
ENDBRANCH   2   5
BRANCH   3  17
ATOM     17  C   UNL     1       1.270   9.948  18.633  0.00  0.00    +0.000 C 
BRANCH  17  18
ATOM     18  C   UNL     1      -0.235  10.159  18.874  0.00  0.00    +0.000 C 
ATOM     19  C   UNL     1      -1.062   9.867  17.613  0.00  0.00    +0.000 C 
ATOM     20  C   UNL     1      -2.559  10.078  17.851  0.00  0.00    +0.000 C 
ATOM     21  C   UNL     1      -2.850  11.486  18.395  0.00  0.00    +0.000 C 
ATOM     22  C   UNL     1      -2.037  11.758  19.671  0.00  0.00    +0.000 C 
ATOM     23  C   UNL     1      -0.545  11.558  19.428  0.00  0.00    +0.000 C 
BRANCH  21  24
ATOM     24  C   UNL     1      -4.328  11.720  18.644  0.00  0.00    +0.000 A 
ATOM     25  C   UNL     1      -5.310  11.103  17.852  0.00  0.00    +0.000 A 
ATOM     26  C   UNL     1      -6.665  11.285  18.128  0.00  0.00    +0.000 A 
ATOM     27  C   UNL     1      -7.057  12.087  19.196  0.00  0.00    +0.000 A 
ATOM     28  C   UNL     1      -6.095  12.713  19.986  0.00  0.00    +0.000 A 
ATOM     29  C   UNL     1      -4.739  12.531  19.712  0.00  0.00    +0.000 A 
ENDBRANCH  21  24
ENDBRANCH  17  18
ENDBRANCH   3  17
TORSDOF 4
ENDMDL
MODEL 7
REMARK VINA RESULT:      -8.2      6.112      8.116
REMARK  Name = 
REMARK  4 active torsions:
REMARK  status: ('A' for Active; 'I' for Inactive)
REMARK    1  A    between atoms: C_2  and  C_17
REMARK    2  A    between atoms: N_3  and  C_4
REMARK    3  A    between atoms: C_4  and  C_5
REMARK    4  A    between atoms: C_8  and  C_9
REMARK                            x       y       z     vdW  Elec       q    Type
REMARK                         _______ _______ _______ _____ _____    ______ ____
ROOT
ATOM      1  O   UNL     1       1.570   5.225  19.823  0.00  0.00    +0.000 OA
ATOM      2  C   UNL     1       2.273   6.230  19.838  0.00  0.00    +0.000 C 
ATOM      3  N   UNL     1       3.651   6.204  19.848  0.00  0.00    +0.000 N 
ATOM      4  H   UNL     1       4.126   7.104  19.854  0.00  0.00    +0.000 HD
ENDROOT
BRANCH   2   5
ATOM      5  C   UNL     1       1.658   7.593  19.870  0.00  0.00    +0.000 A 
ATOM      6  C   UNL     1       1.055   8.033  21.037  0.00  0.00    +0.000 A 
ATOM      7  C   UNL     1       0.644   9.361  21.078  0.00  0.00    +0.000 A 
ATOM      8  C   UNL     1       0.084   9.941  22.306  0.00  0.00    +0.000 A 
ATOM      9  O   UNL     1      -0.146   9.267  23.303  0.00  0.00    +0.000 OA
ATOM     10  N   UNL     1      -0.155  11.292  22.266  0.00  0.00    +0.000 N 
ATOM     11  C   UNL     1       0.031  12.042  21.142  0.00  0.00    +0.000 A 
ATOM     12  N   UNL     1       0.467  11.573  20.023  0.00  0.00    +0.000 NA
ATOM     13  C   UNL     1       0.803  10.208  19.983  0.00  0.00    +0.000 A 
ATOM     14  C   UNL     1       1.367   9.644  18.845  0.00  0.00    +0.000 A 
ATOM     15  N   UNL     1       1.803   8.360  18.752  0.00  0.00    +0.000 NA
ATOM     16  H   UNL     1      -0.512  11.707  23.117  0.00  0.00    +0.000 HD
ENDBRANCH   2   5
BRANCH   3  17
ATOM     17  C   UNL     1       4.411   4.972  19.845  0.00  0.00    +0.000 C 
BRANCH  17  18
ATOM     18  C   UNL     1       5.122   4.681  18.511  0.00  0.00    +0.000 C 
ATOM     19  C   UNL     1       5.612   5.970  17.832  0.00  0.00    +0.000 C 
ATOM     20  C   UNL     1       6.317   5.682  16.506  0.00  0.00    +0.000 C 
ATOM     21  C   UNL     1       5.427   4.858  15.561  0.00  0.00    +0.000 C 
ATOM     22  C   UNL     1       4.963   3.560  16.241  0.00  0.00    +0.000 C 
ATOM     23  C   UNL     1       4.251   3.850  17.557  0.00  0.00    +0.000 C 
BRANCH  21  24
ATOM     24  C   UNL     1       6.105   4.556  14.238  0.00  0.00    +0.000 A 
ATOM     25  C   UNL     1       5.572   3.619  13.340  0.00  0.00    +0.000 A 
ATOM     26  C   UNL     1       6.177   3.392  12.103  0.00  0.00    +0.000 A 
ATOM     27  C   UNL     1       7.324   4.098  11.749  0.00  0.00    +0.000 A 
ATOM     28  C   UNL     1       7.870   5.026  12.634  0.00  0.00    +0.000 A 
ATOM     29  C   UNL     1       7.265   5.254  13.870  0.00  0.00    +0.000 A 
ENDBRANCH  21  24
ENDBRANCH  17  18
ENDBRANCH   3  17
TORSDOF 4
ENDMDL
MODEL 8
REMARK VINA RESULT:      -8.1      7.466     10.276
REMARK  Name = 
REMARK  4 active torsions:
REMARK  status: ('A' for Active; 'I' for Inactive)
REMARK    1  A    between atoms: C_2  and  C_17
REMARK    2  A    between atoms: N_3  and  C_4
REMARK    3  A    between atoms: C_4  and  C_5
REMARK    4  A    between atoms: C_8  and  C_9
REMARK                            x       y       z     vdW  Elec       q    Type
REMARK                         _______ _______ _______ _____ _____    ______ ____
ROOT
ATOM      1  O   UNL     1       2.831   8.696  17.527  0.00  0.00    +0.000 OA
ATOM      2  C   UNL     1       2.150   8.172  18.403  0.00  0.00    +0.000 C 
ATOM      3  N   UNL     1       1.136   8.816  19.078  0.00  0.00    +0.000 N 
ATOM      4  H   UNL     1       0.636   8.275  19.779  0.00  0.00    +0.000 HD
ENDROOT
BRANCH   2   5
ATOM      5  C   UNL     1       2.401   6.758  18.822  0.00  0.00    +0.000 A 
ATOM      6  C   UNL     1       3.032   5.896  17.940  0.00  0.00    +0.000 A 
ATOM      7  C   UNL     1       3.394   4.644  18.426  0.00  0.00    +0.000 A 
ATOM      8  C   UNL     1       4.153   3.701  17.593  0.00  0.00    +0.000 A 
ATOM      9  O   UNL     1       4.403   3.924  16.414  0.00  0.00    +0.000 OA
ATOM     10  N   UNL     1       4.572   2.558  18.226  0.00  0.00    +0.000 N 
ATOM     11  C   UNL     1       4.242   2.265  19.517  0.00  0.00    +0.000 A 
ATOM     12  N   UNL     1       3.533   3.031  20.275  0.00  0.00    +0.000 NA
ATOM     13  C   UNL     1       3.111   4.259  19.735  0.00  0.00    +0.000 A 
ATOM     14  C   UNL     1       2.423   5.183  20.513  0.00  0.00    +0.000 A 
ATOM     15  N   UNL     1       2.059   6.425  20.099  0.00  0.00    +0.000 NA
ATOM     16  H   UNL     1       5.121   1.916  17.670  0.00  0.00    +0.000 HD
ENDBRANCH   2   5
BRANCH   3  17
ATOM     17  C   UNL     1       0.774  10.194  18.818  0.00  0.00    +0.000 C 
BRANCH  17  18
ATOM     18  C   UNL     1      -0.731  10.481  18.958  0.00  0.00    +0.000 C 
ATOM     19  C   UNL     1      -1.521  10.002  17.729  0.00  0.00    +0.000 C 
ATOM     20  C   UNL     1      -3.017  10.288  17.867  0.00  0.00    +0.000 C 
ATOM     21  C   UNL     1      -3.282  11.775  18.155  0.00  0.00    +0.000 C 
ATOM     22  C   UNL     1      -2.508  12.238  19.399  0.00  0.00    +0.000 C 
ATOM     23  C   UNL     1      -1.016  11.960  19.256  0.00  0.00    +0.000 C 
BRANCH  21  24
ATOM     24  C   UNL     1      -4.761  12.085  18.299  0.00  0.00    +0.000 A 
ATOM     25  C   UNL     1      -5.552  12.407  17.186  0.00  0.00    +0.000 A 
ATOM     26  C   UNL     1      -6.921  12.637  17.327  0.00  0.00    +0.000 A 
ATOM     27  C   UNL     1      -7.516  12.548  18.583  0.00  0.00    +0.000 A 
ATOM     28  C   UNL     1      -6.742  12.238  19.699  0.00  0.00    +0.000 A 
ATOM     29  C   UNL     1      -5.373  12.007  19.558  0.00  0.00    +0.000 A 
ENDBRANCH  21  24
ENDBRANCH  17  18
ENDBRANCH   3  17
TORSDOF 4
ENDMDL
MODEL 9
REMARK VINA RESULT:      -8.1      5.952      8.987
REMARK  Name = 
REMARK  4 active torsions:
REMARK  status: ('A' for Active; 'I' for Inactive)
REMARK    1  A    between atoms: C_2  and  C_17
REMARK    2  A    between atoms: N_3  and  C_4
REMARK    3  A    between atoms: C_4  and  C_5
REMARK    4  A    between atoms: C_8  and  C_9
REMARK                            x       y       z     vdW  Elec       q    Type
REMARK                         _______ _______ _______ _____ _____    ______ ____
ROOT
ATOM      1  O   UNL     1       2.483   4.718  20.744  0.00  0.00    +0.000 OA
ATOM      2  C   UNL     1       2.711   5.543  19.864  0.00  0.00    +0.000 C 
ATOM      3  N   UNL     1       2.267   6.847  19.898  0.00  0.00    +0.000 N 
ATOM      4  H   UNL     1       2.525   7.440  19.113  0.00  0.00    +0.000 HD
ENDROOT
BRANCH   2   5
ATOM      5  C   UNL     1       3.494   5.164  18.647  0.00  0.00    +0.000 A 
ATOM      6  C   UNL     1       4.491   6.013  18.196  0.00  0.00    +0.000 A 
ATOM      7  C   UNL     1       5.302   5.548  17.165  0.00  0.00    +0.000 A 
ATOM      8  C   UNL     1       6.446   6.338  16.690  0.00  0.00    +0.000 A 
ATOM      9  O   UNL     1       6.671   7.473  17.093  0.00  0.00    +0.000 OA
ATOM     10  N   UNL     1       7.251   5.717  15.769  0.00  0.00    +0.000 N 
ATOM     11  C   UNL     1       6.975   4.482  15.259  0.00  0.00    +0.000 A 
ATOM     12  N   UNL     1       5.956   3.769  15.602  0.00  0.00    +0.000 NA
ATOM     13  C   UNL     1       5.105   4.295  16.590  0.00  0.00    +0.000 A 
ATOM     14  C   UNL     1       4.037   3.552  17.082  0.00  0.00    +0.000 A 
ATOM     15  N   UNL     1       3.224   3.946  18.096  0.00  0.00    +0.000 NA
ATOM     16  H   UNL     1       8.059   6.240  15.458  0.00  0.00    +0.000 HD
ENDBRANCH   2   5
BRANCH   3  17
ATOM     17  C   UNL     1       1.475   7.376  20.988  0.00  0.00    +0.000 C 
BRANCH  17  18
ATOM     18  C   UNL     1       1.211   8.889  20.891  0.00  0.00    +0.000 C 
ATOM     19  C   UNL     1      -0.036   9.303  21.688  0.00  0.00    +0.000 C 
ATOM     20  C   UNL     1      -0.301  10.807  21.590  0.00  0.00    +0.000 C 
ATOM     21  C   UNL     1      -0.396  11.269  20.127  0.00  0.00    +0.000 C 
ATOM     22  C   UNL     1       0.867  10.871  19.345  0.00  0.00    +0.000 C 
ATOM     23  C   UNL     1       1.122   9.371  19.435  0.00  0.00    +0.000 C 
BRANCH  21  24
ATOM     24  C   UNL     1      -0.655  12.759  20.002  0.00  0.00    +0.000 A 
ATOM     25  C   UNL     1      -1.524  13.426  20.879  0.00  0.00    +0.000 A 
ATOM     26  C   UNL     1      -1.709  14.805  20.786  0.00  0.00    +0.000 A 
ATOM     27  C   UNL     1      -1.030  15.535  19.814  0.00  0.00    +0.000 A 
ATOM     28  C   UNL     1      -0.172  14.886  18.929  0.00  0.00    +0.000 A 
ATOM     29  C   UNL     1       0.016  13.506  19.023  0.00  0.00    +0.000 A 
ENDBRANCH  21  24
ENDBRANCH  17  18
ENDBRANCH   3  17
TORSDOF 4
ENDMDL
