MODEL 1
REMARK VINA RESULT:      -7.8      0.000      0.000
REMARK  Name = 
REMARK  5 active torsions:
REMARK  status: ('A' for Active; 'I' for Inactive)
REMARK    1  A    between atoms: C_3  and  N_4
REMARK    2  A    between atoms: N_4  and  C_5
REMARK    3  A    between atoms: C_5  and  C_6
REMARK    4  A    between atoms: C_11  and  C_12
REMARK    5  A    between atoms: C_16  and  C_17
REMARK                            x       y       z     vdW  Elec       q    Type
REMARK                         _______ _______ _______ _____ _____    ______ ____
ROOT
ATOM      1  C   UNL     1       7.336   6.818  17.621  0.00  0.00    +0.000 A 
ATOM      2  C   UNL     1       6.795   5.956  18.580  0.00  0.00    +0.000 A 
ATOM      3  C   UNL     1       6.416   4.651  18.249  0.00  0.00    +0.000 A 
ATOM      4  C   UNL     1       6.517   4.267  16.904  0.00  0.00    +0.000 A 
ATOM      5  C   UNL     1       7.014   5.135  15.918  0.00  0.00    +0.000 A 
ATOM      6  C   UNL     1       7.453   6.404  16.295  0.00  0.00    +0.000 A 
ENDROOT
BRANCH   5   7
ATOM      7  C   UNL     1       7.012   4.746  14.513  0.00  0.00    +0.000 A 
ATOM      8  N   UNL     1       7.609   5.343  13.499  0.00  0.00    +0.000 NA
ATOM      9  N   UNL     1       7.281   4.668  12.345  0.00  0.00    +0.000 NA
ATOM     10  C   UNL     1       6.469   3.694  12.667  0.00  0.00    +0.000 A 
ATOM     11  N   UNL     1       6.276   3.695  14.016  0.00  0.00    +0.000 N 
ATOM     12  H   UNL     1       5.674   3.083  14.549  0.00  0.00    +0.000 HD
ENDBRANCH   5   7
BRANCH   3  13
ATOM     13  N   UNL     1       5.794   3.774  19.140  0.00  0.00    +0.000 N 
ATOM     14  H   UNL     1       5.659   4.168  20.064  0.00  0.00    +0.000 HD
BRANCH  13  15
ATOM     15  C   UNL     1       4.637   3.000  18.732  0.00  0.00    +0.000 C 
BRANCH  15  16
ATOM     16  C   UNL     1       3.324   3.348  19.414  0.00  0.00    +0.000 A 
ATOM     17  C   UNL     1       3.034   2.512  20.526  0.00  0.00    +0.000 A 
ATOM     18  C   UNL     1       1.926   2.711  21.339  0.00  0.00    +0.000 A 
ATOM     19  C   UNL     1       1.072   3.765  21.062  0.00  0.00    +0.000 A 
ATOM     20  C   UNL     1       1.331   4.592  19.966  0.00  0.00    +0.000 A 
ATOM     21  C   UNL     1       2.434   4.407  19.097  0.00  0.00    +0.000 A 
BRANCH  21  22
ATOM     22  C   UNL     1       2.615   5.390  17.947  0.00  0.00    +0.000 C 
ATOM     23  C   UNL     1       3.540   6.590  18.099  0.00  0.00    +0.000 C 
ATOM     24  C   UNL     1       2.063   6.797  18.015  0.00  0.00    +0.000 C 
ENDBRANCH  21  22
ENDBRANCH  15  16
ENDBRANCH  13  15
ENDBRANCH   3  13
TORSDOF 5
ENDMDL
MODEL 2
REMARK VINA RESULT:      -7.8      1.249      2.890
REMARK  Name = 
REMARK  5 active torsions:
REMARK  status: ('A' for Active; 'I' for Inactive)
REMARK    1  A    between atoms: C_3  and  N_4
REMARK    2  A    between atoms: N_4  and  C_5
REMARK    3  A    between atoms: C_5  and  C_6
REMARK    4  A    between atoms: C_11  and  C_12
REMARK    5  A    between atoms: C_16  and  C_17
REMARK                            x       y       z     vdW  Elec       q    Type
REMARK                         _______ _______ _______ _____ _____    ______ ____
ROOT
ATOM      1  C   UNL     1       6.818   5.111  18.160  0.00  0.00    +0.000 A 
ATOM      2  C   UNL     1       5.621   4.493  18.537  0.00  0.00    +0.000 A 
ATOM      3  C   UNL     1       4.838   3.803  17.606  0.00  0.00    +0.000 A 
ATOM      4  C   UNL     1       5.251   3.826  16.266  0.00  0.00    +0.000 A 
ATOM      5  C   UNL     1       6.426   4.481  15.861  0.00  0.00    +0.000 A 
ATOM      6  C   UNL     1       7.223   5.097  16.827  0.00  0.00    +0.000 A 
ENDROOT
BRANCH   5   7
ATOM      7  C   UNL     1       6.777   4.578  14.449  0.00  0.00    +0.000 A 
ATOM      8  N   UNL     1       6.355   3.827  13.449  0.00  0.00    +0.000 NA
ATOM      9  N   UNL     1       6.998   4.234  12.302  0.00  0.00    +0.000 NA
ATOM     10  C   UNL     1       7.819   5.200  12.624  0.00  0.00    +0.000 A 
ATOM     11  N   UNL     1       7.712   5.459  13.957  0.00  0.00    +0.000 N 
ATOM     12  H   UNL     1       8.244   6.127  14.496  0.00  0.00    +0.000 HD
ENDBRANCH   5   7
BRANCH   3  13
ATOM     13  N   UNL     1       3.596   3.239  17.902  0.00  0.00    +0.000 N 
ATOM     14  H   UNL     1       3.591   2.705  18.765  0.00  0.00    +0.000 HD
BRANCH  13  15
ATOM     15  C   UNL     1       2.378   4.015  17.767  0.00  0.00    +0.000 C 
BRANCH  15  16
ATOM     16  C   UNL     1       2.213   5.176  18.734  0.00  0.00    +0.000 A 
ATOM     17  C   UNL     1       2.574   6.429  18.169  0.00  0.00    +0.000 A 
ATOM     18  C   UNL     1       2.421   7.627  18.854  0.00  0.00    +0.000 A 
ATOM     19  C   UNL     1       1.892   7.606  20.133  0.00  0.00    +0.000 A 
ATOM     20  C   UNL     1       1.542   6.385  20.713  0.00  0.00    +0.000 A 
ATOM     21  C   UNL     1       1.707   5.138  20.059  0.00  0.00    +0.000 A 
BRANCH  21  22
ATOM     22  C   UNL     1       1.269   3.878  20.796  0.00  0.00    +0.000 C 
ATOM     23  C   UNL     1       2.293   3.014  21.518  0.00  0.00    +0.000 C 
ATOM     24  C   UNL     1       1.624   2.500  20.285  0.00  0.00    +0.000 C 
ENDBRANCH  21  22
ENDBRANCH  15  16
ENDBRANCH  13  15
ENDBRANCH   3  13
TORSDOF 5
ENDMDL
MODEL 3
REMARK VINA RESULT:      -7.7      1.300      2.866
REMARK  Name = 
REMARK  5 active torsions:
REMARK  status: ('A' for Active; 'I' for Inactive)
REMARK    1  A    between atoms: C_3  and  N_4
REMARK    2  A    between atoms: N_4  and  C_5
REMARK    3  A    between atoms: C_5  and  C_6
REMARK    4  A    between atoms: C_11  and  C_12
REMARK    5  A    between atoms: C_16  and  C_17
REMARK                            x       y       z     vdW  Elec       q    Type
REMARK                         _______ _______ _______ _____ _____    ______ ____
ROOT
ATOM      1  C   UNL     1       6.848   4.719  18.115  0.00  0.00    +0.000 A 
ATOM      2  C   UNL     1       5.571   4.192  18.338  0.00  0.00    +0.000 A 
ATOM      3  C   UNL     1       4.801   3.691  17.283  0.00  0.00    +0.000 A 
ATOM      4  C   UNL     1       5.319   3.815  15.985  0.00  0.00    +0.000 A 
ATOM      5  C   UNL     1       6.579   4.384  15.738  0.00  0.00    +0.000 A 
ATOM      6  C   UNL     1       7.353   4.806  16.820  0.00  0.00    +0.000 A 
ENDROOT
BRANCH   5   7
ATOM      7  C   UNL     1       7.048   4.593  14.374  0.00  0.00    +0.000 A 
ATOM      8  N   UNL     1       7.860   5.531  13.924  0.00  0.00    +0.000 NA
ATOM      9  N   UNL     1       7.974   5.386  12.560  0.00  0.00    +0.000 NA
ATOM     10  C   UNL     1       7.210   4.388  12.197  0.00  0.00    +0.000 A 
ATOM     11  N   UNL     1       6.614   3.852  13.299  0.00  0.00    +0.000 N 
ATOM     12  H   UNL     1       5.947   3.095  13.327  0.00  0.00    +0.000 HD
ENDBRANCH   5   7
BRANCH   3  13
ATOM     13  N   UNL     1       3.491   3.232  17.429  0.00  0.00    +0.000 N 
ATOM     14  H   UNL     1       3.382   2.556  18.178  0.00  0.00    +0.000 HD
BRANCH  13  15
ATOM     15  C   UNL     1       2.373   4.155  17.397  0.00  0.00    +0.000 C 
BRANCH  15  16
ATOM     16  C   UNL     1       2.305   5.163  18.533  0.00  0.00    +0.000 A 
ATOM     17  C   UNL     1       2.249   6.509  18.082  0.00  0.00    +0.000 A 
ATOM     18  C   UNL     1       2.100   7.581  18.954  0.00  0.00    +0.000 A 
ATOM     19  C   UNL     1       1.995   7.332  20.311  0.00  0.00    +0.000 A 
ATOM     20  C   UNL     1       2.059   6.017  20.778  0.00  0.00    +0.000 A 
ATOM     21  C   UNL     1       2.239   4.899  19.926  0.00  0.00    +0.000 A 
BRANCH  21  22
ATOM     22  C   UNL     1       2.275   3.513  20.559  0.00  0.00    +0.000 C 
ATOM     23  C   UNL     1       1.125   2.538  20.342  0.00  0.00    +0.000 C 
ATOM     24  C   UNL     1       1.347   3.137  21.693  0.00  0.00    +0.000 C 
ENDBRANCH  21  22
ENDBRANCH  15  16
ENDBRANCH  13  15
ENDBRANCH   3  13
TORSDOF 5
ENDMDL
MODEL 4
REMARK VINA RESULT:      -7.6      2.057      3.289
REMARK  Name = 
REMARK  5 active torsions:
REMARK  status: ('A' for Active; 'I' for Inactive)
REMARK    1  A    between atoms: C_3  and  N_4
REMARK    2  A    between atoms: N_4  and  C_5
REMARK    3  A    between atoms: C_5  and  C_6
REMARK    4  A    between atoms: C_11  and  C_12
REMARK    5  A    between atoms: C_16  and  C_17
REMARK                            x       y       z     vdW  Elec       q    Type
REMARK                         _______ _______ _______ _____ _____    ______ ____
ROOT
ATOM      1  C   UNL     1       6.391   4.456  14.486  0.00  0.00    +0.000 A 
ATOM      2  C   UNL     1       5.550   3.548  15.138  0.00  0.00    +0.000 A 
ATOM      3  C   UNL     1       5.221   3.707  16.488  0.00  0.00    +0.000 A 
ATOM      4  C   UNL     1       5.832   4.759  17.186  0.00  0.00    +0.000 A 
ATOM      5  C   UNL     1       6.715   5.653  16.559  0.00  0.00    +0.000 A 
ATOM      6  C   UNL     1       6.964   5.511  15.193  0.00  0.00    +0.000 A 
ENDROOT
BRANCH   5   7
ATOM      7  C   UNL     1       7.415   6.674  17.330  0.00  0.00    +0.000 A 
ATOM      8  N   UNL     1       7.982   6.556  18.516  0.00  0.00    +0.000 NA
ATOM      9  N   UNL     1       8.465   7.790  18.889  0.00  0.00    +0.000 NA
ATOM     10  C   UNL     1       8.161   8.642  17.944  0.00  0.00    +0.000 A 
ATOM     11  N   UNL     1       7.509   7.990  16.940  0.00  0.00    +0.000 N 
ATOM     12  H   UNL     1       7.124   8.391  16.098  0.00  0.00    +0.000 HD
ENDBRANCH   5   7
BRANCH   3  13
ATOM     13  N   UNL     1       4.458   2.791  17.214  0.00  0.00    +0.000 N 
ATOM     14  H   UNL     1       4.905   2.484  18.071  0.00  0.00    +0.000 HD
BRANCH  13  15
ATOM     15  C   UNL     1       3.038   3.005  17.418  0.00  0.00    +0.000 C 
BRANCH  15  16
ATOM     16  C   UNL     1       2.629   3.525  18.787  0.00  0.00    +0.000 A 
ATOM     17  C   UNL     1       2.664   2.525  19.796  0.00  0.00    +0.000 A 
ATOM     18  C   UNL     1       2.406   2.807  21.132  0.00  0.00    +0.000 A 
ATOM     19  C   UNL     1       2.109   4.108  21.498  0.00  0.00    +0.000 A 
ATOM     20  C   UNL     1       2.058   5.104  20.520  0.00  0.00    +0.000 A 
ATOM     21  C   UNL     1       2.288   4.855  19.144  0.00  0.00    +0.000 A 
BRANCH  21  22
ATOM     22  C   UNL     1       2.220   6.033  18.180  0.00  0.00    +0.000 C 
ATOM     23  C   UNL     1       3.453   6.887  17.922  0.00  0.00    +0.000 C 
ATOM     24  C   UNL     1       2.295   7.462  18.671  0.00  0.00    +0.000 C 
ENDBRANCH  21  22
ENDBRANCH  15  16
ENDBRANCH  13  15
ENDBRANCH   3  13
TORSDOF 5
ENDMDL
MODEL 5
REMARK VINA RESULT:      -7.5      2.188      4.139
REMARK  Name = 
REMARK  5 active torsions:
REMARK  status: ('A' for Active; 'I' for Inactive)
REMARK    1  A    between atoms: C_3  and  N_4
REMARK    2  A    between atoms: N_4  and  C_5
REMARK    3  A    between atoms: C_5  and  C_6
REMARK    4  A    between atoms: C_11  and  C_12
REMARK    5  A    between atoms: C_16  and  C_17
REMARK                            x       y       z     vdW  Elec       q    Type
REMARK                         _______ _______ _______ _____ _____    ______ ____
ROOT
ATOM      1  C   UNL     1       6.356   4.073  14.908  0.00  0.00    +0.000 A 
ATOM      2  C   UNL     1       5.232   3.515  15.525  0.00  0.00    +0.000 A 
ATOM      3  C   UNL     1       4.713   4.052  16.708  0.00  0.00    +0.000 A 
ATOM      4  C   UNL     1       5.411   5.116  17.298  0.00  0.00    +0.000 A 
ATOM      5  C   UNL     1       6.568   5.659  16.718  0.00  0.00    +0.000 A 
ATOM      6  C   UNL     1       7.016   5.149  15.499  0.00  0.00    +0.000 A 
ENDROOT
BRANCH   5   7
ATOM      7  C   UNL     1       7.331   6.695  17.405  0.00  0.00    +0.000 A 
ATOM      8  N   UNL     1       8.005   6.599  18.536  0.00  0.00    +0.000 NA
ATOM      9  N   UNL     1       8.514   7.840  18.842  0.00  0.00    +0.000 NA
ATOM     10  C   UNL     1       8.120   8.676  17.915  0.00  0.00    +0.000 A 
ATOM     11  N   UNL     1       7.383   8.004  16.986  0.00  0.00    +0.000 N 
ATOM     12  H   UNL     1       6.920   8.390  16.176  0.00  0.00    +0.000 HD
ENDBRANCH   5   7
BRANCH   3  13
ATOM     13  N   UNL     1       3.648   3.490  17.414  0.00  0.00    +0.000 N 
ATOM     14  H   UNL     1       3.913   3.130  18.324  0.00  0.00    +0.000 HD
BRANCH  13  15
ATOM     15  C   UNL     1       2.364   4.161  17.477  0.00  0.00    +0.000 C 
BRANCH  15  16
ATOM     16  C   UNL     1       2.185   5.161  18.607  0.00  0.00    +0.000 A 
ATOM     17  C   UNL     1       2.532   6.489  18.238  0.00  0.00    +0.000 A 
ATOM     18  C   UNL     1       2.365   7.568  19.095  0.00  0.00    +0.000 A 
ATOM     19  C   UNL     1       1.836   7.348  20.355  0.00  0.00    +0.000 A 
ATOM     20  C   UNL     1       1.498   6.050  20.744  0.00  0.00    +0.000 A 
ATOM     21  C   UNL     1       1.679   4.918  19.910  0.00  0.00    +0.000 A 
BRANCH  21  22
ATOM     22  C   UNL     1       1.254   3.557  20.447  0.00  0.00    +0.000 C 
ATOM     23  C   UNL     1       1.841   3.026  21.747  0.00  0.00    +0.000 C 
ATOM     24  C   UNL     1       2.201   2.377  20.450  0.00  0.00    +0.000 C 
ENDBRANCH  21  22
ENDBRANCH  15  16
ENDBRANCH  13  15
ENDBRANCH   3  13
TORSDOF 5
ENDMDL
MODEL 6
REMARK VINA RESULT:      -7.4      1.459      2.460
REMARK  Name = 
REMARK  5 active torsions:
REMARK  status: ('A' for Active; 'I' for Inactive)
REMARK    1  A    between atoms: C_3  and  N_4
REMARK    2  A    between atoms: N_4  and  C_5
REMARK    3  A    between atoms: C_5  and  C_6
REMARK    4  A    between atoms: C_11  and  C_12
REMARK    5  A    between atoms: C_16  and  C_17
REMARK                            x       y       z     vdW  Elec       q    Type
REMARK                         _______ _______ _______ _____ _____    ______ ____
ROOT
ATOM      1  C   UNL     1       7.338   5.022  17.870  0.00  0.00    +0.000 A 
ATOM      2  C   UNL     1       6.210   5.772  18.220  0.00  0.00    +0.000 A 
ATOM      3  C   UNL     1       5.210   6.055  17.283  0.00  0.00    +0.000 A 
ATOM      4  C   UNL     1       5.420   5.635  15.962  0.00  0.00    +0.000 A 
ATOM      5  C   UNL     1       6.569   4.922  15.582  0.00  0.00    +0.000 A 
ATOM      6  C   UNL     1       7.511   4.590  16.556  0.00  0.00    +0.000 A 
ENDROOT
BRANCH   5   7
ATOM      7  C   UNL     1       6.811   4.588  14.183  0.00  0.00    +0.000 A 
ATOM      8  N   UNL     1       7.531   5.250  13.298  0.00  0.00    +0.000 NA
ATOM      9  N   UNL     1       7.426   4.605  12.086  0.00  0.00    +0.000 NA
ATOM     10  C   UNL     1       6.623   3.584  12.243  0.00  0.00    +0.000 A 
ATOM     11  N   UNL     1       6.217   3.525  13.543  0.00  0.00    +0.000 N 
ATOM     12  H   UNL     1       5.571   2.866  13.953  0.00  0.00    +0.000 HD
ENDBRANCH   5   7
BRANCH   3  13
ATOM     13  N   UNL     1       4.106   6.867  17.549  0.00  0.00    +0.000 N 
ATOM     14  H   UNL     1       4.054   7.684  16.950  0.00  0.00    +0.000 HD
BRANCH  13  15
ATOM     15  C   UNL     1       2.792   6.289  17.752  0.00  0.00    +0.000 C 
BRANCH  15  16
ATOM     16  C   UNL     1       2.634   5.396  18.972  0.00  0.00    +0.000 A 
ATOM     17  C   UNL     1       2.077   6.073  20.090  0.00  0.00    +0.000 A 
ATOM     18  C   UNL     1       1.772   5.422  21.279  0.00  0.00    +0.000 A 
ATOM     19  C   UNL     1       2.015   4.063  21.381  0.00  0.00    +0.000 A 
ATOM     20  C   UNL     1       2.574   3.380  20.298  0.00  0.00    +0.000 A 
ATOM     21  C   UNL     1       2.924   4.011  19.079  0.00  0.00    +0.000 A 
BRANCH  21  22
ATOM     22  C   UNL     1       3.511   3.149  17.968  0.00  0.00    +0.000 C 
ATOM     23  C   UNL     1       2.617   2.211  17.168  0.00  0.00    +0.000 C 
ATOM     24  C   UNL     1       3.631   1.648  18.110  0.00  0.00    +0.000 C 
ENDBRANCH  21  22
ENDBRANCH  15  16
ENDBRANCH  13  15
ENDBRANCH   3  13
TORSDOF 5
ENDMDL
MODEL 7
REMARK VINA RESULT:      -7.4      4.374      7.812
REMARK  Name = 
REMARK  5 active torsions:
REMARK  status: ('A' for Active; 'I' for Inactive)
REMARK    1  A    between atoms: C_3  and  N_4
REMARK    2  A    between atoms: N_4  and  C_5
REMARK    3  A    between atoms: C_5  and  C_6
REMARK    4  A    between atoms: C_11  and  C_12
REMARK    5  A    between atoms: C_16  and  C_17
REMARK                            x       y       z     vdW  Elec       q    Type
REMARK                         _______ _______ _______ _____ _____    ______ ____
ROOT
ATOM      1  C   UNL     1       1.731   8.965  17.972  0.00  0.00    +0.000 A 
ATOM      2  C   UNL     1       2.411   7.772  18.241  0.00  0.00    +0.000 A 
ATOM      3  C   UNL     1       2.341   7.167  19.500  0.00  0.00    +0.000 A 
ATOM      4  C   UNL     1       1.637   7.843  20.507  0.00  0.00    +0.000 A 
ATOM      5  C   UNL     1       0.988   9.065  20.268  0.00  0.00    +0.000 A 
ATOM      6  C   UNL     1       1.014   9.604  18.981  0.00  0.00    +0.000 A 
ENDROOT
BRANCH   5   7
ATOM      7  C   UNL     1       0.351   9.797  21.357  0.00  0.00    +0.000 A 
ATOM      8  N   UNL     1       0.498  11.067  21.684  0.00  0.00    +0.000 NA
ATOM      9  N   UNL     1      -0.243  11.310  22.818  0.00  0.00    +0.000 NA
ATOM     10  C   UNL     1      -0.801  10.184  23.182  0.00  0.00    +0.000 A 
ATOM     11  N   UNL     1      -0.467   9.207  22.293  0.00  0.00    +0.000 N 
ATOM     12  H   UNL     1      -0.721   8.230  22.332  0.00  0.00    +0.000 HD
ENDBRANCH   5   7
BRANCH   3  13
ATOM     13  N   UNL     1       3.062   6.025  19.854  0.00  0.00    +0.000 N 
ATOM     14  H   UNL     1       2.540   5.165  19.731  0.00  0.00    +0.000 HD
BRANCH  13  15
ATOM     15  C   UNL     1       4.440   5.859  19.434  0.00  0.00    +0.000 C 
BRANCH  15  16
ATOM     16  C   UNL     1       4.652   5.299  18.037  0.00  0.00    +0.000 A 
ATOM     17  C   UNL     1       5.451   6.139  17.214  0.00  0.00    +0.000 A 
ATOM     18  C   UNL     1       5.834   5.776  15.929  0.00  0.00    +0.000 A 
ATOM     19  C   UNL     1       5.429   4.550  15.430  0.00  0.00    +0.000 A 
ATOM     20  C   UNL     1       4.633   3.714  16.216  0.00  0.00    +0.000 A 
ATOM     21  C   UNL     1       4.199   4.058  17.520  0.00  0.00    +0.000 A 
BRANCH  21  22
ATOM     22  C   UNL     1       3.347   3.049  18.282  0.00  0.00    +0.000 C 
ATOM     23  C   UNL     1       3.961   2.208  19.393  0.00  0.00    +0.000 C 
ATOM     24  C   UNL     1       3.546   1.559  18.113  0.00  0.00    +0.000 C 
ENDBRANCH  21  22
ENDBRANCH  15  16
ENDBRANCH  13  15
ENDBRANCH   3  13
TORSDOF 5
ENDMDL
MODEL 8
REMARK VINA RESULT:      -7.4      4.730      7.717
REMARK  Name = 
REMARK  5 active torsions:
REMARK  status: ('A' for Active; 'I' for Inactive)
REMARK    1  A    between atoms: C_3  and  N_4
REMARK    2  A    between atoms: N_4  and  C_5
REMARK    3  A    between atoms: C_5  and  C_6
REMARK    4  A    between atoms: C_11  and  C_12
REMARK    5  A    between atoms: C_16  and  C_17
REMARK                            x       y       z     vdW  Elec       q    Type
REMARK                         _______ _______ _______ _____ _____    ______ ____
ROOT
ATOM      1  C   UNL     1       1.641   9.398  18.071  0.00  0.00    +0.000 A 
ATOM      2  C   UNL     1       2.217   8.184  18.459  0.00  0.00    +0.000 A 
ATOM      3  C   UNL     1       2.011   7.662  19.741  0.00  0.00    +0.000 A 
ATOM      4  C   UNL     1       1.278   8.440  20.648  0.00  0.00    +0.000 A 
ATOM      5  C   UNL     1       0.731   9.683  20.290  0.00  0.00    +0.000 A 
ATOM      6  C   UNL     1       0.892  10.140  18.982  0.00  0.00    +0.000 A 
ENDROOT
BRANCH   5   7
ATOM      7  C   UNL     1       0.063  10.517  21.282  0.00  0.00    +0.000 A 
ATOM      8  N   UNL     1       0.235  10.527  22.590  0.00  0.00    +0.000 NA
ATOM      9  N   UNL     1      -0.653  11.427  23.136  0.00  0.00    +0.000 NA
ATOM     10  C   UNL     1      -1.370  11.925  22.161  0.00  0.00    +0.000 A 
ATOM     11  N   UNL     1      -0.953  11.393  20.978  0.00  0.00    +0.000 N 
ATOM     12  H   UNL     1      -1.340  11.563  20.060  0.00  0.00    +0.000 HD
ENDBRANCH   5   7
BRANCH   3  13
ATOM     13  N   UNL     1       2.626   6.502  20.214  0.00  0.00    +0.000 N 
ATOM     14  H   UNL     1       1.971   5.815  20.570  0.00  0.00    +0.000 HD
BRANCH  13  15
ATOM     15  C   UNL     1       3.686   5.862  19.458  0.00  0.00    +0.000 C 
BRANCH  15  16
ATOM     16  C   UNL     1       3.341   4.527  18.818  0.00  0.00    +0.000 A 
ATOM     17  C   UNL     1       2.174   3.930  19.368  0.00  0.00    +0.000 A 
ATOM     18  C   UNL     1       1.637   2.749  18.871  0.00  0.00    +0.000 A 
ATOM     19  C   UNL     1       2.256   2.130  17.799  0.00  0.00    +0.000 A 
ATOM     20  C   UNL     1       3.411   2.693  17.251  0.00  0.00    +0.000 A 
ATOM     21  C   UNL     1       4.006   3.880  17.745  0.00  0.00    +0.000 A 
BRANCH  21  22
ATOM     22  C   UNL     1       5.257   4.400  17.047  0.00  0.00    +0.000 C 
ATOM     23  C   UNL     1       5.162   5.555  16.058  0.00  0.00    +0.000 C 
ATOM     24  C   UNL     1       5.486   4.181  15.568  0.00  0.00    +0.000 C 
ENDBRANCH  21  22
ENDBRANCH  15  16
ENDBRANCH  13  15
ENDBRANCH   3  13
TORSDOF 5
ENDMDL
MODEL 9
REMARK VINA RESULT:      -7.3      1.313      1.706
REMARK  Name = 
REMARK  5 active torsions:
REMARK  status: ('A' for Active; 'I' for Inactive)
REMARK    1  A    between atoms: C_3  and  N_4
REMARK    2  A    between atoms: N_4  and  C_5
REMARK    3  A    between atoms: C_5  and  C_6
REMARK    4  A    between atoms: C_11  and  C_12
REMARK    5  A    between atoms: C_16  and  C_17
REMARK                            x       y       z     vdW  Elec       q    Type
REMARK                         _______ _______ _______ _____ _____    ______ ____
ROOT
ATOM      1  C   UNL     1       6.586   4.870  18.077  0.00  0.00    +0.000 A 
ATOM      2  C   UNL     1       5.481   4.038  18.285  0.00  0.00    +0.000 A 
ATOM      3  C   UNL     1       4.913   3.313  17.232  0.00  0.00    +0.000 A 
ATOM      4  C   UNL     1       5.435   3.517  15.947  0.00  0.00    +0.000 A 
ATOM      5  C   UNL     1       6.514   4.385  15.712  0.00  0.00    +0.000 A 
ATOM      6  C   UNL     1       7.106   5.035  16.795  0.00  0.00    +0.000 A 
ENDROOT
BRANCH   5   7
ATOM      7  C   UNL     1       6.970   4.657  14.353  0.00  0.00    +0.000 A 
ATOM      8  N   UNL     1       6.581   4.083  13.231  0.00  0.00    +0.000 NA
ATOM      9  N   UNL     1       7.325   4.605  12.197  0.00  0.00    +0.000 NA
ATOM     10  C   UNL     1       8.172   5.462  12.707  0.00  0.00    +0.000 A 
ATOM     11  N   UNL     1       7.984   5.537  14.054  0.00  0.00    +0.000 N 
ATOM     12  H   UNL     1       8.512   6.087  14.717  0.00  0.00    +0.000 HD
ENDBRANCH   5   7
BRANCH   3  13
ATOM     13  N   UNL     1       3.761   2.534  17.359  0.00  0.00    +0.000 N 
ATOM     14  H   UNL     1       3.862   1.772  18.021  0.00  0.00    +0.000 HD
BRANCH  13  15
ATOM     15  C   UNL     1       2.456   3.154  17.477  0.00  0.00    +0.000 C 
BRANCH  15  16
ATOM     16  C   UNL     1       2.199   3.936  18.755  0.00  0.00    +0.000 A 
ATOM     17  C   UNL     1       2.022   3.104  19.893  0.00  0.00    +0.000 A 
ATOM     18  C   UNL     1       1.858   3.618  21.173  0.00  0.00    +0.000 A 
ATOM     19  C   UNL     1       1.872   4.990  21.352  0.00  0.00    +0.000 A 
ATOM     20  C   UNL     1       2.033   5.828  20.245  0.00  0.00    +0.000 A 
ATOM     21  C   UNL     1       2.176   5.345  18.921  0.00  0.00    +0.000 A 
BRANCH  21  22
ATOM     22  C   UNL     1       2.361   6.364  17.803  0.00  0.00    +0.000 C 
ATOM     23  C   UNL     1       3.715   7.026  17.582  0.00  0.00    +0.000 C 
ATOM     24  C   UNL     1       2.567   7.833  18.097  0.00  0.00    +0.000 C 
ENDBRANCH  21  22
ENDBRANCH  15  16
ENDBRANCH  13  15
ENDBRANCH   3  13
TORSDOF 5
ENDMDL
