MODEL 1
REMARK VINA RESULT:      -9.5      0.000      0.000
REMARK  Name = 
REMARK  7 active torsions:
REMARK  status: ('A' for Active; 'I' for Inactive)
REMARK    1  A    between atoms: C_1  and  C_2
REMARK    2  A    between atoms: N_4  and  C_5
REMARK    3  A    between atoms: C_9  and  C_10
REMARK    4  A    between atoms: N_12  and  C_13
REMARK    5  A    between atoms: C_13  and  C_14
REMARK    6  A    between atoms: C_13  and  C_21
REMARK    7  A    between atoms: C_14  and  C_15
REMARK                            x       y       z     vdW  Elec       q    Type
REMARK                         _______ _______ _______ _____ _____    ______ ____
ROOT
ATOM      1  C   UNL     1       4.528   4.475  17.386  0.00  0.00    +0.000 C 
ENDROOT
BRANCH   1   2
ATOM      2  C   UNL     1       5.462   4.444  16.190  0.00  0.00    +0.000 A 
ATOM      3  N   UNL     1       6.471   5.225  15.833  0.00  0.00    +0.000 NA
ATOM      4  C   UNL     1       6.782   4.857  14.527  0.00  0.00    +0.000 A 
ATOM      5  C   UNL     1       7.722   5.366  13.613  0.00  0.00    +0.000 A 
ATOM      6  C   UNL     1       7.726   4.871  12.293  0.00  0.00    +0.000 A 
ATOM      7  C   UNL     1       6.824   3.884  11.887  0.00  0.00    +0.000 A 
ATOM      8  C   UNL     1       5.926   3.323  12.797  0.00  0.00    +0.000 A 
ATOM      9  C   UNL     1       5.956   3.826  14.099  0.00  0.00    +0.000 A 
ATOM     10  N   UNL     1       5.246   3.490  15.214  0.00  0.00    +0.000 N 
ATOM     11  H   UNL     1       4.557   2.755  15.262  0.00  0.00    +0.000 HD
ENDBRANCH   1   2
BRANCH   1  14
ATOM     12  C   UNL     1       3.491   6.323  18.637  0.00  0.00    +0.000 C 
ATOM     13  O   UNL     1       4.079   5.989  19.666  0.00  0.00    +0.000 OA
ATOM     14  N   UNL     1       3.645   5.636  17.434  0.00  0.00    +0.000 N 
ATOM     15  H   UNL     1       3.065   5.820  16.625  0.00  0.00    +0.000 HD
BRANCH  12  20
ATOM     16  C   UNL     1       1.076   8.910  20.038  0.00  0.00    +0.000 A 
ATOM     17  C   UNL     1       1.128   9.861  19.018  0.00  0.00    +0.000 A 
ATOM     18  C   UNL     1       1.870   9.635  17.853  0.00  0.00    +0.000 A 
ATOM     19  C   UNL     1       2.593   8.456  17.687  0.00  0.00    +0.000 A 
ATOM     20  C   UNL     1       2.589   7.505  18.706  0.00  0.00    +0.000 A 
ATOM     21  C   UNL     1       1.834   7.737  19.883  0.00  0.00    +0.000 A 
BRANCH  16  25
ATOM     22  C   UNL     1      -0.220   9.431  23.569  0.00  0.00    +0.000 C 
ATOM     23  C   UNL     1       0.831   9.376  22.487  0.00  0.00    +0.000 C 
ATOM     24  O   UNL     1       2.009   9.574  22.770  0.00  0.00    +0.000 OA
ATOM     25  N   UNL     1       0.319   9.100  21.225  0.00  0.00    +0.000 N 
ATOM     26  H   UNL     1      -0.689   9.101  21.126  0.00  0.00    +0.000 HD
ENDBRANCH  16  25
ENDBRANCH  12  20
ENDBRANCH   1  14
BRANCH   1  27
ATOM     27  C   UNL     1       3.772   3.120  17.517  0.00  0.00    +0.000 C 
BRANCH  27  28
ATOM     28  C   UNL     1       2.924   2.931  18.754  0.00  0.00    +0.000 A 
ATOM     29  C   UNL     1       3.507   2.671  20.002  0.00  0.00    +0.000 A 
ATOM     30  C   UNL     1       2.717   2.606  21.150  0.00  0.00    +0.000 A 
ATOM     31  C   UNL     1       1.342   2.793  21.063  0.00  0.00    +0.000 A 
ATOM     32  C   UNL     1       0.749   3.021  19.823  0.00  0.00    +0.000 A 
ATOM     33  C   UNL     1       1.535   3.084  18.672  0.00  0.00    +0.000 A 
ENDBRANCH  27  28
ENDBRANCH   1  27
TORSDOF 6
ENDMDL
MODEL 2
REMARK VINA RESULT:      -8.7      2.645      4.334
REMARK  Name = 
REMARK  7 active torsions:
REMARK  status: ('A' for Active; 'I' for Inactive)
REMARK    1  A    between atoms: C_1  and  C_2
REMARK    2  A    between atoms: N_4  and  C_5
REMARK    3  A    between atoms: C_9  and  C_10
REMARK    4  A    between atoms: N_12  and  C_13
REMARK    5  A    between atoms: C_13  and  C_14
REMARK    6  A    between atoms: C_13  and  C_21
REMARK    7  A    between atoms: C_14  and  C_15
REMARK                            x       y       z     vdW  Elec       q    Type
REMARK                         _______ _______ _______ _____ _____    ______ ____
ROOT
ATOM      1  C   UNL     1       2.614   6.698  19.719  0.00  0.00    +0.000 C 
ENDROOT
BRANCH   1   2
ATOM      2  C   UNL     1       3.699   6.446  18.688  0.00  0.00    +0.000 A 
ATOM      3  N   UNL     1       3.722   6.596  17.372  0.00  0.00    +0.000 NA
ATOM      4  C   UNL     1       4.892   5.973  16.947  0.00  0.00    +0.000 A 
ATOM      5  C   UNL     1       5.425   5.763  15.662  0.00  0.00    +0.000 A 
ATOM      6  C   UNL     1       6.583   4.973  15.526  0.00  0.00    +0.000 A 
ATOM      7  C   UNL     1       7.211   4.410  16.639  0.00  0.00    +0.000 A 
ATOM      8  C   UNL     1       6.734   4.658  17.927  0.00  0.00    +0.000 A 
ATOM      9  C   UNL     1       5.591   5.454  18.030  0.00  0.00    +0.000 A 
ATOM     10  N   UNL     1       4.894   5.900  19.114  0.00  0.00    +0.000 N 
ATOM     11  H   UNL     1       5.142   5.719  20.075  0.00  0.00    +0.000 HD
ENDBRANCH   1   2
BRANCH   1  14
ATOM     12  C   UNL     1       1.285   8.615  20.502  0.00  0.00    +0.000 C 
ATOM     13  O   UNL     1       1.546   8.348  21.675  0.00  0.00    +0.000 OA
ATOM     14  N   UNL     1       1.770   7.855  19.439  0.00  0.00    +0.000 N 
ATOM     15  H   UNL     1       1.451   7.985  18.487  0.00  0.00    +0.000 HD
BRANCH  12  20
ATOM     16  C   UNL     1      -1.068  10.997  18.690  0.00  0.00    +0.000 A 
ATOM     17  C   UNL     1      -1.464  11.800  19.760  0.00  0.00    +0.000 A 
ATOM     18  C   UNL     1      -0.916  11.629  21.037  0.00  0.00    +0.000 A 
ATOM     19  C   UNL     1       0.031  10.636  21.278  0.00  0.00    +0.000 A 
ATOM     20  C   UNL     1       0.416   9.794  20.235  0.00  0.00    +0.000 A 
ATOM     21  C   UNL     1      -0.138   9.973  18.944  0.00  0.00    +0.000 A 
BRANCH  16  25
ATOM     22  C   UNL     1      -2.884  10.751  15.364  0.00  0.00    +0.000 C 
ATOM     23  C   UNL     1      -2.615  10.409  16.809  0.00  0.00    +0.000 C 
ATOM     24  O   UNL     1      -3.285   9.545  17.366  0.00  0.00    +0.000 OA
ATOM     25  N   UNL     1      -1.590  11.155  17.378  0.00  0.00    +0.000 N 
ATOM     26  H   UNL     1      -1.226  11.928  16.835  0.00  0.00    +0.000 HD
ENDBRANCH  16  25
ENDBRANCH  12  20
ENDBRANCH   1  14
BRANCH   1  27
ATOM     27  C   UNL     1       1.804   5.394  19.982  0.00  0.00    +0.000 C 
BRANCH  27  28
ATOM     28  C   UNL     1       2.317   4.131  19.329  0.00  0.00    +0.000 A 
ATOM     29  C   UNL     1       1.968   3.800  18.012  0.00  0.00    +0.000 A 
ATOM     30  C   UNL     1       2.536   2.688  17.390  0.00  0.00    +0.000 A 
ATOM     31  C   UNL     1       3.449   1.895  18.076  0.00  0.00    +0.000 A 
ATOM     32  C   UNL     1       3.778   2.197  19.395  0.00  0.00    +0.000 A 
ATOM     33  C   UNL     1       3.210   3.307  20.022  0.00  0.00    +0.000 A 
ENDBRANCH  27  28
ENDBRANCH   1  27
TORSDOF 6
ENDMDL
MODEL 3
REMARK VINA RESULT:      -8.7      1.219      1.402
REMARK  Name = 
REMARK  7 active torsions:
REMARK  status: ('A' for Active; 'I' for Inactive)
REMARK    1  A    between atoms: C_1  and  C_2
REMARK    2  A    between atoms: N_4  and  C_5
REMARK    3  A    between atoms: C_9  and  C_10
REMARK    4  A    between atoms: N_12  and  C_13
REMARK    5  A    between atoms: C_13  and  C_14
REMARK    6  A    between atoms: C_13  and  C_21
REMARK    7  A    between atoms: C_14  and  C_15
REMARK                            x       y       z     vdW  Elec       q    Type
REMARK                         _______ _______ _______ _____ _____    ______ ____
ROOT
ATOM      1  C   UNL     1       5.372   4.370  19.056  0.00  0.00    +0.000 C 
ENDROOT
BRANCH   1   2
ATOM      2  C   UNL     1       6.004   4.376  17.676  0.00  0.00    +0.000 A 
ATOM      3  N   UNL     1       6.919   5.158  17.123  0.00  0.00    +0.000 NA
ATOM      4  C   UNL     1       6.913   4.838  15.768  0.00  0.00    +0.000 A 
ATOM      5  C   UNL     1       7.625   5.371  14.679  0.00  0.00    +0.000 A 
ATOM      6  C   UNL     1       7.315   4.929  13.378  0.00  0.00    +0.000 A 
ATOM      7  C   UNL     1       6.325   3.968  13.158  0.00  0.00    +0.000 A 
ATOM      8  C   UNL     1       5.650   3.382  14.229  0.00  0.00    +0.000 A 
ATOM      9  C   UNL     1       5.989   3.834  15.507  0.00  0.00    +0.000 A 
ATOM     10  N   UNL     1       5.549   3.463  16.743  0.00  0.00    +0.000 N 
ATOM     11  H   UNL     1       4.876   2.734  16.923  0.00  0.00    +0.000 HD
ENDBRANCH   1   2
BRANCH   1  14
ATOM     12  C   UNL     1       3.640   5.953  18.312  0.00  0.00    +0.000 C 
ATOM     13  O   UNL     1       3.605   5.427  17.199  0.00  0.00    +0.000 OA
ATOM     14  N   UNL     1       4.489   5.502  19.321  0.00  0.00    +0.000 N 
ATOM     15  H   UNL     1       4.622   6.010  20.187  0.00  0.00    +0.000 HD
BRANCH  12  20
ATOM     16  C   UNL     1       1.459   8.459  20.168  0.00  0.00    +0.000 A 
ATOM     17  C   UNL     1       1.303   9.424  19.171  0.00  0.00    +0.000 A 
ATOM     18  C   UNL     1       1.827   9.230  17.887  0.00  0.00    +0.000 A 
ATOM     19  C   UNL     1       2.535   8.072  17.575  0.00  0.00    +0.000 A 
ATOM     20  C   UNL     1       2.738   7.109  18.562  0.00  0.00    +0.000 A 
ATOM     21  C   UNL     1       2.203   7.308  19.859  0.00  0.00    +0.000 A 
BRANCH  16  25
ATOM     22  C   UNL     1      -0.327   9.528  23.344  0.00  0.00    +0.000 C 
ATOM     23  C   UNL     1      -0.028   9.548  21.865  0.00  0.00    +0.000 C 
ATOM     24  O   UNL     1      -0.618  10.339  21.134  0.00  0.00    +0.000 OA
ATOM     25  N   UNL     1       0.925   8.615  21.475  0.00  0.00    +0.000 N 
ATOM     26  H   UNL     1       1.217   7.937  22.169  0.00  0.00    +0.000 HD
ENDBRANCH  16  25
ENDBRANCH  12  20
ENDBRANCH   1  14
BRANCH   1  27
ATOM     27  C   UNL     1       4.709   2.991  19.342  0.00  0.00    +0.000 C 
BRANCH  27  28
ATOM     28  C   UNL     1       3.220   2.994  19.607  0.00  0.00    +0.000 A 
ATOM     29  C   UNL     1       2.703   3.420  20.839  0.00  0.00    +0.000 A 
ATOM     30  C   UNL     1       1.324   3.517  21.028  0.00  0.00    +0.000 A 
ATOM     31  C   UNL     1       0.452   3.186  19.997  0.00  0.00    +0.000 A 
ATOM     32  C   UNL     1       0.956   2.731  18.781  0.00  0.00    +0.000 A 
ATOM     33  C   UNL     1       2.335   2.629  18.588  0.00  0.00    +0.000 A 
ENDBRANCH  27  28
ENDBRANCH   1  27
TORSDOF 6
ENDMDL
MODEL 4
REMARK VINA RESULT:      -8.5      3.659      8.744
REMARK  Name = 
REMARK  7 active torsions:
REMARK  status: ('A' for Active; 'I' for Inactive)
REMARK    1  A    between atoms: C_1  and  C_2
REMARK    2  A    between atoms: N_4  and  C_5
REMARK    3  A    between atoms: C_9  and  C_10
REMARK    4  A    between atoms: N_12  and  C_13
REMARK    5  A    between atoms: C_13  and  C_14
REMARK    6  A    between atoms: C_13  and  C_21
REMARK    7  A    between atoms: C_14  and  C_15
REMARK                            x       y       z     vdW  Elec       q    Type
REMARK                         _______ _______ _______ _____ _____    ______ ____
ROOT
ATOM      1  C   UNL     1       0.529  10.273  18.685  0.00  0.00    +0.000 C 
ENDROOT
BRANCH   1   2
ATOM      2  C   UNL     1       1.247  11.534  19.129  0.00  0.00    +0.000 A 
ATOM      3  N   UNL     1       1.225  12.212  20.267  0.00  0.00    +0.000 NA
ATOM      4  C   UNL     1       1.885  13.408  19.999  0.00  0.00    +0.000 A 
ATOM      5  C   UNL     1       2.125  14.541  20.798  0.00  0.00    +0.000 A 
ATOM      6  C   UNL     1       2.719  15.676  20.211  0.00  0.00    +0.000 A 
ATOM      7  C   UNL     1       3.078  15.688  18.861  0.00  0.00    +0.000 A 
ATOM      8  C   UNL     1       2.905  14.553  18.067  0.00  0.00    +0.000 A 
ATOM      9  C   UNL     1       2.325  13.441  18.682  0.00  0.00    +0.000 A 
ATOM     10  N   UNL     1       2.043  12.192  18.212  0.00  0.00    +0.000 N 
ATOM     11  H   UNL     1       2.252  11.864  17.280  0.00  0.00    +0.000 HD
ENDBRANCH   1   2
BRANCH   1  14
ATOM     12  C   UNL     1       2.200   8.568  18.086  0.00  0.00    +0.000 C 
ATOM     13  O   UNL     1       2.473   9.167  17.046  0.00  0.00    +0.000 OA
ATOM     14  N   UNL     1       1.241   9.034  18.984  0.00  0.00    +0.000 N 
ATOM     15  H   UNL     1       0.915   8.481  19.767  0.00  0.00    +0.000 HD
BRANCH  12  20
ATOM     16  C   UNL     1       3.042   5.180  19.603  0.00  0.00    +0.000 A 
ATOM     17  C   UNL     1       4.063   4.780  18.740  0.00  0.00    +0.000 A 
ATOM     18  C   UNL     1       4.532   5.628  17.729  0.00  0.00    +0.000 A 
ATOM     19  C   UNL     1       3.977   6.892  17.547  0.00  0.00    +0.000 A 
ATOM     20  C   UNL     1       2.930   7.303  18.371  0.00  0.00    +0.000 A 
ATOM     21  C   UNL     1       2.461   6.443  19.395  0.00  0.00    +0.000 A 
BRANCH  16  25
ATOM     22  C   UNL     1       1.343   2.594  21.804  0.00  0.00    +0.000 C 
ATOM     23  C   UNL     1       1.785   3.207  20.497  0.00  0.00    +0.000 C 
ATOM     24  O   UNL     1       1.462   2.680  19.437  0.00  0.00    +0.000 OA
ATOM     25  N   UNL     1       2.555   4.353  20.650  0.00  0.00    +0.000 N 
ATOM     26  H   UNL     1       2.856   4.584  21.589  0.00  0.00    +0.000 HD
ENDBRANCH  16  25
ENDBRANCH  12  20
ENDBRANCH   1  14
BRANCH   1  27
ATOM     27  C   UNL     1      -0.941  10.277  19.199  0.00  0.00    +0.000 C 
BRANCH  27  28
ATOM     28  C   UNL     1      -2.025  10.451  18.160  0.00  0.00    +0.000 A 
ATOM     29  C   UNL     1      -3.123  11.293  18.388  0.00  0.00    +0.000 A 
ATOM     30  C   UNL     1      -4.056  11.524  17.378  0.00  0.00    +0.000 A 
ATOM     31  C   UNL     1      -3.907  10.915  16.136  0.00  0.00    +0.000 A 
ATOM     32  C   UNL     1      -2.838  10.052  15.910  0.00  0.00    +0.000 A 
ATOM     33  C   UNL     1      -1.903   9.815  16.919  0.00  0.00    +0.000 A 
ENDBRANCH  27  28
ENDBRANCH   1  27
TORSDOF 6
ENDMDL
MODEL 5
REMARK VINA RESULT:      -8.4      2.252      7.931
REMARK  Name = 
REMARK  7 active torsions:
REMARK  status: ('A' for Active; 'I' for Inactive)
REMARK    1  A    between atoms: C_1  and  C_2
REMARK    2  A    between atoms: N_4  and  C_5
REMARK    3  A    between atoms: C_9  and  C_10
REMARK    4  A    between atoms: N_12  and  C_13
REMARK    5  A    between atoms: C_13  and  C_14
REMARK    6  A    between atoms: C_13  and  C_21
REMARK    7  A    between atoms: C_14  and  C_15
REMARK                            x       y       z     vdW  Elec       q    Type
REMARK                         _______ _______ _______ _____ _____    ______ ____
ROOT
ATOM      1  C   UNL     1       2.099   7.037  18.992  0.00  0.00    +0.000 C 
ENDROOT
BRANCH   1   2
ATOM      2  C   UNL     1       1.844   8.525  18.837  0.00  0.00    +0.000 A 
ATOM      3  N   UNL     1       2.294   9.416  17.965  0.00  0.00    +0.000 NA
ATOM      4  C   UNL     1       1.915  10.656  18.472  0.00  0.00    +0.000 A 
ATOM      5  C   UNL     1       2.156  11.964  18.015  0.00  0.00    +0.000 A 
ATOM      6  C   UNL     1       1.752  13.051  18.815  0.00  0.00    +0.000 A 
ATOM      7  C   UNL     1       1.112  12.849  20.040  0.00  0.00    +0.000 A 
ATOM      8  C   UNL     1       0.807  11.560  20.481  0.00  0.00    +0.000 A 
ATOM      9  C   UNL     1       1.211  10.505  19.659  0.00  0.00    +0.000 A 
ATOM     10  N   UNL     1       1.053   9.156  19.779  0.00  0.00    +0.000 N 
ATOM     11  H   UNL     1       0.563   8.694  20.531  0.00  0.00    +0.000 HD
ENDBRANCH   1   2
BRANCH   1  14
ATOM     12  C   UNL     1       3.540   5.445  17.790  0.00  0.00    +0.000 C 
ATOM     13  O   UNL     1       2.563   4.775  17.457  0.00  0.00    +0.000 OA
ATOM     14  N   UNL     1       3.423   6.602  18.558  0.00  0.00    +0.000 N 
ATOM     15  H   UNL     1       4.226   7.080  18.948  0.00  0.00    +0.000 HD
BRANCH  12  20
ATOM     16  C   UNL     1       6.332   4.200  15.521  0.00  0.00    +0.000 A 
ATOM     17  C   UNL     1       7.428   4.402  16.359  0.00  0.00    +0.000 A 
ATOM     18  C   UNL     1       7.262   4.859  17.673  0.00  0.00    +0.000 A 
ATOM     19  C   UNL     1       5.993   5.140  18.173  0.00  0.00    +0.000 A 
ATOM     20  C   UNL     1       4.883   4.983  17.345  0.00  0.00    +0.000 A 
ATOM     21  C   UNL     1       5.055   4.517  16.018  0.00  0.00    +0.000 A 
BRANCH  16  25
ATOM     22  C   UNL     1       6.974   3.660  11.818  0.00  0.00    +0.000 C 
ATOM     23  C   UNL     1       7.076   4.387  13.137  0.00  0.00    +0.000 C 
ATOM     24  O   UNL     1       7.668   5.460  13.197  0.00  0.00    +0.000 OA
ATOM     25  N   UNL     1       6.462   3.720  14.191  0.00  0.00    +0.000 N 
ATOM     26  H   UNL     1       6.139   2.777  14.013  0.00  0.00    +0.000 HD
ENDBRANCH  16  25
ENDBRANCH  12  20
ENDBRANCH   1  14
BRANCH   1  27
ATOM     27  C   UNL     1       1.741   6.574  20.435  0.00  0.00    +0.000 C 
BRANCH  27  28
ATOM     28  C   UNL     1       1.637   5.083  20.664  0.00  0.00    +0.000 A 
ATOM     29  C   UNL     1       0.675   4.310  19.997  0.00  0.00    +0.000 A 
ATOM     30  C   UNL     1       0.664   2.923  20.140  0.00  0.00    +0.000 A 
ATOM     31  C   UNL     1       1.603   2.296  20.952  0.00  0.00    +0.000 A 
ATOM     32  C   UNL     1       2.542   3.058  21.643  0.00  0.00    +0.000 A 
ATOM     33  C   UNL     1       2.555   4.446  21.506  0.00  0.00    +0.000 A 
ENDBRANCH  27  28
ENDBRANCH   1  27
TORSDOF 6
ENDMDL
MODEL 6
REMARK VINA RESULT:      -8.3      2.667      4.421
REMARK  Name = 
REMARK  7 active torsions:
REMARK  status: ('A' for Active; 'I' for Inactive)
REMARK    1  A    between atoms: C_1  and  C_2
REMARK    2  A    between atoms: N_4  and  C_5
REMARK    3  A    between atoms: C_9  and  C_10
REMARK    4  A    between atoms: N_12  and  C_13
REMARK    5  A    between atoms: C_13  and  C_14
REMARK    6  A    between atoms: C_13  and  C_21
REMARK    7  A    between atoms: C_14  and  C_15
REMARK                            x       y       z     vdW  Elec       q    Type
REMARK                         _______ _______ _______ _____ _____    ______ ____
ROOT
ATOM      1  C   UNL     1       2.458   6.777  20.217  0.00  0.00    +0.000 C 
ENDROOT
BRANCH   1   2
ATOM      2  C   UNL     1       3.480   6.145  19.288  0.00  0.00    +0.000 A 
ATOM      3  N   UNL     1       4.528   5.369  19.521  0.00  0.00    +0.000 NA
ATOM      4  C   UNL     1       5.223   5.313  18.316  0.00  0.00    +0.000 A 
ATOM      5  C   UNL     1       6.435   4.691  17.966  0.00  0.00    +0.000 A 
ATOM      6  C   UNL     1       6.970   4.915  16.682  0.00  0.00    +0.000 A 
ATOM      7  C   UNL     1       6.315   5.731  15.757  0.00  0.00    +0.000 A 
ATOM      8  C   UNL     1       5.081   6.307  16.064  0.00  0.00    +0.000 A 
ATOM      9  C   UNL     1       4.572   6.055  17.340  0.00  0.00    +0.000 A 
ATOM     10  N   UNL     1       3.408   6.437  17.940  0.00  0.00    +0.000 N 
ATOM     11  H   UNL     1       2.681   6.981  17.500  0.00  0.00    +0.000 HD
ENDBRANCH   1   2
BRANCH   1  14
ATOM     12  C   UNL     1       1.254   8.901  20.521  0.00  0.00    +0.000 C 
ATOM     13  O   UNL     1       1.365   8.817  21.744  0.00  0.00    +0.000 OA
ATOM     14  N   UNL     1       1.767   7.935  19.658  0.00  0.00    +0.000 N 
ATOM     15  H   UNL     1       1.563   7.928  18.666  0.00  0.00    +0.000 HD
BRANCH  12  20
ATOM     16  C   UNL     1      -0.901  11.035  18.221  0.00  0.00    +0.000 A 
ATOM     17  C   UNL     1      -1.073  12.159  19.030  0.00  0.00    +0.000 A 
ATOM     18  C   UNL     1      -0.434  12.263  20.272  0.00  0.00    +0.000 A 
ATOM     19  C   UNL     1       0.381  11.235  20.741  0.00  0.00    +0.000 A 
ATOM     20  C   UNL     1       0.541  10.085  19.969  0.00  0.00    +0.000 A 
ATOM     21  C   UNL     1      -0.105   9.985  18.712  0.00  0.00    +0.000 A 
BRANCH  16  25
ATOM     22  C   UNL     1      -3.006  10.127  15.194  0.00  0.00    +0.000 C 
ATOM     23  C   UNL     1      -2.640  10.136  16.658  0.00  0.00    +0.000 C 
ATOM     24  O   UNL     1      -3.321   9.505  17.461  0.00  0.00    +0.000 OA
ATOM     25  N   UNL     1      -1.519  10.905  16.949  0.00  0.00    +0.000 N 
ATOM     26  H   UNL     1      -1.149  11.480  16.202  0.00  0.00    +0.000 HD
ENDBRANCH  16  25
ENDBRANCH  12  20
ENDBRANCH   1  14
BRANCH   1  27
ATOM     27  C   UNL     1       1.490   5.692  20.774  0.00  0.00    +0.000 C 
BRANCH  27  28
ATOM     28  C   UNL     1       1.591   4.312  20.164  0.00  0.00    +0.000 A 
ATOM     29  C   UNL     1       1.227   4.078  18.830  0.00  0.00    +0.000 A 
ATOM     30  C   UNL     1       1.428   2.824  18.254  0.00  0.00    +0.000 A 
ATOM     31  C   UNL     1       1.985   1.793  19.003  0.00  0.00    +0.000 A 
ATOM     32  C   UNL     1       2.320   2.006  20.338  0.00  0.00    +0.000 A 
ATOM     33  C   UNL     1       2.118   3.259  20.919  0.00  0.00    +0.000 A 
ENDBRANCH  27  28
ENDBRANCH   1  27
TORSDOF 6
ENDMDL
MODEL 7
REMARK VINA RESULT:      -8.2      3.703      9.154
REMARK  Name = 
REMARK  7 active torsions:
REMARK  status: ('A' for Active; 'I' for Inactive)
REMARK    1  A    between atoms: C_1  and  C_2
REMARK    2  A    between atoms: N_4  and  C_5
REMARK    3  A    between atoms: C_9  and  C_10
REMARK    4  A    between atoms: N_12  and  C_13
REMARK    5  A    between atoms: C_13  and  C_14
REMARK    6  A    between atoms: C_13  and  C_21
REMARK    7  A    between atoms: C_14  and  C_15
REMARK                            x       y       z     vdW  Elec       q    Type
REMARK                         _______ _______ _______ _____ _____    ______ ____
ROOT
ATOM      1  C   UNL     1       0.500  10.475  18.743  0.00  0.00    +0.000 C 
ENDROOT
BRANCH   1   2
ATOM      2  C   UNL     1       1.296  11.707  19.135  0.00  0.00    +0.000 A 
ATOM      3  N   UNL     1       1.343  12.412  20.255  0.00  0.00    +0.000 NA
ATOM      4  C   UNL     1       2.056  13.565  19.939  0.00  0.00    +0.000 A 
ATOM      5  C   UNL     1       2.379  14.701  20.702  0.00  0.00    +0.000 A 
ATOM      6  C   UNL     1       3.013  15.789  20.070  0.00  0.00    +0.000 A 
ATOM      7  C   UNL     1       3.333  15.750  18.710  0.00  0.00    +0.000 A 
ATOM      8  C   UNL     1       3.077  14.607  17.951  0.00  0.00    +0.000 A 
ATOM      9  C   UNL     1       2.458  13.542  18.610  0.00  0.00    +0.000 A 
ATOM     10  N   UNL     1       2.098  12.300  18.179  0.00  0.00    +0.000 N 
ATOM     11  H   UNL     1       2.262  11.939  17.251  0.00  0.00    +0.000 HD
ENDBRANCH   1   2
BRANCH   1  14
ATOM     12  C   UNL     1       2.040   8.635  18.195  0.00  0.00    +0.000 C 
ATOM     13  O   UNL     1       2.325   9.162  17.120  0.00  0.00    +0.000 OA
ATOM     14  N   UNL     1       1.137   9.207  19.089  0.00  0.00    +0.000 N 
ATOM     15  H   UNL     1       0.796   8.717  19.907  0.00  0.00    +0.000 HD
BRANCH  12  20
ATOM     16  C   UNL     1       4.576   5.796  18.195  0.00  0.00    +0.000 A 
ATOM     17  C   UNL     1       4.140   5.087  19.314  0.00  0.00    +0.000 A 
ATOM     18  C   UNL     1       2.990   5.473  20.014  0.00  0.00    +0.000 A 
ATOM     19  C   UNL     1       2.258   6.591  19.620  0.00  0.00    +0.000 A 
ATOM     20  C   UNL     1       2.693   7.340  18.527  0.00  0.00    +0.000 A 
ATOM     21  C   UNL     1       3.855   6.943  17.820  0.00  0.00    +0.000 A 
BRANCH  16  25
ATOM     22  C   UNL     1       7.135   4.311  15.814  0.00  0.00    +0.000 C 
ATOM     23  C   UNL     1       5.746   4.600  16.331  0.00  0.00    +0.000 C 
ATOM     24  O   UNL     1       4.771   4.122  15.758  0.00  0.00    +0.000 OA
ATOM     25  N   UNL     1       5.727   5.422  17.451  0.00  0.00    +0.000 N 
ATOM     26  H   UNL     1       6.603   5.851  17.722  0.00  0.00    +0.000 HD
ENDBRANCH  16  25
ENDBRANCH  12  20
ENDBRANCH   1  14
BRANCH   1  27
ATOM     27  C   UNL     1      -0.964  10.589  19.261  0.00  0.00    +0.000 C 
BRANCH  27  28
ATOM     28  C   UNL     1      -2.047  10.729  18.215  0.00  0.00    +0.000 A 
ATOM     29  C   UNL     1      -1.999  10.001  17.018  0.00  0.00    +0.000 A 
ATOM     30  C   UNL     1      -3.059  10.062  16.113  0.00  0.00    +0.000 A 
ATOM     31  C   UNL     1      -4.170  10.851  16.391  0.00  0.00    +0.000 A 
ATOM     32  C   UNL     1      -4.212  11.603  17.562  0.00  0.00    +0.000 A 
ATOM     33  C   UNL     1      -3.153  11.547  18.469  0.00  0.00    +0.000 A 
ENDBRANCH  27  28
ENDBRANCH   1  27
TORSDOF 6
ENDMDL
MODEL 8
REMARK VINA RESULT:      -8.2      3.293      8.989
REMARK  Name = 
REMARK  7 active torsions:
REMARK  status: ('A' for Active; 'I' for Inactive)
REMARK    1  A    between atoms: C_1  and  C_2
REMARK    2  A    between atoms: N_4  and  C_5
REMARK    3  A    between atoms: C_9  and  C_10
REMARK    4  A    between atoms: N_12  and  C_13
REMARK    5  A    between atoms: C_13  and  C_14
REMARK    6  A    between atoms: C_13  and  C_21
REMARK    7  A    between atoms: C_14  and  C_15
REMARK                            x       y       z     vdW  Elec       q    Type
REMARK                         _______ _______ _______ _____ _____    ______ ____
ROOT
ATOM      1  C   UNL     1       0.458   9.919  19.548  0.00  0.00    +0.000 C 
ENDROOT
BRANCH   1   2
ATOM      2  C   UNL     1      -0.712  10.435  18.730  0.00  0.00    +0.000 A 
ATOM      3  N   UNL     1      -1.787  11.134  19.064  0.00  0.00    +0.000 NA
ATOM      4  C   UNL     1      -2.618  11.093  17.948  0.00  0.00    +0.000 A 
ATOM      5  C   UNL     1      -3.909  11.605  17.726  0.00  0.00    +0.000 A 
ATOM      6  C   UNL     1      -4.568  11.294  16.521  0.00  0.00    +0.000 A 
ATOM      7  C   UNL     1      -3.959  10.500  15.546  0.00  0.00    +0.000 A 
ATOM      8  C   UNL     1      -2.654  10.034  15.721  0.00  0.00    +0.000 A 
ATOM      9  C   UNL     1      -2.024  10.369  16.922  0.00  0.00    +0.000 A 
ATOM     10  N   UNL     1      -0.772  10.102  17.390  0.00  0.00    +0.000 N 
ATOM     11  H   UNL     1      -0.059   9.601  16.882  0.00  0.00    +0.000 HD
ENDBRANCH   1   2
BRANCH   1  14
ATOM     12  C   UNL     1       1.964   7.984  19.340  0.00  0.00    +0.000 C 
ATOM     13  O   UNL     1       1.632   7.575  20.453  0.00  0.00    +0.000 OA
ATOM     14  N   UNL     1       1.436   9.148  18.786  0.00  0.00    +0.000 N 
ATOM     15  H   UNL     1       1.802   9.562  17.937  0.00  0.00    +0.000 HD
BRANCH  12  20
ATOM     16  C   UNL     1       3.945   4.997  18.058  0.00  0.00    +0.000 A 
ATOM     17  C   UNL     1       4.601   5.591  16.979  0.00  0.00    +0.000 A 
ATOM     18  C   UNL     1       4.470   6.960  16.716  0.00  0.00    +0.000 A 
ATOM     19  C   UNL     1       3.664   7.765  17.518  0.00  0.00    +0.000 A 
ATOM     20  C   UNL     1       2.968   7.190  18.580  0.00  0.00    +0.000 A 
ATOM     21  C   UNL     1       3.107   5.805  18.845  0.00  0.00    +0.000 A 
BRANCH  16  25
ATOM     22  C   UNL     1       3.550   1.250  18.529  0.00  0.00    +0.000 C 
ATOM     23  C   UNL     1       3.201   2.607  17.969  0.00  0.00    +0.000 C 
ATOM     24  O   UNL     1       2.227   2.730  17.232  0.00  0.00    +0.000 OA
ATOM     25  N   UNL     1       4.070   3.616  18.365  0.00  0.00    +0.000 N 
ATOM     26  H   UNL     1       4.908   3.334  18.859  0.00  0.00    +0.000 HD
ENDBRANCH  16  25
ENDBRANCH  12  20
ENDBRANCH   1  14
BRANCH   1  27
ATOM     27  C   UNL     1       1.093  11.076  20.373  0.00  0.00    +0.000 C 
BRANCH  27  28
ATOM     28  C   UNL     1       0.219  11.722  21.425  0.00  0.00    +0.000 A 
ATOM     29  C   UNL     1       0.127  13.116  21.537  0.00  0.00    +0.000 A 
ATOM     30  C   UNL     1      -0.765  13.693  22.441  0.00  0.00    +0.000 A 
ATOM     31  C   UNL     1      -1.566  12.887  23.243  0.00  0.00    +0.000 A 
ATOM     32  C   UNL     1      -1.458  11.501  23.162  0.00  0.00    +0.000 A 
ATOM     33  C   UNL     1      -0.565  10.920  22.261  0.00  0.00    +0.000 A 
ENDBRANCH  27  28
ENDBRANCH   1  27
TORSDOF 6
ENDMDL
MODEL 9
REMARK VINA RESULT:      -8.2      2.873      4.365
REMARK  Name = 
REMARK  7 active torsions:
REMARK  status: ('A' for Active; 'I' for Inactive)
REMARK    1  A    between atoms: C_1  and  C_2
REMARK    2  A    between atoms: N_4  and  C_5
REMARK    3  A    between atoms: C_9  and  C_10
REMARK    4  A    between atoms: N_12  and  C_13
REMARK    5  A    between atoms: C_13  and  C_14
REMARK    6  A    between atoms: C_13  and  C_21
REMARK    7  A    between atoms: C_14  and  C_15
REMARK                            x       y       z     vdW  Elec       q    Type
REMARK                         _______ _______ _______ _____ _____    ______ ____
ROOT
ATOM      1  C   UNL     1       2.409   7.089  19.901  0.00  0.00    +0.000 C 
ENDROOT
BRANCH   1   2
ATOM      2  C   UNL     1       3.452   6.330  19.101  0.00  0.00    +0.000 A 
ATOM      3  N   UNL     1       4.474   5.572  19.471  0.00  0.00    +0.000 NA
ATOM      4  C   UNL     1       5.214   5.355  18.312  0.00  0.00    +0.000 A 
ATOM      5  C   UNL     1       6.425   4.675  18.091  0.00  0.00    +0.000 A 
ATOM      6  C   UNL     1       7.014   4.728  16.813  0.00  0.00    +0.000 A 
ATOM      7  C   UNL     1       6.412   5.432  15.767  0.00  0.00    +0.000 A 
ATOM      8  C   UNL     1       5.179   6.061  15.949  0.00  0.00    +0.000 A 
ATOM      9  C   UNL     1       4.616   5.980  17.225  0.00  0.00    +0.000 A 
ATOM     10  N   UNL     1       3.438   6.451  17.724  0.00  0.00    +0.000 N 
ATOM     11  H   UNL     1       2.740   6.948  17.191  0.00  0.00    +0.000 HD
ENDBRANCH   1   2
BRANCH   1  14
ATOM     12  C   UNL     1       1.235   9.251  19.967  0.00  0.00    +0.000 C 
ATOM     13  O   UNL     1       1.153   9.196  21.194  0.00  0.00    +0.000 OA
ATOM     14  N   UNL     1       1.847   8.249  19.216  0.00  0.00    +0.000 N 
ATOM     15  H   UNL     1       1.798   8.221  18.205  0.00  0.00    +0.000 HD
BRANCH  12  20
ATOM     16  C   UNL     1      -1.341  11.587  18.420  0.00  0.00    +0.000 A 
ATOM     17  C   UNL     1      -0.570  12.743  18.296  0.00  0.00    +0.000 A 
ATOM     18  C   UNL     1       0.790  12.748  18.631  0.00  0.00    +0.000 A 
ATOM     19  C   UNL     1       1.407  11.597  19.115  0.00  0.00    +0.000 A 
ATOM     20  C   UNL     1       0.651  10.437  19.285  0.00  0.00    +0.000 A 
ATOM     21  C   UNL     1      -0.724  10.437  18.941  0.00  0.00    +0.000 A 
BRANCH  16  25
ATOM     22  C   UNL     1      -4.739  11.389  16.736  0.00  0.00    +0.000 C 
ATOM     23  C   UNL     1      -3.236  11.273  16.812  0.00  0.00    +0.000 C 
ATOM     24  O   UNL     1      -2.597  10.958  15.812  0.00  0.00    +0.000 OA
ATOM     25  N   UNL     1      -2.718  11.543  18.073  0.00  0.00    +0.000 N 
ATOM     26  H   UNL     1      -3.382  11.650  18.830  0.00  0.00    +0.000 HD
ENDBRANCH  16  25
ENDBRANCH  12  20
ENDBRANCH   1  14
BRANCH   1  27
ATOM     27  C   UNL     1       1.325   6.110  20.443  0.00  0.00    +0.000 C 
BRANCH  27  28
ATOM     28  C   UNL     1       1.584   4.633  20.249  0.00  0.00    +0.000 A 
ATOM     29  C   UNL     1       2.068   3.837  21.296  0.00  0.00    +0.000 A 
ATOM     30  C   UNL     1       2.200   2.458  21.130  0.00  0.00    +0.000 A 
ATOM     31  C   UNL     1       1.857   1.864  19.920  0.00  0.00    +0.000 A 
ATOM     32  C   UNL     1       1.405   2.651  18.864  0.00  0.00    +0.000 A 
ATOM     33  C   UNL     1       1.275   4.032  19.024  0.00  0.00    +0.000 A 
ENDBRANCH  27  28
ENDBRANCH   1  27
TORSDOF 6
ENDMDL
