MODEL 1
REMARK VINA RESULT:      -8.8      0.000      0.000
REMARK  Name = 
REMARK  4 active torsions:
REMARK  status: ('A' for Active; 'I' for Inactive)
REMARK    1  A    between atoms: C_1  and  C_2
REMARK    2  A    between atoms: C_2  and  C_3
REMARK    3  A    between atoms: N_5  and  C_6
REMARK    4  A    between atoms: C_6  and  C_7
REMARK                            x       y       z     vdW  Elec       q    Type
REMARK                         _______ _______ _______ _____ _____    ______ ____
ROOT
ATOM      1  C   UNL     1       7.044   5.962  17.487  0.00  0.00    +0.000 C 
ATOM      2  O   UNL     1       7.665   5.183  18.218  0.00  0.00    +0.000 OA
ATOM      3  N   UNL     1       7.321   7.320  17.530  0.00  0.00    +0.000 N 
ATOM      4  H   UNL     1       7.074   7.936  16.765  0.00  0.00    +0.000 HD
ENDROOT
BRANCH   1   6
ATOM      5  C   UNL     1       6.646   5.180  15.131  0.00  0.00    +0.000 C 
ATOM      6  C   UNL     1       5.973   5.455  16.485  0.00  0.00    +0.000 C 
ATOM      7  C   UNL     1       5.322   4.134  16.975  0.00  0.00    +0.000 C 
ATOM      8  C   UNL     1       4.563   4.288  18.298  0.00  0.00    +0.000 C 
ATOM      9  C   UNL     1       3.802   5.582  18.420  0.00  0.00    +0.000 A 
ATOM     10  C   UNL     1       3.013   5.798  19.559  0.00  0.00    +0.000 A 
ATOM     11  C   UNL     1       2.309   6.989  19.721  0.00  0.00    +0.000 A 
ATOM     12  C   UNL     1       2.352   7.963  18.728  0.00  0.00    +0.000 A 
ATOM     13  C   UNL     1       3.140   7.765  17.595  0.00  0.00    +0.000 A 
ATOM     14  C   UNL     1       3.910   6.601  17.459  0.00  0.00    +0.000 A 
ATOM     15  C   UNL     1       4.838   6.479  16.275  0.00  0.00    +0.000 C 
ENDBRANCH   1   6
BRANCH   3  16
ATOM     16  C   UNL     1       8.321   7.759  18.468  0.00  0.00    +0.000 C 
BRANCH  16  17
ATOM     17  C   UNL     1       8.631   9.229  18.517  0.00  0.00    +0.000 A 
ATOM     18  N   UNL     1       8.383  10.232  17.692  0.00  0.00    +0.000 NA
ATOM     19  C   UNL     1       9.050  11.333  18.222  0.00  0.00    +0.000 A 
ATOM     20  C   UNL     1       9.166  12.663  17.787  0.00  0.00    +0.000 A 
ATOM     21  C   UNL     1      10.003  13.534  18.508  0.00  0.00    +0.000 A 
ATOM     22  F   UNL     1      10.145  14.805  18.095  0.00  0.00    +0.000 F 
ATOM     23  C   UNL     1      10.703  13.124  19.640  0.00  0.00    +0.000 A 
ATOM     24  C   UNL     1      10.555  11.825  20.124  0.00  0.00    +0.000 A 
ATOM     25  C   UNL     1       9.722  10.972  19.393  0.00  0.00    +0.000 A 
ATOM     26  N   UNL     1       9.356   9.677  19.597  0.00  0.00    +0.000 N 
ATOM     27  H   UNL     1       9.632   9.112  20.385  0.00  0.00    +0.000 HD
ENDBRANCH  16  17
ENDBRANCH   3  16
TORSDOF 3
ENDMDL
MODEL 2
REMARK VINA RESULT:      -8.5      5.284      6.867
REMARK  Name = 
REMARK  4 active torsions:
REMARK  status: ('A' for Active; 'I' for Inactive)
REMARK    1  A    between atoms: C_1  and  C_2
REMARK    2  A    between atoms: C_2  and  C_3
REMARK    3  A    between atoms: N_5  and  C_6
REMARK    4  A    between atoms: C_6  and  C_7
REMARK                            x       y       z     vdW  Elec       q    Type
REMARK                         _______ _______ _______ _____ _____    ______ ____
ROOT
ATOM      1  C   UNL     1       4.196   5.233  17.721  0.00  0.00    +0.000 C 
ATOM      2  O   UNL     1       4.011   4.344  16.883  0.00  0.00    +0.000 OA
ATOM      3  N   UNL     1       5.470   5.460  18.219  0.00  0.00    +0.000 N 
ATOM      4  H   UNL     1       5.721   6.341  18.652  0.00  0.00    +0.000 HD
ENDROOT
BRANCH   1   6
ATOM      5  C   UNL     1       3.333   7.592  17.816  0.00  0.00    +0.000 C 
ATOM      6  C   UNL     1       3.035   6.138  18.213  0.00  0.00    +0.000 C 
ATOM      7  C   UNL     1       1.687   5.729  17.563  0.00  0.00    +0.000 C 
ATOM      8  C   UNL     1       1.244   4.309  17.932  0.00  0.00    +0.000 C 
ATOM      9  C   UNL     1       1.525   3.932  19.362  0.00  0.00    +0.000 A 
ATOM     10  C   UNL     1       1.097   2.680  19.828  0.00  0.00    +0.000 A 
ATOM     11  C   UNL     1       1.353   2.284  21.139  0.00  0.00    +0.000 A 
ATOM     12  C   UNL     1       2.006   3.149  22.012  0.00  0.00    +0.000 A 
ATOM     13  C   UNL     1       2.446   4.391  21.559  0.00  0.00    +0.000 A 
ATOM     14  C   UNL     1       2.256   4.769  20.222  0.00  0.00    +0.000 A 
ATOM     15  C   UNL     1       2.851   6.070  19.743  0.00  0.00    +0.000 C 
ENDBRANCH   1   6
BRANCH   3  16
ATOM     16  C   UNL     1       6.526   4.606  17.741  0.00  0.00    +0.000 C 
BRANCH  16  17
ATOM     17  C   UNL     1       6.833   4.636  16.269  0.00  0.00    +0.000 A 
ATOM     18  N   UNL     1       7.490   5.490  15.502  0.00  0.00    +0.000 NA
ATOM     19  C   UNL     1       7.307   5.043  14.196  0.00  0.00    +0.000 A 
ATOM     20  C   UNL     1       7.750   5.541  12.959  0.00  0.00    +0.000 A 
ATOM     21  C   UNL     1       7.312   4.903  11.785  0.00  0.00    +0.000 A 
ATOM     22  F   UNL     1       7.707   5.377  10.591  0.00  0.00    +0.000 F 
ATOM     23  C   UNL     1       6.472   3.793  11.810  0.00  0.00    +0.000 A 
ATOM     24  C   UNL     1       6.068   3.246  13.028  0.00  0.00    +0.000 A 
ATOM     25  C   UNL     1       6.510   3.895  14.186  0.00  0.00    +0.000 A 
ATOM     26  N   UNL     1       6.316   3.616  15.504  0.00  0.00    +0.000 N 
ATOM     27  H   UNL     1       5.813   2.821  15.863  0.00  0.00    +0.000 HD
ENDBRANCH  16  17
ENDBRANCH   3  16
TORSDOF 3
ENDMDL
MODEL 3
REMARK VINA RESULT:      -8.4      5.703      6.822
REMARK  Name = 
REMARK  4 active torsions:
REMARK  status: ('A' for Active; 'I' for Inactive)
REMARK    1  A    between atoms: C_1  and  C_2
REMARK    2  A    between atoms: C_2  and  C_3
REMARK    3  A    between atoms: N_5  and  C_6
REMARK    4  A    between atoms: C_6  and  C_7
REMARK                            x       y       z     vdW  Elec       q    Type
REMARK                         _______ _______ _______ _____ _____    ______ ____
ROOT
ATOM      1  C   UNL     1       4.294   6.120  17.155  0.00  0.00    +0.000 C 
ATOM      2  O   UNL     1       5.114   6.988  16.838  0.00  0.00    +0.000 OA
ATOM      3  N   UNL     1       3.018   6.487  17.554  0.00  0.00    +0.000 N 
ATOM      4  H   UNL     1       2.245   5.834  17.525  0.00  0.00    +0.000 HD
ENDROOT
BRANCH   1   6
ATOM      5  C   UNL     1       5.431   4.338  15.794  0.00  0.00    +0.000 C 
ATOM      6  C   UNL     1       4.644   4.609  17.085  0.00  0.00    +0.000 C 
ATOM      7  C   UNL     1       5.528   4.180  18.286  0.00  0.00    +0.000 C 
ATOM      8  C   UNL     1       4.832   4.347  19.641  0.00  0.00    +0.000 C 
ATOM      9  C   UNL     1       3.370   3.985  19.626  0.00  0.00    +0.000 A 
ATOM     10  C   UNL     1       2.650   4.032  20.829  0.00  0.00    +0.000 A 
ATOM     11  C   UNL     1       1.292   3.724  20.857  0.00  0.00    +0.000 A 
ATOM     12  C   UNL     1       0.645   3.326  19.691  0.00  0.00    +0.000 A 
ATOM     13  C   UNL     1       1.346   3.285  18.487  0.00  0.00    +0.000 A 
ATOM     14  C   UNL     1       2.696   3.664  18.437  0.00  0.00    +0.000 A 
ATOM     15  C   UNL     1       3.385   3.718  17.096  0.00  0.00    +0.000 C 
ENDBRANCH   1   6
BRANCH   3  16
ATOM     16  C   UNL     1       2.724   7.896  17.606  0.00  0.00    +0.000 C 
BRANCH  16  17
ATOM     17  C   UNL     1       2.062   8.423  18.848  0.00  0.00    +0.000 A 
ATOM     18  N   UNL     1       1.889   7.923  20.060  0.00  0.00    +0.000 NA
ATOM     19  C   UNL     1       1.072   8.828  20.731  0.00  0.00    +0.000 A 
ATOM     20  C   UNL     1       0.540   8.835  22.031  0.00  0.00    +0.000 A 
ATOM     21  C   UNL     1      -0.345   9.867  22.389  0.00  0.00    +0.000 A 
ATOM     22  F   UNL     1      -0.880   9.879  23.621  0.00  0.00    +0.000 F 
ATOM     23  C   UNL     1      -0.695  10.885  21.505  0.00  0.00    +0.000 A 
ATOM     24  C   UNL     1      -0.134  10.931  20.229  0.00  0.00    +0.000 A 
ATOM     25  C   UNL     1       0.741   9.894  19.890  0.00  0.00    +0.000 A 
ATOM     26  N   UNL     1       1.458   9.655  18.757  0.00  0.00    +0.000 N 
ATOM     27  H   UNL     1       1.486  10.256  17.949  0.00  0.00    +0.000 HD
ENDBRANCH  16  17
ENDBRANCH   3  16
TORSDOF 3
ENDMDL
MODEL 4
REMARK VINA RESULT:      -8.4      5.030      7.204
REMARK  Name = 
REMARK  4 active torsions:
REMARK  status: ('A' for Active; 'I' for Inactive)
REMARK    1  A    between atoms: C_1  and  C_2
REMARK    2  A    between atoms: C_2  and  C_3
REMARK    3  A    between atoms: N_5  and  C_6
REMARK    4  A    between atoms: C_6  and  C_7
REMARK                            x       y       z     vdW  Elec       q    Type
REMARK                         _______ _______ _______ _____ _____    ______ ____
ROOT
ATOM      1  C   UNL     1       3.993   6.316  18.500  0.00  0.00    +0.000 C 
ATOM      2  O   UNL     1       4.646   5.554  19.221  0.00  0.00    +0.000 OA
ATOM      3  N   UNL     1       4.587   6.888  17.385  0.00  0.00    +0.000 N 
ATOM      4  H   UNL     1       4.035   7.255  16.619  0.00  0.00    +0.000 HD
ENDROOT
BRANCH   1   6
ATOM      5  C   UNL     1       2.293   8.151  18.746  0.00  0.00    +0.000 C 
ATOM      6  C   UNL     1       2.501   6.629  18.788  0.00  0.00    +0.000 C 
ATOM      7  C   UNL     1       1.574   5.988  17.722  0.00  0.00    +0.000 C 
ATOM      8  C   UNL     1       1.644   4.457  17.701  0.00  0.00    +0.000 C 
ATOM      9  C   UNL     1       1.752   3.831  19.066  0.00  0.00    +0.000 A 
ATOM     10  C   UNL     1       1.751   2.432  19.171  0.00  0.00    +0.000 A 
ATOM     11  C   UNL     1       1.868   1.812  20.413  0.00  0.00    +0.000 A 
ATOM     12  C   UNL     1       1.948   2.581  21.570  0.00  0.00    +0.000 A 
ATOM     13  C   UNL     1       1.961   3.971  21.479  0.00  0.00    +0.000 A 
ATOM     14  C   UNL     1       1.917   4.604  20.228  0.00  0.00    +0.000 A 
ATOM     15  C   UNL     1       2.051   6.105  20.168  0.00  0.00    +0.000 C 
ENDBRANCH   1   6
BRANCH   3  16
ATOM     16  C   UNL     1       5.972   6.577  17.143  0.00  0.00    +0.000 C 
BRANCH  16  17
ATOM     17  C   UNL     1       6.297   5.747  15.931  0.00  0.00    +0.000 A 
ATOM     18  N   UNL     1       7.359   5.672  15.147  0.00  0.00    +0.000 NA
ATOM     19  C   UNL     1       7.001   4.822  14.105  0.00  0.00    +0.000 A 
ATOM     20  C   UNL     1       7.700   4.374  12.972  0.00  0.00    +0.000 A 
ATOM     21  C   UNL     1       7.018   3.576  12.036  0.00  0.00    +0.000 A 
ATOM     22  F   UNL     1       7.663   3.155  10.935  0.00  0.00    +0.000 F 
ATOM     23  C   UNL     1       5.687   3.206  12.204  0.00  0.00    +0.000 A 
ATOM     24  C   UNL     1       4.991   3.590  13.350  0.00  0.00    +0.000 A 
ATOM     25  C   UNL     1       5.683   4.386  14.268  0.00  0.00    +0.000 A 
ATOM     26  N   UNL     1       5.311   4.907  15.470  0.00  0.00    +0.000 N 
ATOM     27  H   UNL     1       4.423   4.754  15.920  0.00  0.00    +0.000 HD
ENDBRANCH  16  17
ENDBRANCH   3  16
TORSDOF 3
ENDMDL
MODEL 5
REMARK VINA RESULT:      -8.3      5.515      6.655
REMARK  Name = 
REMARK  4 active torsions:
REMARK  status: ('A' for Active; 'I' for Inactive)
REMARK    1  A    between atoms: C_1  and  C_2
REMARK    2  A    between atoms: C_2  and  C_3
REMARK    3  A    between atoms: N_5  and  C_6
REMARK    4  A    between atoms: C_6  and  C_7
REMARK                            x       y       z     vdW  Elec       q    Type
REMARK                         _______ _______ _______ _____ _____    ______ ____
ROOT
ATOM      1  C   UNL     1       4.486   6.223  17.216  0.00  0.00    +0.000 C 
ATOM      2  O   UNL     1       5.429   7.019  17.164  0.00  0.00    +0.000 OA
ATOM      3  N   UNL     1       3.192   6.694  17.382  0.00  0.00    +0.000 N 
ATOM      4  H   UNL     1       2.387   6.134  17.129  0.00  0.00    +0.000 HD
ENDROOT
BRANCH   1   6
ATOM      5  C   UNL     1       5.429   4.421  15.740  0.00  0.00    +0.000 C 
ATOM      6  C   UNL     1       4.704   4.694  17.067  0.00  0.00    +0.000 C 
ATOM      7  C   UNL     1       5.583   4.134  18.218  0.00  0.00    +0.000 C 
ATOM      8  C   UNL     1       4.941   4.293  19.600  0.00  0.00    +0.000 C 
ATOM      9  C   UNL     1       3.455   4.055  19.616  0.00  0.00    +0.000 A 
ATOM     10  C   UNL     1       2.775   4.103  20.842  0.00  0.00    +0.000 A 
ATOM     11  C   UNL     1       1.397   3.908  20.899  0.00  0.00    +0.000 A 
ATOM     12  C   UNL     1       0.686   3.622  19.737  0.00  0.00    +0.000 A 
ATOM     13  C   UNL     1       1.347   3.581  18.512  0.00  0.00    +0.000 A 
ATOM     14  C   UNL     1       2.722   3.849  18.435  0.00  0.00    +0.000 A 
ATOM     15  C   UNL     1       3.376   3.910  17.077  0.00  0.00    +0.000 C 
ENDBRANCH   1   6
BRANCH   3  16
ATOM     16  C   UNL     1       3.022   8.118  17.515  0.00  0.00    +0.000 C 
BRANCH  16  17
ATOM     17  C   UNL     1       2.037   8.607  18.541  0.00  0.00    +0.000 A 
ATOM     18  N   UNL     1       1.173   9.608  18.557  0.00  0.00    +0.000 NA
ATOM     19  C   UNL     1       0.650   9.636  19.846  0.00  0.00    +0.000 A 
ATOM     20  C   UNL     1      -0.293  10.475  20.463  0.00  0.00    +0.000 A 
ATOM     21  C   UNL     1      -0.549  10.302  21.835  0.00  0.00    +0.000 A 
ATOM     22  F   UNL     1      -1.432  11.108  22.448  0.00  0.00    +0.000 F 
ATOM     23  C   UNL     1       0.087   9.322  22.592  0.00  0.00    +0.000 A 
ATOM     24  C   UNL     1       0.982   8.439  21.987  0.00  0.00    +0.000 A 
ATOM     25  C   UNL     1       1.227   8.628  20.624  0.00  0.00    +0.000 A 
ATOM     26  N   UNL     1       2.015   7.946  19.747  0.00  0.00    +0.000 N 
ATOM     27  H   UNL     1       2.552   7.123  19.967  0.00  0.00    +0.000 HD
ENDBRANCH  16  17
ENDBRANCH   3  16
TORSDOF 3
ENDMDL
MODEL 6
REMARK VINA RESULT:      -8.2      5.567      7.536
REMARK  Name = 
REMARK  4 active torsions:
REMARK  status: ('A' for Active; 'I' for Inactive)
REMARK    1  A    between atoms: C_1  and  C_2
REMARK    2  A    between atoms: C_2  and  C_3
REMARK    3  A    between atoms: N_5  and  C_6
REMARK    4  A    between atoms: C_6  and  C_7
REMARK                            x       y       z     vdW  Elec       q    Type
REMARK                         _______ _______ _______ _____ _____    ______ ____
ROOT
ATOM      1  C   UNL     1       2.424   5.620  18.729  0.00  0.00    +0.000 C 
ATOM      2  O   UNL     1       1.558   5.598  17.848  0.00  0.00    +0.000 OA
ATOM      3  N   UNL     1       2.876   6.834  19.223  0.00  0.00    +0.000 N 
ATOM      4  H   UNL     1       3.336   6.902  20.123  0.00  0.00    +0.000 HD
ENDROOT
BRANCH   1   6
ATOM      5  C   UNL     1       2.333   4.043  20.684  0.00  0.00    +0.000 C 
ATOM      6  C   UNL     1       3.006   4.312  19.329  0.00  0.00    +0.000 C 
ATOM      7  C   UNL     1       2.729   3.096  18.405  0.00  0.00    +0.000 C 
ATOM      8  C   UNL     1       3.398   3.214  17.032  0.00  0.00    +0.000 C 
ATOM      9  C   UNL     1       4.777   3.818  17.074  0.00  0.00    +0.000 A 
ATOM     10  C   UNL     1       5.512   3.909  15.882  0.00  0.00    +0.000 A 
ATOM     11  C   UNL     1       6.783   4.478  15.873  0.00  0.00    +0.000 A 
ATOM     12  C   UNL     1       7.353   4.928  17.060  0.00  0.00    +0.000 A 
ATOM     13  C   UNL     1       6.630   4.853  18.249  0.00  0.00    +0.000 A 
ATOM     14  C   UNL     1       5.321   4.349  18.255  0.00  0.00    +0.000 A 
ATOM     15  C   UNL     1       4.532   4.395  19.540  0.00  0.00    +0.000 C 
ENDBRANCH   1   6
BRANCH   3  16
ATOM     16  C   UNL     1       2.316   8.030  18.648  0.00  0.00    +0.000 C 
BRANCH  16  17
ATOM     17  C   UNL     1       1.367   8.831  19.495  0.00  0.00    +0.000 A 
ATOM     18  N   UNL     1       0.758   9.991  19.318  0.00  0.00    +0.000 NA
ATOM     19  C   UNL     1       0.122  10.274  20.523  0.00  0.00    +0.000 A 
ATOM     20  C   UNL     1      -0.664  11.360  20.942  0.00  0.00    +0.000 A 
ATOM     21  C   UNL     1      -1.096  11.398  22.280  0.00  0.00    +0.000 A 
ATOM     22  F   UNL     1      -1.830  12.440  22.706  0.00  0.00    +0.000 F 
ATOM     23  C   UNL     1      -0.785  10.393  23.191  0.00  0.00    +0.000 A 
ATOM     24  C   UNL     1      -0.057   9.275  22.781  0.00  0.00    +0.000 A 
ATOM     25  C   UNL     1       0.368   9.256  21.449  0.00  0.00    +0.000 A 
ATOM     26  N   UNL     1       1.066   8.327  20.740  0.00  0.00    +0.000 N 
ATOM     27  H   UNL     1       1.375   7.436  21.094  0.00  0.00    +0.000 HD
ENDBRANCH  16  17
ENDBRANCH   3  16
TORSDOF 3
ENDMDL
MODEL 7
REMARK VINA RESULT:      -8.2      5.223      6.809
REMARK  Name = 
REMARK  4 active torsions:
REMARK  status: ('A' for Active; 'I' for Inactive)
REMARK    1  A    between atoms: C_1  and  C_2
REMARK    2  A    between atoms: C_2  and  C_3
REMARK    3  A    between atoms: N_5  and  C_6
REMARK    4  A    between atoms: C_6  and  C_7
REMARK                            x       y       z     vdW  Elec       q    Type
REMARK                         _______ _______ _______ _____ _____    ______ ____
ROOT
ATOM      1  C   UNL     1       4.104   6.316  18.187  0.00  0.00    +0.000 C 
ATOM      2  O   UNL     1       4.690   6.845  17.237  0.00  0.00    +0.000 OA
ATOM      3  N   UNL     1       4.773   5.405  18.990  0.00  0.00    +0.000 N 
ATOM      4  H   UNL     1       4.452   5.187  19.926  0.00  0.00    +0.000 HD
ENDROOT
BRANCH   1   6
ATOM      5  C   UNL     1       2.440   8.188  18.395  0.00  0.00    +0.000 C 
ATOM      6  C   UNL     1       2.633   6.670  18.533  0.00  0.00    +0.000 C 
ATOM      7  C   UNL     1       1.642   5.970  17.566  0.00  0.00    +0.000 C 
ATOM      8  C   UNL     1       1.694   4.440  17.648  0.00  0.00    +0.000 C 
ATOM      9  C   UNL     1       1.870   3.909  19.046  0.00  0.00    +0.000 A 
ATOM     10  C   UNL     1       1.860   2.520  19.249  0.00  0.00    +0.000 A 
ATOM     11  C   UNL     1       2.038   1.987  20.523  0.00  0.00    +0.000 A 
ATOM     12  C   UNL     1       2.190   2.833  21.617  0.00  0.00    +0.000 A 
ATOM     13  C   UNL     1       2.212   4.214  21.428  0.00  0.00    +0.000 A 
ATOM     14  C   UNL     1       2.107   4.758  20.140  0.00  0.00    +0.000 A 
ATOM     15  C   UNL     1       2.254   6.250  19.968  0.00  0.00    +0.000 C 
ENDBRANCH   1   6
BRANCH   3  16
ATOM     16  C   UNL     1       6.137   5.099  18.645  0.00  0.00    +0.000 C 
BRANCH  16  17
ATOM     17  C   UNL     1       6.452   4.866  17.194  0.00  0.00    +0.000 A 
ATOM     18  N   UNL     1       7.331   5.400  16.364  0.00  0.00    +0.000 NA
ATOM     19  C   UNL     1       7.039   4.872  15.110  0.00  0.00    +0.000 A 
ATOM     20  C   UNL     1       7.615   5.072  13.844  0.00  0.00    +0.000 A 
ATOM     21  C   UNL     1       7.022   4.451  12.731  0.00  0.00    +0.000 A 
ATOM     22  F   UNL     1       7.546   4.647  11.509  0.00  0.00    +0.000 F 
ATOM     23  C   UNL     1       5.899   3.636  12.846  0.00  0.00    +0.000 A 
ATOM     24  C   UNL     1       5.346   3.375  14.099  0.00  0.00    +0.000 A 
ATOM     25  C   UNL     1       5.946   4.005  15.194  0.00  0.00    +0.000 A 
ATOM     26  N   UNL     1       5.670   3.951  16.527  0.00  0.00    +0.000 N 
ATOM     27  H   UNL     1       4.957   3.380  16.950  0.00  0.00    +0.000 HD
ENDBRANCH  16  17
ENDBRANCH   3  16
TORSDOF 3
ENDMDL
MODEL 8
REMARK VINA RESULT:      -8.1      4.936      7.314
REMARK  Name = 
REMARK  4 active torsions:
REMARK  status: ('A' for Active; 'I' for Inactive)
REMARK    1  A    between atoms: C_1  and  C_2
REMARK    2  A    between atoms: C_2  and  C_3
REMARK    3  A    between atoms: N_5  and  C_6
REMARK    4  A    between atoms: C_6  and  C_7
REMARK                            x       y       z     vdW  Elec       q    Type
REMARK                         _______ _______ _______ _____ _____    ______ ____
ROOT
ATOM      1  C   UNL     1       2.635   5.112  18.140  0.00  0.00    +0.000 C 
ATOM      2  O   UNL     1       1.491   5.049  17.676  0.00  0.00    +0.000 OA
ATOM      3  N   UNL     1       3.205   6.347  18.406  0.00  0.00    +0.000 N 
ATOM      4  H   UNL     1       3.982   6.446  19.049  0.00  0.00    +0.000 HD
ENDROOT
BRANCH   1   6
ATOM      5  C   UNL     1       2.540   2.841  19.214  0.00  0.00    +0.000 C 
ATOM      6  C   UNL     1       3.448   3.833  18.471  0.00  0.00    +0.000 C 
ATOM      7  C   UNL     1       3.960   3.140  17.179  0.00  0.00    +0.000 C 
ATOM      8  C   UNL     1       4.929   4.009  16.371  0.00  0.00    +0.000 C 
ATOM      9  C   UNL     1       5.886   4.807  17.216  0.00  0.00    +0.000 A 
ATOM     10  C   UNL     1       6.866   5.583  16.579  0.00  0.00    +0.000 A 
ATOM     11  C   UNL     1       7.758   6.352  17.322  0.00  0.00    +0.000 A 
ATOM     12  C   UNL     1       7.710   6.324  18.713  0.00  0.00    +0.000 A 
ATOM     13  C   UNL     1       6.735   5.565  19.358  0.00  0.00    +0.000 A 
ATOM     14  C   UNL     1       5.786   4.847  18.617  0.00  0.00    +0.000 A 
ATOM     15  C   UNL     1       4.678   4.134  19.352  0.00  0.00    +0.000 C 
ENDBRANCH   1   6
BRANCH   3  16
ATOM     16  C   UNL     1       2.424   7.516  18.091  0.00  0.00    +0.000 C 
BRANCH  16  17
ATOM     17  C   UNL     1       1.778   8.249  19.232  0.00  0.00    +0.000 A 
ATOM     18  N   UNL     1       1.520   7.919  20.486  0.00  0.00    +0.000 NA
ATOM     19  C   UNL     1       0.772   8.970  21.009  0.00  0.00    +0.000 A 
ATOM     20  C   UNL     1       0.204   9.185  22.276  0.00  0.00    +0.000 A 
ATOM     21  C   UNL     1      -0.590  10.330  22.470  0.00  0.00    +0.000 A 
ATOM     22  F   UNL     1      -1.160  10.541  23.668  0.00  0.00    +0.000 F 
ATOM     23  C   UNL     1      -0.815  11.258  21.457  0.00  0.00    +0.000 A 
ATOM     24  C   UNL     1      -0.211  11.097  20.210  0.00  0.00    +0.000 A 
ATOM     25  C   UNL     1       0.571   9.951  20.034  0.00  0.00    +0.000 A 
ATOM     26  N   UNL     1       1.296   9.510  18.969  0.00  0.00    +0.000 N 
ATOM     27  H   UNL     1       1.406  10.002  18.097  0.00  0.00    +0.000 HD
ENDBRANCH  16  17
ENDBRANCH   3  16
TORSDOF 3
ENDMDL
MODEL 9
REMARK VINA RESULT:      -8.1      0.788      1.175
REMARK  Name = 
REMARK  4 active torsions:
REMARK  status: ('A' for Active; 'I' for Inactive)
REMARK    1  A    between atoms: C_1  and  C_2
REMARK    2  A    between atoms: C_2  and  C_3
REMARK    3  A    between atoms: N_5  and  C_6
REMARK    4  A    between atoms: C_6  and  C_7
REMARK                            x       y       z     vdW  Elec       q    Type
REMARK                         _______ _______ _______ _____ _____    ______ ____
ROOT
ATOM      1  C   UNL     1       6.272   6.242  17.574  0.00  0.00    +0.000 C 
ATOM      2  O   UNL     1       6.686   5.463  18.440  0.00  0.00    +0.000 OA
ATOM      3  N   UNL     1       6.927   7.445  17.357  0.00  0.00    +0.000 N 
ATOM      4  H   UNL     1       6.824   7.956  16.489  0.00  0.00    +0.000 HD
ENDROOT
BRANCH   1   6
ATOM      5  C   UNL     1       5.300   6.407  15.262  0.00  0.00    +0.000 C 
ATOM      6  C   UNL     1       5.046   5.895  16.688  0.00  0.00    +0.000 C 
ATOM      7  C   UNL     1       4.820   4.361  16.615  0.00  0.00    +0.000 C 
ATOM      8  C   UNL     1       4.497   3.732  17.974  0.00  0.00    +0.000 C 
ATOM      9  C   UNL     1       3.601   4.575  18.842  0.00  0.00    +0.000 A 
ATOM     10  C   UNL     1       3.182   4.065  20.080  0.00  0.00    +0.000 A 
ATOM     11  C   UNL     1       2.369   4.820  20.921  0.00  0.00    +0.000 A 
ATOM     12  C   UNL     1       1.931   6.079  20.521  0.00  0.00    +0.000 A 
ATOM     13  C   UNL     1       2.348   6.601  19.298  0.00  0.00    +0.000 A 
ATOM     14  C   UNL     1       3.225   5.879  18.477  0.00  0.00    +0.000 A 
ATOM     15  C   UNL     1       3.744   6.530  17.218  0.00  0.00    +0.000 C 
ENDBRANCH   1   6
BRANCH   3  16
ATOM     16  C   UNL     1       8.063   7.737  18.194  0.00  0.00    +0.000 C 
BRANCH  16  17
ATOM     17  C   UNL     1       8.461   9.179  18.346  0.00  0.00    +0.000 A 
ATOM     18  N   UNL     1       8.237  10.259  17.617  0.00  0.00    +0.000 NA
ATOM     19  C   UNL     1       8.990  11.273  18.201  0.00  0.00    +0.000 A 
ATOM     20  C   UNL     1       9.167  12.627  17.870  0.00  0.00    +0.000 A 
ATOM     21  C   UNL     1      10.085  13.386  18.617  0.00  0.00    +0.000 A 
ATOM     22  F   UNL     1      10.283  14.677  18.302  0.00  0.00    +0.000 F 
ATOM     23  C   UNL     1      10.808  12.846  19.677  0.00  0.00    +0.000 A 
ATOM     24  C   UNL     1      10.605  11.520  20.062  0.00  0.00    +0.000 A 
ATOM     25  C   UNL     1       9.691  10.780  19.305  0.00  0.00    +0.000 A 
ATOM     26  N   UNL     1       9.259   9.494  19.422  0.00  0.00    +0.000 N 
ATOM     27  H   UNL     1       9.534   8.851  20.147  0.00  0.00    +0.000 HD
ENDBRANCH  16  17
ENDBRANCH   3  16
TORSDOF 3
ENDMDL
