MODEL 1
REMARK VINA RESULT:      -8.7      0.000      0.000
REMARK  Name = 
REMARK  4 active torsions:
REMARK  status: ('A' for Active; 'I' for Inactive)
REMARK    1  A    between atoms: C_1  and  N_2
REMARK    2  A    between atoms: C_6  and  C_8
REMARK    3  A    between atoms: C_8  and  C_9
REMARK    4  A    between atoms: C_13  and  C_14
REMARK                            x       y       z     vdW  Elec       q    Type
REMARK                         _______ _______ _______ _____ _____    ______ ____
ROOT
ATOM      1  C   UNL     1       2.131   4.217  21.485  0.00  0.00    +0.000 C 
ATOM      2  N   UNL     1       3.025   4.511  20.384  0.00  0.00    +0.000 N 
ATOM      3  C   UNL     1       3.619   3.432  19.614  0.00  0.00    +0.000 C 
ATOM      4  C   UNL     1       4.888   3.960  18.946  0.00  0.00    +0.000 C 
ATOM      5  N   UNL     1       4.571   5.055  18.016  0.00  0.00    +0.000 N 
ATOM      6  C   UNL     1       5.096   5.182  16.731  0.00  0.00    +0.000 C 
ATOM      7  O   UNL     1       4.977   6.173  16.003  0.00  0.00    +0.000 OA
ATOM      8  C   UNL     1       3.660   6.039  18.553  0.00  0.00    +0.000 A 
ATOM      9  N   UNL     1       3.529   7.230  17.929  0.00  0.00    +0.000 NA
ATOM     10  C   UNL     1       2.623   8.095  18.407  0.00  0.00    +0.000 A 
ATOM     11  C   UNL     1       2.469   9.329  17.786  0.00  0.00    +0.000 A 
ATOM     12  C   UNL     1       1.505  10.242  18.214  0.00  0.00    +0.000 A 
ATOM     13  C   UNL     1       0.681   9.912  19.281  0.00  0.00    +0.000 A 
ATOM     14  C   UNL     1       0.846   8.684  19.925  0.00  0.00    +0.000 A 
ATOM     15  C   UNL     1       1.814   7.773  19.516  0.00  0.00    +0.000 A 
ATOM     16  N   UNL     1       1.957   6.606  20.172  0.00  0.00    +0.000 NA
ATOM     17  C   UNL     1       2.877   5.726  19.705  0.00  0.00    +0.000 A 
ENDROOT
BRANCH   6  18
ATOM     18  C   UNL     1       5.819   3.975  16.140  0.00  0.00    +0.000 C 
BRANCH  18  19
ATOM     19  C   UNL     1       6.147   4.058  14.669  0.00  0.00    +0.000 A 
ATOM     20  C   UNL     1       7.276   4.744  14.202  0.00  0.00    +0.000 A 
ATOM     21  C   UNL     1       7.504   4.892  12.833  0.00  0.00    +0.000 A 
ATOM     22  C   UNL     1       6.592   4.381  11.910  0.00  0.00    +0.000 A 
ATOM     23  C   UNL     1       5.443   3.711  12.346  0.00  0.00    +0.000 A 
ATOM     24  C   UNL     1       5.231   3.554  13.729  0.00  0.00    +0.000 A 
BRANCH  23  25
ATOM     25  C   UNL     1       4.427   3.178  11.362  0.00  0.00    +0.000 C 
ATOM     26  F   UNL     1       3.221   2.892  11.923  0.00  0.00    +0.000 F 
ATOM     27  F   UNL     1       4.173   4.061  10.357  0.00  0.00    +0.000 F 
ATOM     28  F   UNL     1       4.843   2.033  10.756  0.00  0.00    +0.000 F 
ENDBRANCH  23  25
ENDBRANCH  18  19
ENDBRANCH   6  18
TORSDOF 3
ENDMDL
MODEL 2
REMARK VINA RESULT:      -8.6      4.164      8.015
REMARK  Name = 
REMARK  4 active torsions:
REMARK  status: ('A' for Active; 'I' for Inactive)
REMARK    1  A    between atoms: C_1  and  N_2
REMARK    2  A    between atoms: C_6  and  C_8
REMARK    3  A    between atoms: C_8  and  C_9
REMARK    4  A    between atoms: C_13  and  C_14
REMARK                            x       y       z     vdW  Elec       q    Type
REMARK                         _______ _______ _______ _____ _____    ______ ____
ROOT
ATOM      1  C   UNL     1       3.469   2.533  20.491  0.00  0.00    +0.000 C 
ATOM      2  N   UNL     1       2.982   3.836  20.088  0.00  0.00    +0.000 N 
ATOM      3  C   UNL     1       2.406   4.739  21.069  0.00  0.00    +0.000 C 
ATOM      4  C   UNL     1       1.496   5.726  20.339  0.00  0.00    +0.000 C 
ATOM      5  N   UNL     1       2.268   6.535  19.382  0.00  0.00    +0.000 N 
ATOM      6  C   UNL     1       2.141   7.914  19.226  0.00  0.00    +0.000 C 
ATOM      7  O   UNL     1       2.650   8.582  18.320  0.00  0.00    +0.000 OA
ATOM      8  C   UNL     1       3.184   5.770  18.569  0.00  0.00    +0.000 A 
ATOM      9  N   UNL     1       3.718   6.335  17.464  0.00  0.00    +0.000 NA
ATOM     10  C   UNL     1       4.621   5.628  16.769  0.00  0.00    +0.000 A 
ATOM     11  C   UNL     1       5.185   6.184  15.626  0.00  0.00    +0.000 A 
ATOM     12  C   UNL     1       6.165   5.509  14.899  0.00  0.00    +0.000 A 
ATOM     13  C   UNL     1       6.590   4.258  15.325  0.00  0.00    +0.000 A 
ATOM     14  C   UNL     1       6.011   3.684  16.459  0.00  0.00    +0.000 A 
ATOM     15  C   UNL     1       5.021   4.341  17.182  0.00  0.00    +0.000 A 
ATOM     16  N   UNL     1       4.473   3.749  18.260  0.00  0.00    +0.000 NA
ATOM     17  C   UNL     1       3.550   4.449  18.966  0.00  0.00    +0.000 A 
ENDROOT
BRANCH   6  18
ATOM     18  C   UNL     1       1.371   8.680  20.297  0.00  0.00    +0.000 C 
BRANCH  18  19
ATOM     19  C   UNL     1       0.619   9.900  19.824  0.00  0.00    +0.000 A 
ATOM     20  C   UNL     1       0.918  11.183  20.300  0.00  0.00    +0.000 A 
ATOM     21  C   UNL     1       0.144  12.282  19.924  0.00  0.00    +0.000 A 
ATOM     22  C   UNL     1      -0.959  12.111  19.088  0.00  0.00    +0.000 A 
ATOM     23  C   UNL     1      -1.297  10.837  18.615  0.00  0.00    +0.000 A 
ATOM     24  C   UNL     1      -0.500   9.738  18.989  0.00  0.00    +0.000 A 
BRANCH  23  25
ATOM     25  C   UNL     1      -2.508  10.627  17.735  0.00  0.00    +0.000 C 
ATOM     26  F   UNL     1      -2.248  10.766  16.406  0.00  0.00    +0.000 F 
ATOM     27  F   UNL     1      -3.042   9.384  17.884  0.00  0.00    +0.000 F 
ATOM     28  F   UNL     1      -3.511  11.502  18.016  0.00  0.00    +0.000 F 
ENDBRANCH  23  25
ENDBRANCH  18  19
ENDBRANCH   6  18
TORSDOF 3
ENDMDL
MODEL 3
REMARK VINA RESULT:      -8.5      3.354      7.381
REMARK  Name = 
REMARK  4 active torsions:
REMARK  status: ('A' for Active; 'I' for Inactive)
REMARK    1  A    between atoms: C_1  and  N_2
REMARK    2  A    between atoms: C_6  and  C_8
REMARK    3  A    between atoms: C_8  and  C_9
REMARK    4  A    between atoms: C_13  and  C_14
REMARK                            x       y       z     vdW  Elec       q    Type
REMARK                         _______ _______ _______ _____ _____    ______ ____
ROOT
ATOM      1  C   UNL     1       8.133   6.488  18.189  0.00  0.00    +0.000 C 
ATOM      2  N   UNL     1       6.950   5.654  18.122  0.00  0.00    +0.000 N 
ATOM      3  C   UNL     1       5.879   5.821  19.088  0.00  0.00    +0.000 C 
ATOM      4  C   UNL     1       5.082   4.519  19.151  0.00  0.00    +0.000 C 
ATOM      5  N   UNL     1       4.469   4.218  17.848  0.00  0.00    +0.000 N 
ATOM      6  C   UNL     1       3.154   3.793  17.668  0.00  0.00    +0.000 C 
ATOM      7  O   UNL     1       2.674   3.376  16.609  0.00  0.00    +0.000 OA
ATOM      8  C   UNL     1       5.363   4.380  16.726  0.00  0.00    +0.000 A 
ATOM      9  N   UNL     1       5.025   3.853  15.529  0.00  0.00    +0.000 NA
ATOM     10  C   UNL     1       5.839   4.081  14.488  0.00  0.00    +0.000 A 
ATOM     11  C   UNL     1       5.517   3.548  13.244  0.00  0.00    +0.000 A 
ATOM     12  C   UNL     1       6.305   3.799  12.121  0.00  0.00    +0.000 A 
ATOM     13  C   UNL     1       7.432   4.600  12.244  0.00  0.00    +0.000 A 
ATOM     14  C   UNL     1       7.775   5.118  13.495  0.00  0.00    +0.000 A 
ATOM     15  C   UNL     1       7.005   4.861  14.625  0.00  0.00    +0.000 A 
ATOM     16  N   UNL     1       7.377   5.363  15.818  0.00  0.00    +0.000 NA
ATOM     17  C   UNL     1       6.568   5.130  16.881  0.00  0.00    +0.000 A 
ENDROOT
BRANCH   6  18
ATOM     18  C   UNL     1       2.203   3.916  18.855  0.00  0.00    +0.000 C 
BRANCH  18  19
ATOM     19  C   UNL     1       2.017   5.307  19.410  0.00  0.00    +0.000 A 
ATOM     20  C   UNL     1       1.665   5.529  20.747  0.00  0.00    +0.000 A 
ATOM     21  C   UNL     1       1.401   6.818  21.211  0.00  0.00    +0.000 A 
ATOM     22  C   UNL     1       1.458   7.904  20.338  0.00  0.00    +0.000 A 
ATOM     23  C   UNL     1       1.785   7.712  18.991  0.00  0.00    +0.000 A 
ATOM     24  C   UNL     1       2.063   6.408  18.537  0.00  0.00    +0.000 A 
BRANCH  23  25
ATOM     25  C   UNL     1       1.820   8.872  18.022  0.00  0.00    +0.000 C 
ATOM     26  F   UNL     1       0.618   9.134  17.440  0.00  0.00    +0.000 F 
ATOM     27  F   UNL     1       2.206  10.031  18.621  0.00  0.00    +0.000 F 
ATOM     28  F   UNL     1       2.696   8.668  17.001  0.00  0.00    +0.000 F 
ENDBRANCH  23  25
ENDBRANCH  18  19
ENDBRANCH   6  18
TORSDOF 3
ENDMDL
MODEL 4
REMARK VINA RESULT:      -8.2      4.391      6.691
REMARK  Name = 
REMARK  4 active torsions:
REMARK  status: ('A' for Active; 'I' for Inactive)
REMARK    1  A    between atoms: C_1  and  N_2
REMARK    2  A    between atoms: C_6  and  C_8
REMARK    3  A    between atoms: C_8  and  C_9
REMARK    4  A    between atoms: C_13  and  C_14
REMARK                            x       y       z     vdW  Elec       q    Type
REMARK                         _______ _______ _______ _____ _____    ______ ____
ROOT
ATOM      1  C   UNL     1      -1.421  11.691  22.348  0.00  0.00    +0.000 C 
ATOM      2  N   UNL     1      -0.561  11.031  21.388  0.00  0.00    +0.000 N 
ATOM      3  C   UNL     1       0.435  10.072  21.834  0.00  0.00    +0.000 C 
ATOM      4  C   UNL     1       1.524   9.978  20.766  0.00  0.00    +0.000 C 
ATOM      5  N   UNL     1       0.967   9.489  19.495  0.00  0.00    +0.000 N 
ATOM      6  C   UNL     1       1.557   8.515  18.692  0.00  0.00    +0.000 C 
ATOM      7  O   UNL     1       1.198   8.215  17.549  0.00  0.00    +0.000 OA
ATOM      8  C   UNL     1      -0.269  10.129  19.109  0.00  0.00    +0.000 A 
ATOM      9  N   UNL     1      -0.716   9.996  17.841  0.00  0.00    +0.000 NA
ATOM     10  C   UNL     1      -1.902  10.539  17.531  0.00  0.00    +0.000 A 
ATOM     11  C   UNL     1      -2.386  10.419  16.233  0.00  0.00    +0.000 A 
ATOM     12  C   UNL     1      -3.636  10.923  15.875  0.00  0.00    +0.000 A 
ATOM     13  C   UNL     1      -4.417  11.554  16.834  0.00  0.00    +0.000 A 
ATOM     14  C   UNL     1      -3.927  11.700  18.134  0.00  0.00    +0.000 A 
ATOM     15  C   UNL     1      -2.675  11.215  18.498  0.00  0.00    +0.000 A 
ATOM     16  N   UNL     1      -2.229  11.389  19.756  0.00  0.00    +0.000 NA
ATOM     17  C   UNL     1      -1.025  10.854  20.080  0.00  0.00    +0.000 A 
ENDROOT
BRANCH   6  18
ATOM     18  C   UNL     1       2.695   7.697  19.294  0.00  0.00    +0.000 C 
BRANCH  18  19
ATOM     19  C   UNL     1       2.853   6.293  18.761  0.00  0.00    +0.000 A 
ATOM     20  C   UNL     1       3.678   6.006  17.666  0.00  0.00    +0.000 A 
ATOM     21  C   UNL     1       3.729   4.719  17.129  0.00  0.00    +0.000 A 
ATOM     22  C   UNL     1       2.934   3.704  17.662  0.00  0.00    +0.000 A 
ATOM     23  C   UNL     1       2.083   3.965  18.742  0.00  0.00    +0.000 A 
ATOM     24  C   UNL     1       2.050   5.264  19.285  0.00  0.00    +0.000 A 
BRANCH  23  25
ATOM     25  C   UNL     1       1.190   2.887  19.312  0.00  0.00    +0.000 C 
ATOM     26  F   UNL     1       0.238   2.451  18.444  0.00  0.00    +0.000 F 
ATOM     27  F   UNL     1       1.893   1.781  19.683  0.00  0.00    +0.000 F 
ATOM     28  F   UNL     1       0.526   3.299  20.425  0.00  0.00    +0.000 F 
ENDBRANCH  23  25
ENDBRANCH  18  19
ENDBRANCH   6  18
TORSDOF 3
ENDMDL
MODEL 5
REMARK VINA RESULT:      -8.1      5.613      9.022
REMARK  Name = 
REMARK  4 active torsions:
REMARK  status: ('A' for Active; 'I' for Inactive)
REMARK    1  A    between atoms: C_1  and  N_2
REMARK    2  A    between atoms: C_6  and  C_8
REMARK    3  A    between atoms: C_8  and  C_9
REMARK    4  A    between atoms: C_13  and  C_14
REMARK                            x       y       z     vdW  Elec       q    Type
REMARK                         _______ _______ _______ _____ _____    ______ ____
ROOT
ATOM      1  C   UNL     1       3.474   2.094  20.320  0.00  0.00    +0.000 C 
ATOM      2  N   UNL     1       2.971   3.433  20.092  0.00  0.00    +0.000 N 
ATOM      3  C   UNL     1       2.436   4.214  21.194  0.00  0.00    +0.000 C 
ATOM      4  C   UNL     1       1.498   5.275  20.621  0.00  0.00    +0.000 C 
ATOM      5  N   UNL     1       2.230   6.193  19.733  0.00  0.00    +0.000 N 
ATOM      6  C   UNL     1       2.098   7.580  19.743  0.00  0.00    +0.000 C 
ATOM      7  O   UNL     1       2.569   8.351  18.901  0.00  0.00    +0.000 OA
ATOM      8  C   UNL     1       3.112   5.531  18.800  0.00  0.00    +0.000 A 
ATOM      9  N   UNL     1       3.599   6.222  17.747  0.00  0.00    +0.000 NA
ATOM     10  C   UNL     1       4.473   5.605  16.938  0.00  0.00    +0.000 A 
ATOM     11  C   UNL     1       4.989   6.291  15.845  0.00  0.00    +0.000 A 
ATOM     12  C   UNL     1       5.938   5.709  15.005  0.00  0.00    +0.000 A 
ATOM     13  C   UNL     1       6.379   4.419  15.266  0.00  0.00    +0.000 A 
ATOM     14  C   UNL     1       5.847   3.715  16.348  0.00  0.00    +0.000 A 
ATOM     15  C   UNL     1       4.889   4.280  17.183  0.00  0.00    +0.000 A 
ATOM     16  N   UNL     1       4.385   3.564  18.206  0.00  0.00    +0.000 NA
ATOM     17  C   UNL     1       3.493   4.174  19.026  0.00  0.00    +0.000 A 
ENDROOT
BRANCH   6  18
ATOM     18  C   UNL     1       1.372   8.213  20.927  0.00  0.00    +0.000 C 
BRANCH  18  19
ATOM     19  C   UNL     1       0.428   9.343  20.595  0.00  0.00    +0.000 A 
ATOM     20  C   UNL     1       0.257   9.801  19.282  0.00  0.00    +0.000 A 
ATOM     21  C   UNL     1      -0.545  10.912  19.013  0.00  0.00    +0.000 A 
ATOM     22  C   UNL     1      -1.165  11.599  20.055  0.00  0.00    +0.000 A 
ATOM     23  C   UNL     1      -0.994  11.179  21.380  0.00  0.00    +0.000 A 
ATOM     24  C   UNL     1      -0.196  10.049  21.638  0.00  0.00    +0.000 A 
BRANCH  23  25
ATOM     25  C   UNL     1      -1.632  11.930  22.526  0.00  0.00    +0.000 C 
ATOM     26  F   UNL     1      -2.734  12.643  22.166  0.00  0.00    +0.000 F 
ATOM     27  F   UNL     1      -2.034  11.098  23.526  0.00  0.00    +0.000 F 
ATOM     28  F   UNL     1      -0.779  12.820  23.101  0.00  0.00    +0.000 F 
ENDBRANCH  23  25
ENDBRANCH  18  19
ENDBRANCH   6  18
TORSDOF 3
ENDMDL
MODEL 6
REMARK VINA RESULT:      -8.1      4.833      7.795
REMARK  Name = 
REMARK  4 active torsions:
REMARK  status: ('A' for Active; 'I' for Inactive)
REMARK    1  A    between atoms: C_1  and  N_2
REMARK    2  A    between atoms: C_6  and  C_8
REMARK    3  A    between atoms: C_8  and  C_9
REMARK    4  A    between atoms: C_13  and  C_14
REMARK                            x       y       z     vdW  Elec       q    Type
REMARK                         _______ _______ _______ _____ _____    ______ ____
ROOT
ATOM      1  C   UNL     1      -4.631  11.570  17.034  0.00  0.00    +0.000 C 
ATOM      2  N   UNL     1      -3.367  11.140  17.596  0.00  0.00    +0.000 N 
ATOM      3  C   UNL     1      -2.268  10.761  16.726  0.00  0.00    +0.000 C 
ATOM      4  C   UNL     1      -1.326   9.849  17.511  0.00  0.00    +0.000 C 
ATOM      5  N   UNL     1      -0.759  10.557  18.669  0.00  0.00    +0.000 N 
ATOM      6  C   UNL     1       0.583  10.521  19.043  0.00  0.00    +0.000 C 
ATOM      7  O   UNL     1       1.045  10.966  20.099  0.00  0.00    +0.000 OA
ATOM      8  C   UNL     1      -1.729  11.305  19.435  0.00  0.00    +0.000 A 
ATOM      9  N   UNL     1      -1.403  11.741  20.671  0.00  0.00    +0.000 NA
ATOM     10  C   UNL     1      -2.296  12.494  21.329  0.00  0.00    +0.000 A 
ATOM     11  C   UNL     1      -1.987  12.955  22.604  0.00  0.00    +0.000 A 
ATOM     12  C   UNL     1      -2.862  13.782  23.308  0.00  0.00    +0.000 A 
ATOM     13  C   UNL     1      -4.064  14.158  22.724  0.00  0.00    +0.000 A 
ATOM     14  C   UNL     1      -4.391  13.679  21.453  0.00  0.00    +0.000 A 
ATOM     15  C   UNL     1      -3.533  12.840  20.749  0.00  0.00    +0.000 A 
ATOM     16  N   UNL     1      -3.890  12.384  19.533  0.00  0.00    +0.000 NA
ATOM     17  C   UNL     1      -3.000  11.612  18.862  0.00  0.00    +0.000 A 
ENDROOT
BRANCH   6  18
ATOM     18  C   UNL     1       1.581   9.950  18.040  0.00  0.00    +0.000 C 
BRANCH  18  19
ATOM     19  C   UNL     1       2.116   8.573  18.352  0.00  0.00    +0.000 A 
ATOM     20  C   UNL     1       1.806   7.914  19.549  0.00  0.00    +0.000 A 
ATOM     21  C   UNL     1       2.392   6.686  19.860  0.00  0.00    +0.000 A 
ATOM     22  C   UNL     1       3.320   6.111  18.991  0.00  0.00    +0.000 A 
ATOM     23  C   UNL     1       3.667   6.757  17.798  0.00  0.00    +0.000 A 
ATOM     24  C   UNL     1       3.058   7.988  17.489  0.00  0.00    +0.000 A 
BRANCH  23  25
ATOM     25  C   UNL     1       4.694   6.165  16.860  0.00  0.00    +0.000 C 
ATOM     26  F   UNL     1       5.944   6.093  17.393  0.00  0.00    +0.000 F 
ATOM     27  F   UNL     1       4.374   4.898  16.481  0.00  0.00    +0.000 F 
ATOM     28  F   UNL     1       4.817   6.880  15.709  0.00  0.00    +0.000 F 
ENDBRANCH  23  25
ENDBRANCH  18  19
ENDBRANCH   6  18
TORSDOF 3
ENDMDL
MODEL 7
REMARK VINA RESULT:      -8.1      4.169      5.985
REMARK  Name = 
REMARK  4 active torsions:
REMARK  status: ('A' for Active; 'I' for Inactive)
REMARK    1  A    between atoms: C_1  and  N_2
REMARK    2  A    between atoms: C_6  and  C_8
REMARK    3  A    between atoms: C_8  and  C_9
REMARK    4  A    between atoms: C_13  and  C_14
REMARK                            x       y       z     vdW  Elec       q    Type
REMARK                         _______ _______ _______ _____ _____    ______ ____
ROOT
ATOM      1  C   UNL     1      -0.635  10.014  23.087  0.00  0.00    +0.000 C 
ATOM      2  N   UNL     1       0.193   9.610  21.969  0.00  0.00    +0.000 N 
ATOM      3  C   UNL     1       0.102   8.261  21.438  0.00  0.00    +0.000 C 
ATOM      4  C   UNL     1       1.406   7.943  20.708  0.00  0.00    +0.000 C 
ATOM      5  N   UNL     1       1.607   8.859  19.575  0.00  0.00    +0.000 N 
ATOM      6  C   UNL     1       2.020   8.469  18.302  0.00  0.00    +0.000 C 
ATOM      7  O   UNL     1       2.356   9.234  17.392  0.00  0.00    +0.000 OA
ATOM      8  C   UNL     1       1.359  10.247  19.889  0.00  0.00    +0.000 A 
ATOM      9  N   UNL     1       1.794  11.205  19.042  0.00  0.00    +0.000 NA
ATOM     10  C   UNL     1       1.487  12.480  19.322  0.00  0.00    +0.000 A 
ATOM     11  C   UNL     1       1.924  13.487  18.468  0.00  0.00    +0.000 A 
ATOM     12  C   UNL     1       1.587  14.822  18.689  0.00  0.00    +0.000 A 
ATOM     13  C   UNL     1       0.797  15.154  19.781  0.00  0.00    +0.000 A 
ATOM     14  C   UNL     1       0.375  14.151  20.656  0.00  0.00    +0.000 A 
ATOM     15  C   UNL     1       0.718  12.818  20.454  0.00  0.00    +0.000 A 
ATOM     16  N   UNL     1       0.308  11.880  21.329  0.00  0.00    +0.000 NA
ATOM     17  C   UNL     1       0.622  10.587  21.063  0.00  0.00    +0.000 A 
ENDROOT
BRANCH   6  18
ATOM     18  C   UNL     1       1.989   6.979  17.974  0.00  0.00    +0.000 C 
BRANCH  18  19
ATOM     19  C   UNL     1       3.277   6.227  18.204  0.00  0.00    +0.000 A 
ATOM     20  C   UNL     1       3.320   5.050  18.963  0.00  0.00    +0.000 A 
ATOM     21  C   UNL     1       4.537   4.428  19.245  0.00  0.00    +0.000 A 
ATOM     22  C   UNL     1       5.733   4.987  18.796  0.00  0.00    +0.000 A 
ATOM     23  C   UNL     1       5.724   6.175  18.054  0.00  0.00    +0.000 A 
ATOM     24  C   UNL     1       4.489   6.786  17.763  0.00  0.00    +0.000 A 
BRANCH  23  25
ATOM     25  C   UNL     1       7.011   6.814  17.586  0.00  0.00    +0.000 C 
ATOM     26  F   UNL     1       8.032   6.702  18.478  0.00  0.00    +0.000 F 
ATOM     27  F   UNL     1       7.465   6.265  16.426  0.00  0.00    +0.000 F 
ATOM     28  F   UNL     1       6.870   8.144  17.340  0.00  0.00    +0.000 F 
ENDBRANCH  23  25
ENDBRANCH  18  19
ENDBRANCH   6  18
TORSDOF 3
ENDMDL
MODEL 8
REMARK VINA RESULT:      -8.0      4.283      6.637
REMARK  Name = 
REMARK  4 active torsions:
REMARK  status: ('A' for Active; 'I' for Inactive)
REMARK    1  A    between atoms: C_1  and  N_2
REMARK    2  A    between atoms: C_6  and  C_8
REMARK    3  A    between atoms: C_8  and  C_9
REMARK    4  A    between atoms: C_13  and  C_14
REMARK                            x       y       z     vdW  Elec       q    Type
REMARK                         _______ _______ _______ _____ _____    ______ ____
ROOT
ATOM      1  C   UNL     1      -1.270  11.626  22.329  0.00  0.00    +0.000 C 
ATOM      2  N   UNL     1      -0.446  10.949  21.350  0.00  0.00    +0.000 N 
ATOM      3  C   UNL     1       0.529   9.958  21.771  0.00  0.00    +0.000 C 
ATOM      4  C   UNL     1       1.597   9.842  20.684  0.00  0.00    +0.000 C 
ATOM      5  N   UNL     1       1.005   9.380  19.419  0.00  0.00    +0.000 N 
ATOM      6  C   UNL     1       1.552   8.396  18.598  0.00  0.00    +0.000 C 
ATOM      7  O   UNL     1       1.165   8.116  17.459  0.00  0.00    +0.000 OA
ATOM      8  C   UNL     1      -0.219  10.058  19.060  0.00  0.00    +0.000 A 
ATOM      9  N   UNL     1      -0.691   9.948  17.799  0.00  0.00    +0.000 NA
ATOM     10  C   UNL     1      -1.867  10.527  17.513  0.00  0.00    +0.000 A 
ATOM     11  C   UNL     1      -2.375  10.432  16.223  0.00  0.00    +0.000 A 
ATOM     12  C   UNL     1      -3.616  10.974  15.890  0.00  0.00    +0.000 A 
ATOM     13  C   UNL     1      -4.362  11.620  16.867  0.00  0.00    +0.000 A 
ATOM     14  C   UNL     1      -3.847  11.741  18.159  0.00  0.00    +0.000 A 
ATOM     15  C   UNL     1      -2.603  11.217  18.498  0.00  0.00    +0.000 A 
ATOM     16  N   UNL     1      -2.130  11.368  19.750  0.00  0.00    +0.000 NA
ATOM     17  C   UNL     1      -0.937  10.796  20.048  0.00  0.00    +0.000 A 
ENDROOT
BRANCH   6  18
ATOM     18  C   UNL     1       2.677   7.541  19.174  0.00  0.00    +0.000 C 
BRANCH  18  19
ATOM     19  C   UNL     1       2.340   6.091  19.427  0.00  0.00    +0.000 A 
ATOM     20  C   UNL     1       1.631   5.685  20.565  0.00  0.00    +0.000 A 
ATOM     21  C   UNL     1       1.418   4.331  20.827  0.00  0.00    +0.000 A 
ATOM     22  C   UNL     1       1.937   3.360  19.971  0.00  0.00    +0.000 A 
ATOM     23  C   UNL     1       2.670   3.734  18.838  0.00  0.00    +0.000 A 
ATOM     24  C   UNL     1       2.865   5.104  18.576  0.00  0.00    +0.000 A 
BRANCH  23  25
ATOM     25  C   UNL     1       3.268   2.696  17.916  0.00  0.00    +0.000 C 
ATOM     26  F   UNL     1       4.011   1.756  18.561  0.00  0.00    +0.000 F 
ATOM     27  F   UNL     1       2.315   2.011  17.226  0.00  0.00    +0.000 F 
ATOM     28  F   UNL     1       4.086   3.245  16.978  0.00  0.00    +0.000 F 
ENDBRANCH  23  25
ENDBRANCH  18  19
ENDBRANCH   6  18
TORSDOF 3
ENDMDL
MODEL 9
REMARK VINA RESULT:      -7.9      3.034      5.119
REMARK  Name = 
REMARK  4 active torsions:
REMARK  status: ('A' for Active; 'I' for Inactive)
REMARK    1  A    between atoms: C_1  and  N_2
REMARK    2  A    between atoms: C_6  and  C_8
REMARK    3  A    between atoms: C_8  and  C_9
REMARK    4  A    between atoms: C_13  and  C_14
REMARK                            x       y       z     vdW  Elec       q    Type
REMARK                         _______ _______ _______ _____ _____    ______ ____
ROOT
ATOM      1  C   UNL     1      -0.652   9.886  22.958  0.00  0.00    +0.000 C 
ATOM      2  N   UNL     1       0.213   9.412  21.897  0.00  0.00    +0.000 N 
ATOM      3  C   UNL     1       0.152   8.027  21.464  0.00  0.00    +0.000 C 
ATOM      4  C   UNL     1       1.481   7.673  20.798  0.00  0.00    +0.000 C 
ATOM      5  N   UNL     1       1.706   8.507  19.607  0.00  0.00    +0.000 N 
ATOM      6  C   UNL     1       2.160   8.030  18.378  0.00  0.00    +0.000 C 
ATOM      7  O   UNL     1       2.515   8.731  17.425  0.00  0.00    +0.000 OA
ATOM      8  C   UNL     1       1.434   9.911  19.811  0.00  0.00    +0.000 A 
ATOM      9  N   UNL     1       1.884  10.810  18.909  0.00  0.00    +0.000 NA
ATOM     10  C   UNL     1       1.555  12.098  19.085  0.00  0.00    +0.000 A 
ATOM     11  C   UNL     1       2.006  13.045  18.173  0.00  0.00    +0.000 A 
ATOM     12  C   UNL     1       1.648  14.388  18.286  0.00  0.00    +0.000 A 
ATOM     13  C   UNL     1       0.823  14.789  19.327  0.00  0.00    +0.000 A 
ATOM     14  C   UNL     1       0.385  13.847  20.261  0.00  0.00    +0.000 A 
ATOM     15  C   UNL     1       0.749  12.508  20.167  0.00  0.00    +0.000 A 
ATOM     16  N   UNL     1       0.323  11.631  21.096  0.00  0.00    +0.000 NA
ATOM     17  C   UNL     1       0.658  10.326  20.935  0.00  0.00    +0.000 A 
ENDROOT
BRANCH   6  18
ATOM     18  C   UNL     1       2.155   6.520  18.160  0.00  0.00    +0.000 C 
BRANCH  18  19
ATOM     19  C   UNL     1       3.505   5.846  18.178  0.00  0.00    +0.000 A 
ATOM     20  C   UNL     1       4.236   5.685  19.363  0.00  0.00    +0.000 A 
ATOM     21  C   UNL     1       5.524   5.150  19.339  0.00  0.00    +0.000 A 
ATOM     22  C   UNL     1       6.115   4.794  18.127  0.00  0.00    +0.000 A 
ATOM     23  C   UNL     1       5.419   4.964  16.924  0.00  0.00    +0.000 A 
ATOM     24  C   UNL     1       4.114   5.491  16.961  0.00  0.00    +0.000 A 
BRANCH  23  25
ATOM     25  C   UNL     1       6.054   4.614  15.598  0.00  0.00    +0.000 C 
ATOM     26  F   UNL     1       7.361   4.982  15.504  0.00  0.00    +0.000 F 
ATOM     27  F   UNL     1       6.023   3.276  15.350  0.00  0.00    +0.000 F 
ATOM     28  F   UNL     1       5.420   5.203  14.548  0.00  0.00    +0.000 F 
ENDBRANCH  23  25
ENDBRANCH  18  19
ENDBRANCH   6  18
TORSDOF 3
ENDMDL
