MODEL 1
REMARK VINA RESULT:      -9.1      0.000      0.000
REMARK  Name = 
REMARK  4 active torsions:
REMARK  status: ('A' for Active; 'I' for Inactive)
REMARK    1  A    between atoms: C_2  and  C_4
REMARK    2  A    between atoms: C_7  and  C_8
REMARK    3  A    between atoms: C_14  and  N_15
REMARK    4  A    between atoms: C_16  and  C_18
REMARK                            x       y       z     vdW  Elec       q    Type
REMARK                         _______ _______ _______ _____ _____    ______ ____
ROOT
ATOM      1  C   UNL     1       6.494   5.026  17.612  0.00  0.00    +0.000 C 
ATOM      2  O   UNL     1       7.152   4.071  17.205  0.00  0.00    +0.000 OA
ATOM      3  N   UNL     1       5.119   4.933  17.911  0.00  0.00    +0.000 N 
ATOM      4  C   UNL     1       4.483   3.627  17.757  0.00  0.00    +0.000 C 
ATOM      5  C   UNL     1       3.083   3.759  17.158  0.00  0.00    +0.000 C 
ATOM      6  C   UNL     1       2.230   4.799  17.884  0.00  0.00    +0.000 C 
ATOM      7  C   UNL     1       2.958   6.145  17.998  0.00  0.00    +0.000 C 
ATOM      8  C   UNL     1       4.332   5.903  18.668  0.00  0.00    +0.000 C 
ENDROOT
BRANCH   1  12
ATOM      9  C   UNL     1       8.407   8.782  18.394  0.00  0.00    +0.000 A 
ATOM     10  C   UNL     1       7.611   8.635  17.246  0.00  0.00    +0.000 A 
ATOM     11  C   UNL     1       7.050   7.393  16.933  0.00  0.00    +0.000 A 
ATOM     12  C   UNL     1       7.208   6.307  17.809  0.00  0.00    +0.000 A 
ATOM     13  C   UNL     1       8.082   6.424  18.896  0.00  0.00    +0.000 A 
ATOM     14  C   UNL     1       8.687   7.659  19.187  0.00  0.00    +0.000 A 
BRANCH   9  16
ATOM     15  N   UNL     1       9.346  10.237  20.097  0.00  0.00    +0.000 N 
ATOM     16  C   UNL     1       8.974  10.101  18.785  0.00  0.00    +0.000 C 
ATOM     17  O   UNL     1       9.155  10.998  17.980  0.00  0.00    +0.000 OA
ATOM     18  H   UNL     1       9.836  11.085  20.344  0.00  0.00    +0.000 HD
ATOM     19  H   UNL     1       9.437   9.446  20.728  0.00  0.00    +0.000 HD
ENDBRANCH   9  16
ENDBRANCH   1  12
BRANCH   7  20
ATOM     20  N   UNL     1       2.120   7.109  18.706  0.00  0.00    +0.000 N 
ATOM     21  C   UNL     1       1.980   8.409  18.272  0.00  0.00    +0.000 C 
ATOM     22  O   UNL     1       2.505   8.856  17.258  0.00  0.00    +0.000 OA
ATOM     23  H   UNL     1       1.785   6.871  19.631  0.00  0.00    +0.000 HD
BRANCH  21  24
ATOM     24  C   UNL     1       1.236   9.305  19.192  0.00  0.00    +0.000 A 
ATOM     25  C   UNL     1       0.763  10.508  18.668  0.00  0.00    +0.000 A 
ATOM     26  C   UNL     1       0.227  11.464  19.525  0.00  0.00    +0.000 A 
ATOM     27  C   UNL     1       0.026  11.169  20.880  0.00  0.00    +0.000 A 
ATOM     28  C   UNL     1      -0.499  12.128  21.747  0.00  0.00    +0.000 A 
ATOM     29  C   UNL     1      -1.196  11.724  22.878  0.00  0.00    +0.000 A 
ATOM     30  C   UNL     1      -1.093  10.407  23.303  0.00  0.00    +0.000 A 
ATOM     31  C   UNL     1      -0.253   9.520  22.619  0.00  0.00    +0.000 A 
ATOM     32  C   UNL     1       0.276   9.869  21.360  0.00  0.00    +0.000 A 
ATOM     33  C   UNL     1       0.996   8.977  20.536  0.00  0.00    +0.000 A 
ENDBRANCH  21  24
ENDBRANCH   7  20
TORSDOF 4
ENDMDL
MODEL 2
REMARK VINA RESULT:      -8.9      0.577      1.385
REMARK  Name = 
REMARK  4 active torsions:
REMARK  status: ('A' for Active; 'I' for Inactive)
REMARK    1  A    between atoms: C_2  and  C_4
REMARK    2  A    between atoms: C_7  and  C_8
REMARK    3  A    between atoms: C_14  and  N_15
REMARK    4  A    between atoms: C_16  and  C_18
REMARK                            x       y       z     vdW  Elec       q    Type
REMARK                         _______ _______ _______ _____ _____    ______ ____
ROOT
ATOM      1  C   UNL     1       6.329   4.921  17.515  0.00  0.00    +0.000 C 
ATOM      2  O   UNL     1       6.957   4.011  16.977  0.00  0.00    +0.000 OA
ATOM      3  N   UNL     1       4.995   4.775  17.950  0.00  0.00    +0.000 N 
ATOM      4  C   UNL     1       4.369   3.468  17.774  0.00  0.00    +0.000 C 
ATOM      5  C   UNL     1       2.911   3.605  17.336  0.00  0.00    +0.000 C 
ATOM      6  C   UNL     1       2.123   4.574  18.217  0.00  0.00    +0.000 C 
ATOM      7  C   UNL     1       2.836   5.927  18.346  0.00  0.00    +0.000 C 
ATOM      8  C   UNL     1       4.277   5.674  18.850  0.00  0.00    +0.000 C 
ENDROOT
BRANCH   1  12
ATOM      9  C   UNL     1       8.236   8.672  18.337  0.00  0.00    +0.000 A 
ATOM     10  C   UNL     1       7.405   8.548  17.211  0.00  0.00    +0.000 A 
ATOM     11  C   UNL     1       6.844   7.310  16.882  0.00  0.00    +0.000 A 
ATOM     12  C   UNL     1       7.039   6.202  17.724  0.00  0.00    +0.000 A 
ATOM     13  C   UNL     1       7.946   6.298  18.786  0.00  0.00    +0.000 A 
ATOM     14  C   UNL     1       8.550   7.531  19.090  0.00  0.00    +0.000 A 
BRANCH   9  16
ATOM     15  N   UNL     1       9.417  10.026  19.970  0.00  0.00    +0.000 N 
ATOM     16  C   UNL     1       8.804   9.985  18.745  0.00  0.00    +0.000 C 
ATOM     17  O   UNL     1       8.780  10.961  18.015  0.00  0.00    +0.000 OA
ATOM     18  H   UNL     1       9.905  10.880  20.203  0.00  0.00    +0.000 HD
ATOM     19  H   UNL     1       9.668   9.190  20.488  0.00  0.00    +0.000 HD
ENDBRANCH   9  16
ENDBRANCH   1  12
BRANCH   7  20
ATOM     20  N   UNL     1       2.062   6.821  19.203  0.00  0.00    +0.000 N 
ATOM     21  C   UNL     1       1.939   8.165  18.929  0.00  0.00    +0.000 C 
ATOM     22  O   UNL     1       2.428   8.714  17.948  0.00  0.00    +0.000 OA
ATOM     23  H   UNL     1       1.766   6.485  20.110  0.00  0.00    +0.000 HD
BRANCH  21  24
ATOM     24  C   UNL     1       1.267   8.966  19.983  0.00  0.00    +0.000 A 
ATOM     25  C   UNL     1       1.322   8.478  21.289  0.00  0.00    +0.000 A 
ATOM     26  C   UNL     1       0.555   9.084  22.278  0.00  0.00    +0.000 A 
ATOM     27  C   UNL     1      -0.152  10.263  22.006  0.00  0.00    +0.000 A 
ATOM     28  C   UNL     1      -0.933  10.868  22.991  0.00  0.00    +0.000 A 
ATOM     29  C   UNL     1      -1.168  12.235  22.938  0.00  0.00    +0.000 A 
ATOM     30  C   UNL     1      -0.902  12.924  21.762  0.00  0.00    +0.000 A 
ATOM     31  C   UNL     1      -0.451  12.225  20.635  0.00  0.00    +0.000 A 
ATOM     32  C   UNL     1      -0.012  10.892  20.754  0.00  0.00    +0.000 A 
ATOM     33  C   UNL     1       0.604  10.172  19.707  0.00  0.00    +0.000 A 
ENDBRANCH  21  24
ENDBRANCH   7  20
TORSDOF 4
ENDMDL
MODEL 3
REMARK VINA RESULT:      -8.9      2.596      7.603
REMARK  Name = 
REMARK  4 active torsions:
REMARK  status: ('A' for Active; 'I' for Inactive)
REMARK    1  A    between atoms: C_2  and  C_4
REMARK    2  A    between atoms: C_7  and  C_8
REMARK    3  A    between atoms: C_14  and  N_15
REMARK    4  A    between atoms: C_16  and  C_18
REMARK                            x       y       z     vdW  Elec       q    Type
REMARK                         _______ _______ _______ _____ _____    ______ ____
ROOT
ATOM      1  C   UNL     1       3.323   4.951  17.505  0.00  0.00    +0.000 C 
ATOM      2  O   UNL     1       2.764   3.898  17.201  0.00  0.00    +0.000 OA
ATOM      3  N   UNL     1       4.546   5.359  16.932  0.00  0.00    +0.000 N 
ATOM      4  C   UNL     1       5.133   4.494  15.913  0.00  0.00    +0.000 C 
ATOM      5  C   UNL     1       6.651   4.408  16.065  0.00  0.00    +0.000 C 
ATOM      6  C   UNL     1       7.307   5.784  16.187  0.00  0.00    +0.000 C 
ATOM      7  C   UNL     1       6.645   6.629  17.284  0.00  0.00    +0.000 C 
ATOM      8  C   UNL     1       5.126   6.698  16.997  0.00  0.00    +0.000 C 
ENDROOT
BRANCH   1  12
ATOM      9  C   UNL     1       1.595   7.581  20.416  0.00  0.00    +0.000 A 
ATOM     10  C   UNL     1       1.742   6.216  20.715  0.00  0.00    +0.000 A 
ATOM     11  C   UNL     1       2.225   5.331  19.746  0.00  0.00    +0.000 A 
ATOM     12  C   UNL     1       2.646   5.816  18.497  0.00  0.00    +0.000 A 
ATOM     13  C   UNL     1       2.405   7.153  18.162  0.00  0.00    +0.000 A 
ATOM     14  C   UNL     1       1.874   8.036  19.119  0.00  0.00    +0.000 A 
BRANCH   9  16
ATOM     15  N   UNL     1       2.031   8.862  22.433  0.00  0.00    +0.000 N 
ATOM     16  C   UNL     1       1.135   8.558  21.441  0.00  0.00    +0.000 C 
ATOM     17  O   UNL     1       0.048   9.104  21.379  0.00  0.00    +0.000 OA
ATOM     18  H   UNL     1       1.771   9.607  23.064  0.00  0.00    +0.000 HD
ATOM     19  H   UNL     1       3.015   8.618  22.379  0.00  0.00    +0.000 HD
ENDBRANCH   9  16
ENDBRANCH   1  12
BRANCH   7  20
ATOM     20  N   UNL     1       7.288   7.938  17.363  0.00  0.00    +0.000 N 
ATOM     21  C   UNL     1       8.232   8.228  18.322  0.00  0.00    +0.000 C 
ATOM     22  O   UNL     1       8.635   7.423  19.156  0.00  0.00    +0.000 OA
ATOM     23  H   UNL     1       6.900   8.701  16.822  0.00  0.00    +0.000 HD
BRANCH  21  24
ATOM     24  C   UNL     1       8.663   9.647  18.377  0.00  0.00    +0.000 A 
ATOM     25  C   UNL     1       7.958  10.560  17.592  0.00  0.00    +0.000 A 
ATOM     26  C   UNL     1       8.434  11.860  17.460  0.00  0.00    +0.000 A 
ATOM     27  C   UNL     1       9.525  12.296  18.222  0.00  0.00    +0.000 A 
ATOM     28  C   UNL     1      10.016  13.596  18.085  0.00  0.00    +0.000 A 
ATOM     29  C   UNL     1      10.673  14.198  19.149  0.00  0.00    +0.000 A 
ATOM     30  C   UNL     1      11.114  13.413  20.206  0.00  0.00    +0.000 A 
ATOM     31  C   UNL     1      10.936  12.025  20.161  0.00  0.00    +0.000 A 
ATOM     32  C   UNL     1      10.086  11.448  19.197  0.00  0.00    +0.000 A 
ATOM     33  C   UNL     1       9.727  10.083  19.183  0.00  0.00    +0.000 A 
ENDBRANCH  21  24
ENDBRANCH   7  20
TORSDOF 4
ENDMDL
MODEL 4
REMARK VINA RESULT:      -8.8      3.712      9.575
REMARK  Name = 
REMARK  4 active torsions:
REMARK  status: ('A' for Active; 'I' for Inactive)
REMARK    1  A    between atoms: C_2  and  C_4
REMARK    2  A    between atoms: C_7  and  C_8
REMARK    3  A    between atoms: C_14  and  N_15
REMARK    4  A    between atoms: C_16  and  C_18
REMARK                            x       y       z     vdW  Elec       q    Type
REMARK                         _______ _______ _______ _____ _____    ______ ____
ROOT
ATOM      1  C   UNL     1      -2.481  11.694  19.167  0.00  0.00    +0.000 C 
ATOM      2  O   UNL     1      -3.150  12.631  19.599  0.00  0.00    +0.000 OA
ATOM      3  N   UNL     1      -1.418  11.118  19.893  0.00  0.00    +0.000 N 
ATOM      4  C   UNL     1      -1.144  11.652  21.225  0.00  0.00    +0.000 C 
ATOM      5  C   UNL     1       0.358  11.746  21.487  0.00  0.00    +0.000 C 
ATOM      6  C   UNL     1       1.093  10.446  21.160  0.00  0.00    +0.000 C 
ATOM      7  C   UNL     1       0.766   9.954  19.743  0.00  0.00    +0.000 C 
ATOM      8  C   UNL     1      -0.772   9.839  19.610  0.00  0.00    +0.000 C 
ENDROOT
BRANCH   1  12
ATOM      9  C   UNL     1      -3.344  10.272  15.216  0.00  0.00    +0.000 A 
ATOM     10  C   UNL     1      -4.251  11.132  15.857  0.00  0.00    +0.000 A 
ATOM     11  C   UNL     1      -4.026  11.536  17.177  0.00  0.00    +0.000 A 
ATOM     12  C   UNL     1      -2.847  11.154  17.839  0.00  0.00    +0.000 A 
ATOM     13  C   UNL     1      -1.996  10.218  17.241  0.00  0.00    +0.000 A 
ATOM     14  C   UNL     1      -2.245   9.772  15.931  0.00  0.00    +0.000 A 
BRANCH   9  16
ATOM     15  N   UNL     1      -4.819   9.741  13.361  0.00  0.00    +0.000 N 
ATOM     16  C   UNL     1      -3.525   9.867  13.795  0.00  0.00    +0.000 C 
ATOM     17  O   UNL     1      -2.584   9.709  13.037  0.00  0.00    +0.000 OA
ATOM     18  H   UNL     1      -4.951   9.580  12.372  0.00  0.00    +0.000 HD
ATOM     19  H   UNL     1      -5.612  10.098  13.885  0.00  0.00    +0.000 HD
ENDBRANCH   9  16
ENDBRANCH   1  12
BRANCH   7  20
ATOM     20  N   UNL     1       1.475   8.706  19.471  0.00  0.00    +0.000 N 
ATOM     21  C   UNL     1       2.127   8.486  18.279  0.00  0.00    +0.000 C 
ATOM     22  O   UNL     1       2.201   9.309  17.372  0.00  0.00    +0.000 OA
ATOM     23  H   UNL     1       1.328   7.921  20.093  0.00  0.00    +0.000 HD
BRANCH  21  24
ATOM     24  C   UNL     1       2.651   7.110  18.089  0.00  0.00    +0.000 A 
ATOM     25  C   UNL     1       3.987   6.981  17.709  0.00  0.00    +0.000 A 
ATOM     26  C   UNL     1       4.475   5.732  17.337  0.00  0.00    +0.000 A 
ATOM     27  C   UNL     1       3.679   4.588  17.483  0.00  0.00    +0.000 A 
ATOM     28  C   UNL     1       4.159   3.334  17.099  0.00  0.00    +0.000 A 
ATOM     29  C   UNL     1       3.661   2.192  17.711  0.00  0.00    +0.000 A 
ATOM     30  C   UNL     1       2.490   2.275  18.453  0.00  0.00    +0.000 A 
ATOM     31  C   UNL     1       1.802   3.492  18.530  0.00  0.00    +0.000 A 
ATOM     32  C   UNL     1       2.415   4.684  18.096  0.00  0.00    +0.000 A 
ATOM     33  C   UNL     1       1.858   5.967  18.286  0.00  0.00    +0.000 A 
ENDBRANCH  21  24
ENDBRANCH   7  20
TORSDOF 4
ENDMDL
MODEL 5
REMARK VINA RESULT:      -8.3      3.803      9.768
REMARK  Name = 
REMARK  4 active torsions:
REMARK  status: ('A' for Active; 'I' for Inactive)
REMARK    1  A    between atoms: C_2  and  C_4
REMARK    2  A    between atoms: C_7  and  C_8
REMARK    3  A    between atoms: C_14  and  N_15
REMARK    4  A    between atoms: C_16  and  C_18
REMARK                            x       y       z     vdW  Elec       q    Type
REMARK                         _______ _______ _______ _____ _____    ______ ____
ROOT
ATOM      1  C   UNL     1      -2.702  11.783  19.221  0.00  0.00    +0.000 C 
ATOM      2  O   UNL     1      -3.451  12.649  19.667  0.00  0.00    +0.000 OA
ATOM      3  N   UNL     1      -1.589  11.295  19.937  0.00  0.00    +0.000 N 
ATOM      4  C   UNL     1      -1.361  11.831  21.277  0.00  0.00    +0.000 C 
ATOM      5  C   UNL     1       0.127  12.057  21.539  0.00  0.00    +0.000 C 
ATOM      6  C   UNL     1       0.976  10.834  21.192  0.00  0.00    +0.000 C 
ATOM      7  C   UNL     1       0.691  10.335  19.768  0.00  0.00    +0.000 C 
ATOM      8  C   UNL     1      -0.830  10.084  19.634  0.00  0.00    +0.000 C 
ENDROOT
BRANCH   1  12
ATOM      9  C   UNL     1      -3.428  10.335  15.253  0.00  0.00    +0.000 A 
ATOM     10  C   UNL     1      -4.371  11.173  15.868  0.00  0.00    +0.000 A 
ATOM     11  C   UNL     1      -4.190  11.585  17.192  0.00  0.00    +0.000 A 
ATOM     12  C   UNL     1      -3.020  11.232  17.886  0.00  0.00    +0.000 A 
ATOM     13  C   UNL     1      -2.132  10.316  17.311  0.00  0.00    +0.000 A 
ATOM     14  C   UNL     1      -2.337   9.862  15.996  0.00  0.00    +0.000 A 
BRANCH   9  16
ATOM     15  N   UNL     1      -4.842   9.800  13.352  0.00  0.00    +0.000 N 
ATOM     16  C   UNL     1      -3.563   9.923  13.829  0.00  0.00    +0.000 C 
ATOM     17  O   UNL     1      -2.598   9.757  13.104  0.00  0.00    +0.000 OA
ATOM     18  H   UNL     1      -4.942   9.634  12.360  0.00  0.00    +0.000 HD
ATOM     19  H   UNL     1      -5.651  10.162  13.847  0.00  0.00    +0.000 HD
ENDBRANCH   9  16
ENDBRANCH   1  12
BRANCH   7  20
ATOM     20  N   UNL     1       1.508   9.161  19.476  0.00  0.00    +0.000 N 
ATOM     21  C   UNL     1       2.149   9.003  18.268  0.00  0.00    +0.000 C 
ATOM     22  O   UNL     1       2.121   9.828  17.361  0.00  0.00    +0.000 OA
ATOM     23  H   UNL     1       1.453   8.366  20.100  0.00  0.00    +0.000 HD
BRANCH  21  24
ATOM     24  C   UNL     1       2.797   7.683  18.063  0.00  0.00    +0.000 A 
ATOM     25  C   UNL     1       2.314   6.611  18.814  0.00  0.00    +0.000 A 
ATOM     26  C   UNL     1       3.002   5.402  18.802  0.00  0.00    +0.000 A 
ATOM     27  C   UNL     1       4.084   5.211  17.933  0.00  0.00    +0.000 A 
ATOM     28  C   UNL     1       4.787   4.005  17.926  0.00  0.00    +0.000 A 
ATOM     29  C   UNL     1       5.444   3.600  16.772  0.00  0.00    +0.000 A 
ATOM     30  C   UNL     1       5.666   4.522  15.758  0.00  0.00    +0.000 A 
ATOM     31  C   UNL     1       5.271   5.854  15.933  0.00  0.00    +0.000 A 
ATOM     32  C   UNL     1       4.420   6.209  16.999  0.00  0.00    +0.000 A 
ATOM     33  C   UNL     1       3.849   7.491  17.153  0.00  0.00    +0.000 A 
ENDBRANCH  21  24
ENDBRANCH   7  20
TORSDOF 4
ENDMDL
MODEL 6
REMARK VINA RESULT:      -8.3      0.659      1.660
REMARK  Name = 
REMARK  4 active torsions:
REMARK  status: ('A' for Active; 'I' for Inactive)
REMARK    1  A    between atoms: C_2  and  C_4
REMARK    2  A    between atoms: C_7  and  C_8
REMARK    3  A    between atoms: C_14  and  N_15
REMARK    4  A    between atoms: C_16  and  C_18
REMARK                            x       y       z     vdW  Elec       q    Type
REMARK                         _______ _______ _______ _____ _____    ______ ____
ROOT
ATOM      1  C   UNL     1       6.540   5.393  17.584  0.00  0.00    +0.000 C 
ATOM      2  O   UNL     1       7.224   4.557  16.997  0.00  0.00    +0.000 OA
ATOM      3  N   UNL     1       5.191   5.168  17.929  0.00  0.00    +0.000 N 
ATOM      4  C   UNL     1       4.619   3.866  17.597  0.00  0.00    +0.000 C 
ATOM      5  C   UNL     1       3.182   4.003  17.096  0.00  0.00    +0.000 C 
ATOM      6  C   UNL     1       2.317   4.860  18.020  0.00  0.00    +0.000 C 
ATOM      7  C   UNL     1       2.977   6.214  18.314  0.00  0.00    +0.000 C 
ATOM      8  C   UNL     1       4.398   5.955  18.870  0.00  0.00    +0.000 C 
ENDROOT
BRANCH   1  12
ATOM      9  C   UNL     1       8.569   9.076  18.418  0.00  0.00    +0.000 A 
ATOM     10  C   UNL     1       8.857   7.937  19.186  0.00  0.00    +0.000 A 
ATOM     11  C   UNL     1       8.144   6.751  18.983  0.00  0.00    +0.000 A 
ATOM     12  C   UNL     1       7.194   6.668  17.951  0.00  0.00    +0.000 A 
ATOM     13  C   UNL     1       6.834   7.828  17.255  0.00  0.00    +0.000 A 
ATOM     14  C   UNL     1       7.517   9.034  17.491  0.00  0.00    +0.000 A 
BRANCH   9  16
ATOM     15  N   UNL     1       9.466  10.823  19.847  0.00  0.00    +0.000 N 
ATOM     16  C   UNL     1       9.345  10.336  18.572  0.00  0.00    +0.000 C 
ATOM     17  O   UNL     1       9.895  10.882  17.631  0.00  0.00    +0.000 OA
ATOM     18  H   UNL     1      10.086  11.611  19.975  0.00  0.00    +0.000 HD
ATOM     19  H   UNL     1       9.235  10.274  20.670  0.00  0.00    +0.000 HD
ENDBRANCH   9  16
ENDBRANCH   1  12
BRANCH   7  20
ATOM     20  N   UNL     1       2.130   7.000  19.208  0.00  0.00    +0.000 N 
ATOM     21  C   UNL     1       1.812   8.313  18.942  0.00  0.00    +0.000 C 
ATOM     22  O   UNL     1       2.174   8.918  17.938  0.00  0.00    +0.000 OA
ATOM     23  H   UNL     1       1.926   6.632  20.129  0.00  0.00    +0.000 HD
BRANCH  21  24
ATOM     24  C   UNL     1       1.088   9.021  20.027  0.00  0.00    +0.000 A 
ATOM     25  C   UNL     1       1.295   8.572  21.332  0.00  0.00    +0.000 A 
ATOM     26  C   UNL     1       0.503   9.072  22.361  0.00  0.00    +0.000 A 
ATOM     27  C   UNL     1      -0.391  10.123  22.121  0.00  0.00    +0.000 A 
ATOM     28  C   UNL     1      -1.197  10.620  23.146  0.00  0.00    +0.000 A 
ATOM     29  C   UNL     1      -1.642  11.934  23.095  0.00  0.00    +0.000 A 
ATOM     30  C   UNL     1      -1.555  12.633  21.899  0.00  0.00    +0.000 A 
ATOM     31  C   UNL     1      -1.070  11.991  20.752  0.00  0.00    +0.000 A 
ATOM     32  C   UNL     1      -0.424  10.743  20.857  0.00  0.00    +0.000 A 
ATOM     33  C   UNL     1       0.232  10.106  19.781  0.00  0.00    +0.000 A 
ENDBRANCH  21  24
ENDBRANCH   7  20
TORSDOF 4
ENDMDL
MODEL 7
REMARK VINA RESULT:      -8.3      0.807      1.194
REMARK  Name = 
REMARK  4 active torsions:
REMARK  status: ('A' for Active; 'I' for Inactive)
REMARK    1  A    between atoms: C_2  and  C_4
REMARK    2  A    between atoms: C_7  and  C_8
REMARK    3  A    between atoms: C_14  and  N_15
REMARK    4  A    between atoms: C_16  and  C_18
REMARK                            x       y       z     vdW  Elec       q    Type
REMARK                         _______ _______ _______ _____ _____    ______ ____
ROOT
ATOM      1  C   UNL     1       6.865   5.515  17.705  0.00  0.00    +0.000 C 
ATOM      2  O   UNL     1       7.647   4.652  17.309  0.00  0.00    +0.000 OA
ATOM      3  N   UNL     1       5.493   5.264  17.912  0.00  0.00    +0.000 N 
ATOM      4  C   UNL     1       5.014   3.905  17.674  0.00  0.00    +0.000 C 
ATOM      5  C   UNL     1       3.646   3.909  16.993  0.00  0.00    +0.000 C 
ATOM      6  C   UNL     1       2.643   4.823  17.696  0.00  0.00    +0.000 C 
ATOM      7  C   UNL     1       3.212   6.234  17.900  0.00  0.00    +0.000 C 
ATOM      8  C   UNL     1       4.561   6.113  18.649  0.00  0.00    +0.000 C 
ENDROOT
BRANCH   1  12
ATOM      9  C   UNL     1       8.619   9.380  18.304  0.00  0.00    +0.000 A 
ATOM     10  C   UNL     1       8.961   8.323  19.163  0.00  0.00    +0.000 A 
ATOM     11  C   UNL     1       8.335   7.080  19.033  0.00  0.00    +0.000 A 
ATOM     12  C   UNL     1       7.422   6.856  17.989  0.00  0.00    +0.000 A 
ATOM     13  C   UNL     1       7.005   7.933  17.199  0.00  0.00    +0.000 A 
ATOM     14  C   UNL     1       7.599   9.198  17.359  0.00  0.00    +0.000 A 
BRANCH   9  16
ATOM     15  N   UNL     1       8.665  11.751  17.778  0.00  0.00    +0.000 N 
ATOM     16  C   UNL     1       9.305  10.699  18.380  0.00  0.00    +0.000 C 
ATOM     17  O   UNL     1      10.349  10.856  18.988  0.00  0.00    +0.000 OA
ATOM     18  H   UNL     1       9.065  12.667  17.925  0.00  0.00    +0.000 HD
ATOM     19  H   UNL     1       7.695  11.708  17.482  0.00  0.00    +0.000 HD
ENDBRANCH   9  16
ENDBRANCH   1  12
BRANCH   7  20
ATOM     20  N   UNL     1       2.233   7.074  18.585  0.00  0.00    +0.000 N 
ATOM     21  C   UNL     1       1.981   8.368  18.189  0.00  0.00    +0.000 C 
ATOM     22  O   UNL     1       2.517   8.910  17.228  0.00  0.00    +0.000 OA
ATOM     23  H   UNL     1       1.869   6.763  19.477  0.00  0.00    +0.000 HD
BRANCH  21  24
ATOM     24  C   UNL     1       1.089   9.142  19.088  0.00  0.00    +0.000 A 
ATOM     25  C   UNL     1       0.159   9.992  18.489  0.00  0.00    +0.000 A 
ATOM     26  C   UNL     1      -0.569  10.876  19.279  0.00  0.00    +0.000 A 
ATOM     27  C   UNL     1      -0.481  10.815  20.676  0.00  0.00    +0.000 A 
ATOM     28  C   UNL     1      -1.199  11.708  21.474  0.00  0.00    +0.000 A 
ATOM     29  C   UNL     1      -1.559  11.340  22.763  0.00  0.00    +0.000 A 
ATOM     30  C   UNL     1      -0.944  10.244  23.353  0.00  0.00    +0.000 A 
ATOM     31  C   UNL     1       0.063   9.558  22.663  0.00  0.00    +0.000 A 
ATOM     32  C   UNL     1       0.271   9.795  21.289  0.00  0.00    +0.000 A 
ATOM     33  C   UNL     1       1.151   9.037  20.487  0.00  0.00    +0.000 A 
ENDBRANCH  21  24
ENDBRANCH   7  20
TORSDOF 4
ENDMDL
MODEL 8
REMARK VINA RESULT:      -8.0      3.776      9.647
REMARK  Name = 
REMARK  4 active torsions:
REMARK  status: ('A' for Active; 'I' for Inactive)
REMARK    1  A    between atoms: C_2  and  C_4
REMARK    2  A    between atoms: C_7  and  C_8
REMARK    3  A    between atoms: C_14  and  N_15
REMARK    4  A    between atoms: C_16  and  C_18
REMARK                            x       y       z     vdW  Elec       q    Type
REMARK                         _______ _______ _______ _____ _____    ______ ____
ROOT
ATOM      1  C   UNL     1      -2.599  11.835  19.186  0.00  0.00    +0.000 C 
ATOM      2  O   UNL     1      -3.325  12.713  19.647  0.00  0.00    +0.000 OA
ATOM      3  N   UNL     1      -1.592  11.201  19.944  0.00  0.00    +0.000 N 
ATOM      4  C   UNL     1      -1.453  11.598  21.343  0.00  0.00    +0.000 C 
ATOM      5  C   UNL     1       0.017  11.685  21.752  0.00  0.00    +0.000 C 
ATOM      6  C   UNL     1       0.809  10.436  21.363  0.00  0.00    +0.000 C 
ATOM      7  C   UNL     1       0.622  10.090  19.880  0.00  0.00    +0.000 C 
ATOM      8  C   UNL     1      -0.893   9.968  19.593  0.00  0.00    +0.000 C 
ENDROOT
BRANCH   1  12
ATOM      9  C   UNL     1      -3.430  10.474  15.207  0.00  0.00    +0.000 A 
ATOM     10  C   UNL     1      -2.146  10.296  15.746  0.00  0.00    +0.000 A 
ATOM     11  C   UNL     1      -1.835  10.809  17.009  0.00  0.00    +0.000 A 
ATOM     12  C   UNL     1      -2.830  11.431  17.782  0.00  0.00    +0.000 A 
ATOM     13  C   UNL     1      -4.077  11.700  17.206  0.00  0.00    +0.000 A 
ATOM     14  C   UNL     1      -4.378  11.227  15.917  0.00  0.00    +0.000 A 
BRANCH   9  16
ATOM     15  N   UNL     1      -2.788   9.690  13.000  0.00  0.00    +0.000 N 
ATOM     16  C   UNL     1      -3.810   9.894  13.890  0.00  0.00    +0.000 C 
ATOM     17  O   UNL     1      -4.953   9.563  13.628  0.00  0.00    +0.000 OA
ATOM     18  H   UNL     1      -3.019   9.191  12.152  0.00  0.00    +0.000 HD
ATOM     19  H   UNL     1      -1.809   9.723  13.269  0.00  0.00    +0.000 HD
ENDBRANCH   9  16
ENDBRANCH   1  12
BRANCH   7  20
ATOM     20  N   UNL     1       1.382   8.887  19.548  0.00  0.00    +0.000 N 
ATOM     21  C   UNL     1       2.024   8.742  18.338  0.00  0.00    +0.000 C 
ATOM     22  O   UNL     1       2.045   9.602  17.464  0.00  0.00    +0.000 OA
ATOM     23  H   UNL     1       1.281   8.072  20.140  0.00  0.00    +0.000 HD
BRANCH  21  24
ATOM     24  C   UNL     1       2.605   7.399  18.087  0.00  0.00    +0.000 A 
ATOM     25  C   UNL     1       3.908   7.349  17.592  0.00  0.00    +0.000 A 
ATOM     26  C   UNL     1       4.431   6.134  17.164  0.00  0.00    +0.000 A 
ATOM     27  C   UNL     1       3.717   4.945  17.363  0.00  0.00    +0.000 A 
ATOM     28  C   UNL     1       4.231   3.724  16.924  0.00  0.00    +0.000 A 
ATOM     29  C   UNL     1       3.853   2.550  17.562  0.00  0.00    +0.000 A 
ATOM     30  C   UNL     1       2.748   2.560  18.402  0.00  0.00    +0.000 A 
ATOM     31  C   UNL     1       2.002   3.736  18.554  0.00  0.00    +0.000 A 
ATOM     32  C   UNL     1       2.507   4.964  18.084  0.00  0.00    +0.000 A 
ATOM     33  C   UNL     1       1.898   6.212  18.337  0.00  0.00    +0.000 A 
ENDBRANCH  21  24
ENDBRANCH   7  20
TORSDOF 4
ENDMDL
MODEL 9
REMARK VINA RESULT:      -8.0      3.720      7.999
REMARK  Name = 
REMARK  4 active torsions:
REMARK  status: ('A' for Active; 'I' for Inactive)
REMARK    1  A    between atoms: C_2  and  C_4
REMARK    2  A    between atoms: C_7  and  C_8
REMARK    3  A    between atoms: C_14  and  N_15
REMARK    4  A    between atoms: C_16  and  C_18
REMARK                            x       y       z     vdW  Elec       q    Type
REMARK                         _______ _______ _______ _____ _____    ______ ____
ROOT
ATOM      1  C   UNL     1       1.138  14.253  19.423  0.00  0.00    +0.000 C 
ATOM      2  O   UNL     1       0.495  15.237  19.784  0.00  0.00    +0.000 OA
ATOM      3  N   UNL     1       0.556  12.978  19.267  0.00  0.00    +0.000 N 
ATOM      4  C   UNL     1      -0.878  12.856  19.514  0.00  0.00    +0.000 C 
ATOM      5  C   UNL     1      -1.207  11.556  20.247  0.00  0.00    +0.000 C 
ATOM      6  C   UNL     1      -0.570  10.334  19.587  0.00  0.00    +0.000 C 
ATOM      7  C   UNL     1       0.936  10.531  19.370  0.00  0.00    +0.000 C 
ATOM      8  C   UNL     1       1.148  11.839  18.570  0.00  0.00    +0.000 C 
ENDROOT
BRANCH   1  12
ATOM      9  C   UNL     1       5.282  15.065  18.684  0.00  0.00    +0.000 A 
ATOM     10  C   UNL     1       4.376  15.048  17.611  0.00  0.00    +0.000 A 
ATOM     11  C   UNL     1       3.038  14.702  17.823  0.00  0.00    +0.000 A 
ATOM     12  C   UNL     1       2.573  14.453  19.125  0.00  0.00    +0.000 A 
ATOM     13  C   UNL     1       3.492  14.369  20.178  0.00  0.00    +0.000 A 
ATOM     14  C   UNL     1       4.848  14.670  19.958  0.00  0.00    +0.000 A 
BRANCH   9  16
ATOM     15  N   UNL     1       7.376  14.889  17.468  0.00  0.00    +0.000 N 
ATOM     16  C   UNL     1       6.699  15.481  18.502  0.00  0.00    +0.000 C 
ATOM     17  O   UNL     1       7.220  16.341  19.192  0.00  0.00    +0.000 OA
ATOM     18  H   UNL     1       8.299  15.250  17.266  0.00  0.00    +0.000 HD
ATOM     19  H   UNL     1       6.911  14.363  16.735  0.00  0.00    +0.000 HD
ENDBRANCH   9  16
ENDBRANCH   1  12
BRANCH   7  20
ATOM     20  N   UNL     1       1.508   9.350  18.727  0.00  0.00    +0.000 N 
ATOM     21  C   UNL     1       1.844   8.223  19.442  0.00  0.00    +0.000 C 
ATOM     22  O   UNL     1       1.668   8.097  20.650  0.00  0.00    +0.000 OA
ATOM     23  H   UNL     1       1.833   9.429  17.771  0.00  0.00    +0.000 HD
BRANCH  21  24
ATOM     24  C   UNL     1       2.568   7.179  18.674  0.00  0.00    +0.000 A 
ATOM     25  C   UNL     1       2.177   5.854  18.870  0.00  0.00    +0.000 A 
ATOM     26  C   UNL     1       2.940   4.828  18.324  0.00  0.00    +0.000 A 
ATOM     27  C   UNL     1       4.006   5.118  17.462  0.00  0.00    +0.000 A 
ATOM     28  C   UNL     1       4.784   4.093  16.922  0.00  0.00    +0.000 A 
ATOM     29  C   UNL     1       5.432   4.288  15.710  0.00  0.00    +0.000 A 
ATOM     30  C   UNL     1       5.565   5.577  15.212  0.00  0.00    +0.000 A 
ATOM     31  C   UNL     1       5.090   6.662  15.959  0.00  0.00    +0.000 A 
ATOM     32  C   UNL     1       4.250   6.448  17.070  0.00  0.00    +0.000 A 
ATOM     33  C   UNL     1       3.603   7.485  17.776  0.00  0.00    +0.000 A 
ENDBRANCH  21  24
ENDBRANCH   7  20
TORSDOF 4
ENDMDL
