MODEL 1
REMARK VINA RESULT:      -8.4      0.000      0.000
REMARK  Name = 
REMARK  8 active torsions:
REMARK  status: ('A' for Active; 'I' for Inactive)
REMARK    1  A    between atoms: C_2  and  C_3
REMARK    2  A    between atoms: C_3  and  C_4
REMARK    3  A    between atoms: N_10  and  C_11
REMARK    4  A    between atoms: C_11  and  C_12
REMARK    5  A    between atoms: N_14  and  C_15
REMARK    6  A    between atoms: C_19  and  C_20
REMARK    7  A    between atoms: C_20  and  O_21
REMARK    8  A    between atoms: O_21  and  C_22
REMARK                            x       y       z     vdW  Elec       q    Type
REMARK                         _______ _______ _______ _____ _____    ______ ____
ROOT
ATOM      1  C   UNL     1       1.779   7.447  20.329  0.00  0.00    +0.000 C 
ATOM      2  O   UNL     1       2.254   7.538  19.197  0.00  0.00    +0.000 OA
ATOM      3  N   UNL     1       1.616   6.271  21.044  0.00  0.00    +0.000 N 
ATOM      4  H   UNL     1       1.049   6.308  21.882  0.00  0.00    +0.000 HD
ENDROOT
BRANCH   3   5
ATOM      5  C   UNL     1       1.876   4.996  20.507  0.00  0.00    +0.000 A 
ATOM      6  C   UNL     1       0.826   4.075  20.462  0.00  0.00    +0.000 A 
ATOM      7  C   UNL     1       1.014   2.826  19.869  0.00  0.00    +0.000 A 
ATOM      8  C   UNL     1       2.266   2.471  19.367  0.00  0.00    +0.000 A 
ATOM      9  C   UNL     1       3.338   3.370  19.438  0.00  0.00    +0.000 A 
ATOM     10  C   UNL     1       3.133   4.634  20.012  0.00  0.00    +0.000 A 
BRANCH   9  11
ATOM     11  C   UNL     1       4.701   2.974  18.925  0.00  0.00    +0.000 C 
BRANCH  11  12
ATOM     12  O   UNL     1       5.692   3.865  19.440  0.00  0.00    +0.000 OA
BRANCH  12  13
ATOM     13  C   UNL     1       6.160   4.842  18.609  0.00  0.00    +0.000 A 
ATOM     14  C   UNL     1       5.745   5.036  17.290  0.00  0.00    +0.000 A 
ATOM     15  C   UNL     1       6.363   6.014  16.502  0.00  0.00    +0.000 A 
ATOM     16  C   UNL     1       7.359   6.829  17.047  0.00  0.00    +0.000 A 
ATOM     17  C   UNL     1       7.747   6.641  18.366  0.00  0.00    +0.000 A 
ATOM     18  F   UNL     1       8.664   7.455  18.904  0.00  0.00    +0.000 F 
ATOM     19  C   UNL     1       7.179   5.636  19.137  0.00  0.00    +0.000 A 
ENDBRANCH  12  13
ENDBRANCH  11  12
ENDBRANCH   9  11
ENDBRANCH   3   5
BRANCH   1  20
ATOM     20  C   UNL     1       1.330   8.703  21.082  0.00  0.00    +0.000 C 
BRANCH  20  23
ATOM     21  O   UNL     1       0.866  11.389  21.633  0.00  0.00    +0.000 OA
ATOM     22  C   UNL     1       0.587  10.972  20.515  0.00  0.00    +0.000 C 
ATOM     23  N   UNL     1       0.718   9.643  20.162  0.00  0.00    +0.000 N 
ATOM     24  H   UNL     1       0.776   9.419  19.174  0.00  0.00    +0.000 HD
BRANCH  22  25
ATOM     25  C   UNL     1       0.120  11.877  19.384  0.00  0.00    +0.000 C 
BRANCH  25  26
ATOM     26  C   UNL     1      -1.355  11.774  19.074  0.00  0.00    +0.000 A 
ATOM     27  C   UNL     1      -2.316  12.347  19.909  0.00  0.00    +0.000 A 
ATOM     28  C   UNL     1      -3.657  12.281  19.570  0.00  0.00    +0.000 A 
ATOM     29  C   UNL     1      -4.073  11.612  18.424  0.00  0.00    +0.000 A 
ATOM     30  C   UNL     1      -3.137  10.996  17.609  0.00  0.00    +0.000 A 
ATOM     31  C   UNL     1      -1.782  11.083  17.929  0.00  0.00    +0.000 A 
ENDBRANCH  25  26
ENDBRANCH  22  25
ENDBRANCH  20  23
ENDBRANCH   1  20
TORSDOF 8
ENDMDL
MODEL 2
REMARK VINA RESULT:      -8.3      2.363      3.069
REMARK  Name = 
REMARK  8 active torsions:
REMARK  status: ('A' for Active; 'I' for Inactive)
REMARK    1  A    between atoms: C_2  and  C_3
REMARK    2  A    between atoms: C_3  and  C_4
REMARK    3  A    between atoms: N_10  and  C_11
REMARK    4  A    between atoms: C_11  and  C_12
REMARK    5  A    between atoms: N_14  and  C_15
REMARK    6  A    between atoms: C_19  and  C_20
REMARK    7  A    between atoms: C_20  and  O_21
REMARK    8  A    between atoms: O_21  and  C_22
REMARK                            x       y       z     vdW  Elec       q    Type
REMARK                         _______ _______ _______ _____ _____    ______ ____
ROOT
ATOM      1  C   UNL     1       1.511   8.096  20.629  0.00  0.00    +0.000 C 
ATOM      2  O   UNL     1       1.415   8.410  19.443  0.00  0.00    +0.000 OA
ATOM      3  N   UNL     1       1.797   6.826  21.107  0.00  0.00    +0.000 N 
ATOM      4  H   UNL     1       1.668   6.659  22.098  0.00  0.00    +0.000 HD
ENDROOT
BRANCH   3   5
ATOM      5  C   UNL     1       1.904   5.693  20.279  0.00  0.00    +0.000 A 
ATOM      6  C   UNL     1       1.003   4.644  20.480  0.00  0.00    +0.000 A 
ATOM      7  C   UNL     1       1.019   3.534  19.636  0.00  0.00    +0.000 A 
ATOM      8  C   UNL     1       1.972   3.441  18.621  0.00  0.00    +0.000 A 
ATOM      9  C   UNL     1       2.905   4.468  18.431  0.00  0.00    +0.000 A 
ATOM     10  C   UNL     1       2.864   5.593  19.269  0.00  0.00    +0.000 A 
BRANCH   9  11
ATOM     11  C   UNL     1       3.957   4.352  17.354  0.00  0.00    +0.000 C 
BRANCH  11  12
ATOM     12  O   UNL     1       4.517   5.638  17.082  0.00  0.00    +0.000 OA
BRANCH  12  13
ATOM     13  C   UNL     1       5.740   5.922  17.617  0.00  0.00    +0.000 A 
ATOM     14  C   UNL     1       6.398   5.142  18.570  0.00  0.00    +0.000 A 
ATOM     15  C   UNL     1       7.610   5.581  19.115  0.00  0.00    +0.000 A 
ATOM     16  C   UNL     1       8.187   6.775  18.673  0.00  0.00    +0.000 A 
ATOM     17  C   UNL     1       7.535   7.531  17.710  0.00  0.00    +0.000 A 
ATOM     18  F   UNL     1       8.112   8.648  17.247  0.00  0.00    +0.000 F 
ATOM     19  C   UNL     1       6.305   7.131  17.204  0.00  0.00    +0.000 A 
ENDBRANCH  12  13
ENDBRANCH  11  12
ENDBRANCH   9  11
ENDBRANCH   3   5
BRANCH   1  20
ATOM     20  C   UNL     1       1.335   9.150  21.726  0.00  0.00    +0.000 C 
BRANCH  20  23
ATOM     21  O   UNL     1      -0.414  10.419  23.477  0.00  0.00    +0.000 OA
ATOM     22  C   UNL     1      -0.456  10.729  22.292  0.00  0.00    +0.000 C 
ATOM     23  N   UNL     1       0.323  10.112  21.333  0.00  0.00    +0.000 N 
ATOM     24  H   UNL     1       0.477  10.605  20.458  0.00  0.00    +0.000 HD
BRANCH  22  25
ATOM     25  C   UNL     1      -1.327  11.858  21.760  0.00  0.00    +0.000 C 
BRANCH  25  26
ATOM     26  C   UNL     1      -1.922  12.742  22.829  0.00  0.00    +0.000 A 
ATOM     27  C   UNL     1      -3.195  12.499  23.350  0.00  0.00    +0.000 A 
ATOM     28  C   UNL     1      -3.692  13.297  24.368  0.00  0.00    +0.000 A 
ATOM     29  C   UNL     1      -2.959  14.372  24.856  0.00  0.00    +0.000 A 
ATOM     30  C   UNL     1      -1.714  14.658  24.317  0.00  0.00    +0.000 A 
ATOM     31  C   UNL     1      -1.195  13.841  23.312  0.00  0.00    +0.000 A 
ENDBRANCH  25  26
ENDBRANCH  22  25
ENDBRANCH  20  23
ENDBRANCH   1  20
TORSDOF 8
ENDMDL
MODEL 3
REMARK VINA RESULT:      -8.3      4.206      9.368
REMARK  Name = 
REMARK  8 active torsions:
REMARK  status: ('A' for Active; 'I' for Inactive)
REMARK    1  A    between atoms: C_2  and  C_3
REMARK    2  A    between atoms: C_3  and  C_4
REMARK    3  A    between atoms: N_10  and  C_11
REMARK    4  A    between atoms: C_11  and  C_12
REMARK    5  A    between atoms: N_14  and  C_15
REMARK    6  A    between atoms: C_19  and  C_20
REMARK    7  A    between atoms: C_20  and  O_21
REMARK    8  A    between atoms: O_21  and  C_22
REMARK                            x       y       z     vdW  Elec       q    Type
REMARK                         _______ _______ _______ _____ _____    ______ ____
ROOT
ATOM      1  C   UNL     1       5.769   5.737  17.206  0.00  0.00    +0.000 C 
ATOM      2  O   UNL     1       5.120   6.716  16.839  0.00  0.00    +0.000 OA
ATOM      3  N   UNL     1       5.269   4.659  17.919  0.00  0.00    +0.000 N 
ATOM      4  H   UNL     1       5.938   4.010  18.317  0.00  0.00    +0.000 HD
ENDROOT
BRANCH   3   5
ATOM      5  C   UNL     1       3.954   4.605  18.420  0.00  0.00    +0.000 A 
ATOM      6  C   UNL     1       3.142   3.540  18.021  0.00  0.00    +0.000 A 
ATOM      7  C   UNL     1       1.859   3.401  18.550  0.00  0.00    +0.000 A 
ATOM      8  C   UNL     1       1.361   4.354  19.439  0.00  0.00    +0.000 A 
ATOM      9  C   UNL     1       2.151   5.446  19.820  0.00  0.00    +0.000 A 
ATOM     10  C   UNL     1       3.450   5.564  19.303  0.00  0.00    +0.000 A 
BRANCH   9  11
ATOM     11  C   UNL     1       1.601   6.496  20.756  0.00  0.00    +0.000 C 
BRANCH  11  12
ATOM     12  O   UNL     1       1.840   7.798  20.220  0.00  0.00    +0.000 OA
BRANCH  12  13
ATOM     13  C   UNL     1       1.037   8.816  20.646  0.00  0.00    +0.000 A 
ATOM     14  C   UNL     1       0.577   9.862  19.843  0.00  0.00    +0.000 A 
ATOM     15  C   UNL     1      -0.167  10.901  20.411  0.00  0.00    +0.000 A 
ATOM     16  C   UNL     1      -0.494  10.870  21.769  0.00  0.00    +0.000 A 
ATOM     17  C   UNL     1      -0.051   9.815  22.553  0.00  0.00    +0.000 A 
ATOM     18  F   UNL     1      -0.407   9.757  23.842  0.00  0.00    +0.000 F 
ATOM     19  C   UNL     1       0.736   8.808  22.009  0.00  0.00    +0.000 A 
ENDBRANCH  12  13
ENDBRANCH  11  12
ENDBRANCH   9  11
ENDBRANCH   3   5
BRANCH   1  20
ATOM     20  C   UNL     1       7.256   5.621  16.859  0.00  0.00    +0.000 C 
BRANCH  20  23
ATOM     21  O   UNL     1       6.291   3.639  15.163  0.00  0.00    +0.000 OA
ATOM     22  C   UNL     1       6.861   4.602  14.663  0.00  0.00    +0.000 C 
ATOM     23  N   UNL     1       7.432   5.605  15.420  0.00  0.00    +0.000 N 
ATOM     24  H   UNL     1       7.601   6.500  14.971  0.00  0.00    +0.000 HD
BRANCH  22  25
ATOM     25  C   UNL     1       6.953   4.822  13.160  0.00  0.00    +0.000 C 
BRANCH  25  26
ATOM     26  C   UNL     1       6.564   3.622  12.330  0.00  0.00    +0.000 A 
ATOM     27  C   UNL     1       7.528   2.764  11.796  0.00  0.00    +0.000 A 
ATOM     28  C   UNL     1       7.138   1.642  11.083  0.00  0.00    +0.000 A 
ATOM     29  C   UNL     1       5.794   1.374  10.849  0.00  0.00    +0.000 A 
ATOM     30  C   UNL     1       4.826   2.241  11.331  0.00  0.00    +0.000 A 
ATOM     31  C   UNL     1       5.210   3.357  12.074  0.00  0.00    +0.000 A 
ENDBRANCH  25  26
ENDBRANCH  22  25
ENDBRANCH  20  23
ENDBRANCH   1  20
TORSDOF 8
ENDMDL
MODEL 4
REMARK VINA RESULT:      -8.2      2.909      4.496
REMARK  Name = 
REMARK  8 active torsions:
REMARK  status: ('A' for Active; 'I' for Inactive)
REMARK    1  A    between atoms: C_2  and  C_3
REMARK    2  A    between atoms: C_3  and  C_4
REMARK    3  A    between atoms: N_10  and  C_11
REMARK    4  A    between atoms: C_11  and  C_12
REMARK    5  A    between atoms: N_14  and  C_15
REMARK    6  A    between atoms: C_19  and  C_20
REMARK    7  A    between atoms: C_20  and  O_21
REMARK    8  A    between atoms: O_21  and  C_22
REMARK                            x       y       z     vdW  Elec       q    Type
REMARK                         _______ _______ _______ _____ _____    ______ ____
ROOT
ATOM      1  C   UNL     1       0.628  11.593  21.088  0.00  0.00    +0.000 C 
ATOM      2  O   UNL     1       1.780  12.008  20.962  0.00  0.00    +0.000 OA
ATOM      3  N   UNL     1       0.162  10.361  20.656  0.00  0.00    +0.000 N 
ATOM      4  H   UNL     1      -0.840  10.215  20.655  0.00  0.00    +0.000 HD
ENDROOT
BRANCH   3   5
ATOM      5  C   UNL     1       0.938   9.460  19.903  0.00  0.00    +0.000 A 
ATOM      6  C   UNL     1       1.246   9.802  18.583  0.00  0.00    +0.000 A 
ATOM      7  C   UNL     1       2.076   8.979  17.821  0.00  0.00    +0.000 A 
ATOM      8  C   UNL     1       2.557   7.784  18.356  0.00  0.00    +0.000 A 
ATOM      9  C   UNL     1       2.226   7.410  19.665  0.00  0.00    +0.000 A 
ATOM     10  C   UNL     1       1.413   8.257  20.433  0.00  0.00    +0.000 A 
BRANCH   9  11
ATOM     11  C   UNL     1       2.720   6.101  20.232  0.00  0.00    +0.000 C 
BRANCH  11  12
ATOM     12  O   UNL     1       1.830   5.046  19.865  0.00  0.00    +0.000 OA
BRANCH  12  13
ATOM     13  C   UNL     1       2.363   3.955  19.241  0.00  0.00    +0.000 A 
ATOM     14  C   UNL     1       1.954   3.464  18.000  0.00  0.00    +0.000 A 
ATOM     15  C   UNL     1       2.512   2.282  17.501  0.00  0.00    +0.000 A 
ATOM     16  C   UNL     1       3.512   1.619  18.218  0.00  0.00    +0.000 A 
ATOM     17  C   UNL     1       3.926   2.128  19.440  0.00  0.00    +0.000 A 
ATOM     18  F   UNL     1       4.920   1.524  20.103  0.00  0.00    +0.000 F 
ATOM     19  C   UNL     1       3.338   3.270  19.969  0.00  0.00    +0.000 A 
ENDBRANCH  12  13
ENDBRANCH  11  12
ENDBRANCH   9  11
ENDBRANCH   3   5
BRANCH   1  20
ATOM     20  C   UNL     1      -0.428  12.448  21.795  0.00  0.00    +0.000 C 
BRANCH  20  23
ATOM     21  O   UNL     1      -1.514  13.739  19.584  0.00  0.00    +0.000 OA
ATOM     22  C   UNL     1      -2.161  12.835  20.102  0.00  0.00    +0.000 C 
ATOM     23  N   UNL     1      -1.740  12.176  21.241  0.00  0.00    +0.000 N 
ATOM     24  H   UNL     1      -2.137  11.262  21.433  0.00  0.00    +0.000 HD
BRANCH  22  25
ATOM     25  C   UNL     1      -3.464  12.307  19.519  0.00  0.00    +0.000 C 
BRANCH  25  26
ATOM     26  C   UNL     1      -3.297  11.497  18.255  0.00  0.00    +0.000 A 
ATOM     27  C   UNL     1      -4.178  11.634  17.181  0.00  0.00    +0.000 A 
ATOM     28  C   UNL     1      -3.968  10.915  16.016  0.00  0.00    +0.000 A 
ATOM     29  C   UNL     1      -2.911  10.018  15.909  0.00  0.00    +0.000 A 
ATOM     30  C   UNL     1      -2.055   9.834  16.983  0.00  0.00    +0.000 A 
ATOM     31  C   UNL     1      -2.243  10.575  18.150  0.00  0.00    +0.000 A 
ENDBRANCH  25  26
ENDBRANCH  22  25
ENDBRANCH  20  23
ENDBRANCH   1  20
TORSDOF 8
ENDMDL
MODEL 5
REMARK VINA RESULT:      -8.2      5.147      8.365
REMARK  Name = 
REMARK  8 active torsions:
REMARK  status: ('A' for Active; 'I' for Inactive)
REMARK    1  A    between atoms: C_2  and  C_3
REMARK    2  A    between atoms: C_3  and  C_4
REMARK    3  A    between atoms: N_10  and  C_11
REMARK    4  A    between atoms: C_11  and  C_12
REMARK    5  A    between atoms: N_14  and  C_15
REMARK    6  A    between atoms: C_19  and  C_20
REMARK    7  A    between atoms: C_20  and  O_21
REMARK    8  A    between atoms: O_21  and  C_22
REMARK                            x       y       z     vdW  Elec       q    Type
REMARK                         _______ _______ _______ _____ _____    ______ ____
ROOT
ATOM      1  C   UNL     1       7.539   7.789  17.616  0.00  0.00    +0.000 C 
ATOM      2  O   UNL     1       8.191   6.994  18.293  0.00  0.00    +0.000 OA
ATOM      3  N   UNL     1       6.580   7.450  16.674  0.00  0.00    +0.000 N 
ATOM      4  H   UNL     1       6.249   8.183  16.059  0.00  0.00    +0.000 HD
ENDROOT
BRANCH   3   5
ATOM      5  C   UNL     1       6.310   6.124  16.286  0.00  0.00    +0.000 A 
ATOM      6  C   UNL     1       6.920   5.641  15.125  0.00  0.00    +0.000 A 
ATOM      7  C   UNL     1       6.745   4.311  14.742  0.00  0.00    +0.000 A 
ATOM      8  C   UNL     1       5.916   3.472  15.487  0.00  0.00    +0.000 A 
ATOM      9  C   UNL     1       5.268   3.952  16.633  0.00  0.00    +0.000 A 
ATOM     10  C   UNL     1       5.472   5.284  17.025  0.00  0.00    +0.000 A 
BRANCH   9  11
ATOM     11  C   UNL     1       4.345   3.054  17.420  0.00  0.00    +0.000 C 
BRANCH  11  12
ATOM     12  O   UNL     1       4.385   3.410  18.803  0.00  0.00    +0.000 OA
BRANCH  12  13
ATOM     13  C   UNL     1       3.196   3.648  19.430  0.00  0.00    +0.000 A 
ATOM     14  C   UNL     1       2.177   2.708  19.598  0.00  0.00    +0.000 A 
ATOM     15  C   UNL     1       0.963   3.093  20.177  0.00  0.00    +0.000 A 
ATOM     16  C   UNL     1       0.785   4.402  20.633  0.00  0.00    +0.000 A 
ATOM     17  C   UNL     1       1.813   5.322  20.482  0.00  0.00    +0.000 A 
ATOM     18  F   UNL     1       1.664   6.561  20.965  0.00  0.00    +0.000 F 
ATOM     19  C   UNL     1       3.001   4.963  19.857  0.00  0.00    +0.000 A 
ENDBRANCH  12  13
ENDBRANCH  11  12
ENDBRANCH   9  11
ENDBRANCH   3   5
BRANCH   1  20
ATOM     20  C   UNL     1       7.733   9.297  17.794  0.00  0.00    +0.000 C 
BRANCH  20  23
ATOM     21  O   UNL     1       9.289  11.602  17.853  0.00  0.00    +0.000 OA
ATOM     22  C   UNL     1       9.470  10.758  18.724  0.00  0.00    +0.000 C 
ATOM     23  N   UNL     1       8.796   9.553  18.746  0.00  0.00    +0.000 N 
ATOM     24  H   UNL     1       8.751   9.052  19.628  0.00  0.00    +0.000 HD
BRANCH  22  25
ATOM     25  C   UNL     1      10.413  10.970  19.900  0.00  0.00    +0.000 C 
BRANCH  25  26
ATOM     26  C   UNL     1      10.093  12.180  20.745  0.00  0.00    +0.000 A 
ATOM     27  C   UNL     1      10.741  13.400  20.544  0.00  0.00    +0.000 A 
ATOM     28  C   UNL     1      10.387  14.506  21.300  0.00  0.00    +0.000 A 
ATOM     29  C   UNL     1       9.421  14.412  22.296  0.00  0.00    +0.000 A 
ATOM     30  C   UNL     1       8.802  13.197  22.541  0.00  0.00    +0.000 A 
ATOM     31  C   UNL     1       9.133  12.086  21.764  0.00  0.00    +0.000 A 
ENDBRANCH  25  26
ENDBRANCH  22  25
ENDBRANCH  20  23
ENDBRANCH   1  20
TORSDOF 8
ENDMDL
MODEL 6
REMARK VINA RESULT:      -8.1      1.269      1.867
REMARK  Name = 
REMARK  8 active torsions:
REMARK  status: ('A' for Active; 'I' for Inactive)
REMARK    1  A    between atoms: C_2  and  C_3
REMARK    2  A    between atoms: C_3  and  C_4
REMARK    3  A    between atoms: N_10  and  C_11
REMARK    4  A    between atoms: C_11  and  C_12
REMARK    5  A    between atoms: N_14  and  C_15
REMARK    6  A    between atoms: C_19  and  C_20
REMARK    7  A    between atoms: C_20  and  O_21
REMARK    8  A    between atoms: O_21  and  C_22
REMARK                            x       y       z     vdW  Elec       q    Type
REMARK                         _______ _______ _______ _____ _____    ______ ____
ROOT
ATOM      1  C   UNL     1       1.550   8.193  20.664  0.00  0.00    +0.000 C 
ATOM      2  O   UNL     1       1.526   8.629  19.513  0.00  0.00    +0.000 OA
ATOM      3  N   UNL     1       1.864   6.893  21.028  0.00  0.00    +0.000 N 
ATOM      4  H   UNL     1       1.671   6.616  21.983  0.00  0.00    +0.000 HD
ENDROOT
BRANCH   3   5
ATOM      5  C   UNL     1       2.088   5.861  20.098  0.00  0.00    +0.000 A 
ATOM      6  C   UNL     1       1.416   4.650  20.285  0.00  0.00    +0.000 A 
ATOM      7  C   UNL     1       1.545   3.624  19.349  0.00  0.00    +0.000 A 
ATOM      8  C   UNL     1       2.389   3.783  18.249  0.00  0.00    +0.000 A 
ATOM      9  C   UNL     1       3.098   4.978  18.068  0.00  0.00    +0.000 A 
ATOM     10  C   UNL     1       2.941   6.014  19.001  0.00  0.00    +0.000 A 
BRANCH   9  11
ATOM     11  C   UNL     1       4.036   5.138  16.896  0.00  0.00    +0.000 C 
BRANCH  11  12
ATOM     12  O   UNL     1       5.277   4.488  17.176  0.00  0.00    +0.000 OA
BRANCH  12  13
ATOM     13  C   UNL     1       6.279   5.240  17.718  0.00  0.00    +0.000 A 
ATOM     14  C   UNL     1       7.052   4.869  18.820  0.00  0.00    +0.000 A 
ATOM     15  C   UNL     1       7.991   5.763  19.345  0.00  0.00    +0.000 A 
ATOM     16  C   UNL     1       8.192   7.007  18.741  0.00  0.00    +0.000 A 
ATOM     17  C   UNL     1       7.434   7.356  17.633  0.00  0.00    +0.000 A 
ATOM     18  F   UNL     1       7.662   8.525  17.021  0.00  0.00    +0.000 F 
ATOM     19  C   UNL     1       6.460   6.497  17.139  0.00  0.00    +0.000 A 
ENDBRANCH  12  13
ENDBRANCH  11  12
ENDBRANCH   9  11
ENDBRANCH   3   5
BRANCH   1  20
ATOM     20  C   UNL     1       1.241   9.116  21.846  0.00  0.00    +0.000 C 
BRANCH  20  23
ATOM     21  O   UNL     1       1.346  11.827  21.233  0.00  0.00    +0.000 OA
ATOM     22  C   UNL     1       0.256  11.267  21.196  0.00  0.00    +0.000 C 
ATOM     23  N   UNL     1       0.088   9.941  21.546  0.00  0.00    +0.000 N 
ATOM     24  H   UNL     1      -0.740   9.463  21.204  0.00  0.00    +0.000 HD
BRANCH  22  25
ATOM     25  C   UNL     1      -1.013  11.953  20.711  0.00  0.00    +0.000 C 
BRANCH  25  26
ATOM     26  C   UNL     1      -1.561  11.404  19.415  0.00  0.00    +0.000 A 
ATOM     27  C   UNL     1      -0.797  10.568  18.598  0.00  0.00    +0.000 A 
ATOM     28  C   UNL     1      -1.346  10.039  17.441  0.00  0.00    +0.000 A 
ATOM     29  C   UNL     1      -2.641  10.363  17.051  0.00  0.00    +0.000 A 
ATOM     30  C   UNL     1      -3.396  11.229  17.825  0.00  0.00    +0.000 A 
ATOM     31  C   UNL     1      -2.860  11.743  19.006  0.00  0.00    +0.000 A 
ENDBRANCH  25  26
ENDBRANCH  22  25
ENDBRANCH  20  23
ENDBRANCH   1  20
TORSDOF 8
ENDMDL
MODEL 7
REMARK VINA RESULT:      -8.1      1.768      2.279
REMARK  Name = 
REMARK  8 active torsions:
REMARK  status: ('A' for Active; 'I' for Inactive)
REMARK    1  A    between atoms: C_2  and  C_3
REMARK    2  A    between atoms: C_3  and  C_4
REMARK    3  A    between atoms: N_10  and  C_11
REMARK    4  A    between atoms: C_11  and  C_12
REMARK    5  A    between atoms: N_14  and  C_15
REMARK    6  A    between atoms: C_19  and  C_20
REMARK    7  A    between atoms: C_20  and  O_21
REMARK    8  A    between atoms: O_21  and  C_22
REMARK                            x       y       z     vdW  Elec       q    Type
REMARK                         _______ _______ _______ _____ _____    ______ ____
ROOT
ATOM      1  C   UNL     1       1.971   8.232  18.732  0.00  0.00    +0.000 C 
ATOM      2  O   UNL     1       1.876   8.376  17.514  0.00  0.00    +0.000 OA
ATOM      3  N   UNL     1       2.317   7.057  19.381  0.00  0.00    +0.000 N 
ATOM      4  H   UNL     1       2.182   7.019  20.385  0.00  0.00    +0.000 HD
ENDROOT
BRANCH   3   5
ATOM      5  C   UNL     1       2.496   5.829  18.717  0.00  0.00    +0.000 A 
ATOM      6  C   UNL     1       1.526   4.838  18.893  0.00  0.00    +0.000 A 
ATOM      7  C   UNL     1       1.619   3.634  18.195  0.00  0.00    +0.000 A 
ATOM      8  C   UNL     1       2.710   3.392  17.360  0.00  0.00    +0.000 A 
ATOM      9  C   UNL     1       3.709   4.361  17.202  0.00  0.00    +0.000 A 
ATOM     10  C   UNL     1       3.593   5.580  17.888  0.00  0.00    +0.000 A 
BRANCH   9  11
ATOM     11  C   UNL     1       4.906   4.086  16.325  0.00  0.00    +0.000 C 
BRANCH  11  12
ATOM     12  O   UNL     1       5.594   5.306  16.046  0.00  0.00    +0.000 OA
BRANCH  12  13
ATOM     13  C   UNL     1       6.510   5.741  16.960  0.00  0.00    +0.000 A 
ATOM     14  C   UNL     1       7.104   4.942  17.939  0.00  0.00    +0.000 A 
ATOM     15  C   UNL     1       7.963   5.518  18.882  0.00  0.00    +0.000 A 
ATOM     16  C   UNL     1       8.265   6.881  18.817  0.00  0.00    +0.000 A 
ATOM     17  C   UNL     1       7.687   7.661  17.826  0.00  0.00    +0.000 A 
ATOM     18  F   UNL     1       8.016   8.955  17.730  0.00  0.00    +0.000 F 
ATOM     19  C   UNL     1       6.790   7.108  16.920  0.00  0.00    +0.000 A 
ENDBRANCH  12  13
ENDBRANCH  11  12
ENDBRANCH   9  11
ENDBRANCH   3   5
BRANCH   1  20
ATOM     20  C   UNL     1       1.723   9.415  19.673  0.00  0.00    +0.000 C 
BRANCH  20  23
ATOM     21  O   UNL     1       0.362  11.652  18.735  0.00  0.00    +0.000 OA
ATOM     22  C   UNL     1      -0.289  10.760  19.268  0.00  0.00    +0.000 C 
ATOM     23  N   UNL     1       0.299   9.640  19.824  0.00  0.00    +0.000 N 
ATOM     24  H   UNL     1      -0.282   8.819  19.960  0.00  0.00    +0.000 HD
BRANCH  22  25
ATOM     25  C   UNL     1      -1.809  10.764  19.328  0.00  0.00    +0.000 C 
BRANCH  25  26
ATOM     26  C   UNL     1      -2.485  10.697  17.979  0.00  0.00    +0.000 A 
ATOM     27  C   UNL     1      -3.629  11.447  17.700  0.00  0.00    +0.000 A 
ATOM     28  C   UNL     1      -4.195  11.404  16.436  0.00  0.00    +0.000 A 
ATOM     29  C   UNL     1      -3.667  10.587  15.443  0.00  0.00    +0.000 A 
ATOM     30  C   UNL     1      -2.560   9.799  15.717  0.00  0.00    +0.000 A 
ATOM     31  C   UNL     1      -1.968   9.860  16.978  0.00  0.00    +0.000 A 
ENDBRANCH  25  26
ENDBRANCH  22  25
ENDBRANCH  20  23
ENDBRANCH   1  20
TORSDOF 8
ENDMDL
MODEL 8
REMARK VINA RESULT:      -8.0      1.393      1.839
REMARK  Name = 
REMARK  8 active torsions:
REMARK  status: ('A' for Active; 'I' for Inactive)
REMARK    1  A    between atoms: C_2  and  C_3
REMARK    2  A    between atoms: C_3  and  C_4
REMARK    3  A    between atoms: N_10  and  C_11
REMARK    4  A    between atoms: C_11  and  C_12
REMARK    5  A    between atoms: N_14  and  C_15
REMARK    6  A    between atoms: C_19  and  C_20
REMARK    7  A    between atoms: C_20  and  O_21
REMARK    8  A    between atoms: O_21  and  C_22
REMARK                            x       y       z     vdW  Elec       q    Type
REMARK                         _______ _______ _______ _____ _____    ______ ____
ROOT
ATOM      1  C   UNL     1       0.843   8.170  21.278  0.00  0.00    +0.000 C 
ATOM      2  O   UNL     1      -0.281   7.681  21.168  0.00  0.00    +0.000 OA
ATOM      3  N   UNL     1       2.017   7.609  20.799  0.00  0.00    +0.000 N 
ATOM      4  H   UNL     1       2.891   8.015  21.111  0.00  0.00    +0.000 HD
ENDROOT
BRANCH   3   5
ATOM      5  C   UNL     1       2.082   6.329  20.216  0.00  0.00    +0.000 A 
ATOM      6  C   UNL     1       1.461   5.270  20.883  0.00  0.00    +0.000 A 
ATOM      7  C   UNL     1       1.432   4.000  20.307  0.00  0.00    +0.000 A 
ATOM      8  C   UNL     1       2.070   3.770  19.088  0.00  0.00    +0.000 A 
ATOM      9  C   UNL     1       2.728   4.814  18.425  0.00  0.00    +0.000 A 
ATOM     10  C   UNL     1       2.729   6.094  18.999  0.00  0.00    +0.000 A 
BRANCH   9  11
ATOM     11  C   UNL     1       3.447   4.558  17.123  0.00  0.00    +0.000 C 
BRANCH  11  12
ATOM     12  O   UNL     1       4.790   4.146  17.381  0.00  0.00    +0.000 OA
BRANCH  12  13
ATOM     13  C   UNL     1       5.718   5.121  17.608  0.00  0.00    +0.000 A 
ATOM     14  C   UNL     1       5.801   6.326  16.908  0.00  0.00    +0.000 A 
ATOM     15  C   UNL     1       6.853   7.211  17.166  0.00  0.00    +0.000 A 
ATOM     16  C   UNL     1       7.794   6.915  18.155  0.00  0.00    +0.000 A 
ATOM     17  C   UNL     1       7.690   5.724  18.860  0.00  0.00    +0.000 A 
ATOM     18  F   UNL     1       8.560   5.463  19.844  0.00  0.00    +0.000 F 
ATOM     19  C   UNL     1       6.681   4.814  18.572  0.00  0.00    +0.000 A 
ENDBRANCH  12  13
ENDBRANCH  11  12
ENDBRANCH   9  11
ENDBRANCH   3   5
BRANCH   1  20
ATOM     20  C   UNL     1       1.035   9.523  21.970  0.00  0.00    +0.000 C 
BRANCH  20  23
ATOM     21  O   UNL     1       1.160  11.302  19.836  0.00  0.00    +0.000 OA
ATOM     22  C   UNL     1       0.115  11.235  20.473  0.00  0.00    +0.000 C 
ATOM     23  N   UNL     1      -0.028  10.432  21.588  0.00  0.00    +0.000 N 
ATOM     24  H   UNL     1      -0.969  10.181  21.873  0.00  0.00    +0.000 HD
BRANCH  22  25
ATOM     25  C   UNL     1      -1.149  11.983  20.074  0.00  0.00    +0.000 C 
BRANCH  25  26
ATOM     26  C   UNL     1      -1.887  11.379  18.903  0.00  0.00    +0.000 A 
ATOM     27  C   UNL     1      -1.281  10.439  18.068  0.00  0.00    +0.000 A 
ATOM     28  C   UNL     1      -2.001   9.863  17.034  0.00  0.00    +0.000 A 
ATOM     29  C   UNL     1      -3.316  10.240  16.782  0.00  0.00    +0.000 A 
ATOM     30  C   UNL     1      -3.918  11.207  17.571  0.00  0.00    +0.000 A 
ATOM     31  C   UNL     1      -3.207  11.770  18.632  0.00  0.00    +0.000 A 
ENDBRANCH  25  26
ENDBRANCH  22  25
ENDBRANCH  20  23
ENDBRANCH   1  20
TORSDOF 8
ENDMDL
MODEL 9
REMARK VINA RESULT:      -8.0      1.709      2.238
REMARK  Name = 
REMARK  8 active torsions:
REMARK  status: ('A' for Active; 'I' for Inactive)
REMARK    1  A    between atoms: C_2  and  C_3
REMARK    2  A    between atoms: C_3  and  C_4
REMARK    3  A    between atoms: N_10  and  C_11
REMARK    4  A    between atoms: C_11  and  C_12
REMARK    5  A    between atoms: N_14  and  C_15
REMARK    6  A    between atoms: C_19  and  C_20
REMARK    7  A    between atoms: C_20  and  O_21
REMARK    8  A    between atoms: O_21  and  C_22
REMARK                            x       y       z     vdW  Elec       q    Type
REMARK                         _______ _______ _______ _____ _____    ______ ____
ROOT
ATOM      1  C   UNL     1       1.785   6.869  20.241  0.00  0.00    +0.000 C 
ATOM      2  O   UNL     1       1.541   5.916  20.979  0.00  0.00    +0.000 OA
ATOM      3  N   UNL     1       2.199   6.782  18.921  0.00  0.00    +0.000 N 
ATOM      4  H   UNL     1       2.541   7.628  18.481  0.00  0.00    +0.000 HD
ENDROOT
BRANCH   3   5
ATOM      5  C   UNL     1       2.505   5.565  18.284  0.00  0.00    +0.000 A 
ATOM      6  C   UNL     1       1.510   4.586  18.222  0.00  0.00    +0.000 A 
ATOM      7  C   UNL     1       1.740   3.394  17.535  0.00  0.00    +0.000 A 
ATOM      8  C   UNL     1       2.984   3.152  16.952  0.00  0.00    +0.000 A 
ATOM      9  C   UNL     1       4.004   4.109  17.037  0.00  0.00    +0.000 A 
ATOM     10  C   UNL     1       3.754   5.316  17.708  0.00  0.00    +0.000 A 
BRANCH   9  11
ATOM     11  C   UNL     1       5.360   3.833  16.435  0.00  0.00    +0.000 C 
BRANCH  11  12
ATOM     12  O   UNL     1       5.988   5.063  16.070  0.00  0.00    +0.000 OA
BRANCH  12  13
ATOM     13  C   UNL     1       6.789   5.666  16.996  0.00  0.00    +0.000 A 
ATOM     14  C   UNL     1       7.381   5.020  18.084  0.00  0.00    +0.000 A 
ATOM     15  C   UNL     1       8.109   5.760  19.022  0.00  0.00    +0.000 A 
ATOM     16  C   UNL     1       8.286   7.135  18.847  0.00  0.00    +0.000 A 
ATOM     17  C   UNL     1       7.712   7.763  17.751  0.00  0.00    +0.000 A 
ATOM     18  F   UNL     1       7.925   9.070  17.554  0.00  0.00    +0.000 F 
ATOM     19  C   UNL     1       6.941   7.045  16.845  0.00  0.00    +0.000 A 
ENDBRANCH  12  13
ENDBRANCH  11  12
ENDBRANCH   9  11
ENDBRANCH   3   5
BRANCH   1  20
ATOM     20  C   UNL     1       1.617   8.304  20.749  0.00  0.00    +0.000 C 
BRANCH  20  23
ATOM     21  O   UNL     1      -0.319  10.272  21.084  0.00  0.00    +0.000 OA
ATOM     22  C   UNL     1       0.186  10.140  19.974  0.00  0.00    +0.000 C 
ATOM     23  N   UNL     1       1.107   9.151  19.689  0.00  0.00    +0.000 N 
ATOM     24  H   UNL     1       1.707   9.282  18.880  0.00  0.00    +0.000 HD
BRANCH  22  25
ATOM     25  C   UNL     1      -0.105  11.079  18.813  0.00  0.00    +0.000 C 
BRANCH  25  26
ATOM     26  C   UNL     1      -1.473  10.904  18.198  0.00  0.00    +0.000 A 
ATOM     27  C   UNL     1      -1.704   9.958  17.197  0.00  0.00    +0.000 A 
ATOM     28  C   UNL     1      -2.982   9.785  16.690  0.00  0.00    +0.000 A 
ATOM     29  C   UNL     1      -4.040  10.571  17.131  0.00  0.00    +0.000 A 
ATOM     30  C   UNL     1      -3.818  11.548  18.089  0.00  0.00    +0.000 A 
ATOM     31  C   UNL     1      -2.540  11.708  18.625  0.00  0.00    +0.000 A 
ENDBRANCH  25  26
ENDBRANCH  22  25
ENDBRANCH  20  23
ENDBRANCH   1  20
TORSDOF 8
ENDMDL
