MODEL 1
REMARK VINA RESULT:      -8.5      0.000      0.000
REMARK  Name = 
REMARK  3 active torsions:
REMARK  status: ('A' for Active; 'I' for Inactive)
REMARK    1  A    between atoms: C_2  and  C_4
REMARK    2  A    between atoms: C_13  and  C_15
REMARK    3  A    between atoms: C_15  and  C_16
REMARK                            x       y       z     vdW  Elec       q    Type
REMARK                         _______ _______ _______ _____ _____    ______ ____
ROOT
ATOM      1  C   UNL     1       5.320   4.435  18.880  0.00  0.00    +0.000 C 
ATOM      2  C   UNL     1       4.888   3.018  19.270  0.00  0.00    +0.000 C 
ATOM      3  C   UNL     1       3.414   3.074  19.051  0.00  0.00    +0.000 A 
ATOM      4  C   UNL     1       2.500   2.084  19.395  0.00  0.00    +0.000 A 
ATOM      5  C   UNL     1       1.155   2.282  19.099  0.00  0.00    +0.000 A 
ATOM      6  C   UNL     1       0.746   3.454  18.458  0.00  0.00    +0.000 A 
ATOM      7  C   UNL     1       1.678   4.449  18.126  0.00  0.00    +0.000 A 
ATOM      8  C   UNL     1       3.020   4.261  18.424  0.00  0.00    +0.000 A 
ATOM      9  N   UNL     1       4.151   5.093  18.242  0.00  0.00    +0.000 N 
ATOM     10  C   UNL     1       4.277   6.411  17.832  0.00  0.00    +0.000 C 
ATOM     11  O   UNL     1       5.361   6.997  17.943  0.00  0.00    +0.000 OA
ENDROOT
BRANCH   1  13
ATOM     12  N   UNL     1       6.258   3.990  16.659  0.00  0.00    +0.000 N 
ATOM     13  C   UNL     1       6.539   4.355  17.951  0.00  0.00    +0.000 C 
ATOM     14  O   UNL     1       7.694   4.582  18.300  0.00  0.00    +0.000 OA
ATOM     15  H   UNL     1       7.075   3.789  16.095  0.00  0.00    +0.000 HD
ATOM     16  H   UNL     1       5.480   3.355  16.511  0.00  0.00    +0.000 HD
ENDBRANCH   1  13
BRANCH  10  17
ATOM     17  C   UNL     1       3.058   7.139  17.309  0.00  0.00    +0.000 C 
BRANCH  17  18
ATOM     18  C   UNL     1       2.395   8.143  18.217  0.00  0.00    +0.000 A 
ATOM     19  C   UNL     1       1.882   9.342  17.742  0.00  0.00    +0.000 A 
ATOM     20  N   UNL     1       1.128  10.190  18.483  0.00  0.00    +0.000 NA
ATOM     21  C   UNL     1       0.846   9.846  19.752  0.00  0.00    +0.000 A 
ATOM     22  C   UNL     1       0.065  10.688  20.530  0.00  0.00    +0.000 A 
ATOM     23  C   UNL     1      -0.269  10.372  21.850  0.00  0.00    +0.000 A 
ATOM     24  C   UNL     1       0.181   9.183  22.413  0.00  0.00    +0.000 A 
ATOM     25  C   UNL     1       0.965   8.317  21.653  0.00  0.00    +0.000 A 
ATOM     26  C   UNL     1       1.305   8.645  20.328  0.00  0.00    +0.000 A 
ATOM     27  C   UNL     1       2.087   7.795  19.536  0.00  0.00    +0.000 A 
ENDBRANCH  17  18
ENDBRANCH  10  17
TORSDOF 3
ENDMDL
MODEL 2
REMARK VINA RESULT:      -8.4      1.051      1.052
REMARK  Name = 
REMARK  3 active torsions:
REMARK  status: ('A' for Active; 'I' for Inactive)
REMARK    1  A    between atoms: C_2  and  C_4
REMARK    2  A    between atoms: C_13  and  C_15
REMARK    3  A    between atoms: C_15  and  C_16
REMARK                            x       y       z     vdW  Elec       q    Type
REMARK                         _______ _______ _______ _____ _____    ______ ____
ROOT
ATOM      1  C   UNL     1       5.313   4.994  18.666  0.00  0.00    +0.000 C 
ATOM      2  C   UNL     1       5.172   3.644  19.375  0.00  0.00    +0.000 C 
ATOM      3  C   UNL     1       3.708   3.592  19.655  0.00  0.00    +0.000 A 
ATOM      4  C   UNL     1       3.057   2.633  20.422  0.00  0.00    +0.000 A 
ATOM      5  C   UNL     1       1.676   2.715  20.567  0.00  0.00    +0.000 A 
ATOM      6  C   UNL     1       0.968   3.743  19.938  0.00  0.00    +0.000 A 
ATOM      7  C   UNL     1       1.639   4.710  19.176  0.00  0.00    +0.000 A 
ATOM      8  C   UNL     1       3.018   4.638  19.032  0.00  0.00    +0.000 A 
ATOM      9  N   UNL     1       3.941   5.479  18.366  0.00  0.00    +0.000 N 
ATOM     10  C   UNL     1       3.797   6.714  17.754  0.00  0.00    +0.000 C 
ATOM     11  O   UNL     1       4.795   7.361  17.412  0.00  0.00    +0.000 OA
ENDROOT
BRANCH   1  13
ATOM     12  N   UNL     1       7.336   5.538  17.390  0.00  0.00    +0.000 N 
ATOM     13  C   UNL     1       6.170   4.816  17.405  0.00  0.00    +0.000 C 
ATOM     14  O   UNL     1       5.865   4.100  16.455  0.00  0.00    +0.000 OA
ATOM     15  H   UNL     1       7.816   5.538  16.499  0.00  0.00    +0.000 HD
ATOM     16  H   UNL     1       7.337   6.434  17.867  0.00  0.00    +0.000 HD
ENDBRANCH   1  13
BRANCH  10  17
ATOM     17  C   UNL     1       2.408   7.287  17.569  0.00  0.00    +0.000 C 
BRANCH  17  18
ATOM     18  C   UNL     1       1.976   8.396  18.494  0.00  0.00    +0.000 A 
ATOM     19  C   UNL     1       1.771   9.693  18.046  0.00  0.00    +0.000 A 
ATOM     20  N   UNL     1       1.219  10.676  18.796  0.00  0.00    +0.000 NA
ATOM     21  C   UNL     1       0.829  10.377  20.048  0.00  0.00    +0.000 A 
ATOM     22  C   UNL     1       0.247  11.360  20.836  0.00  0.00    +0.000 A 
ATOM     23  C   UNL     1      -0.186  11.098  22.139  0.00  0.00    +0.000 A 
ATOM     24  C   UNL     1      -0.043   9.822  22.674  0.00  0.00    +0.000 A 
ATOM     25  C   UNL     1       0.535   8.816  21.904  0.00  0.00    +0.000 A 
ATOM     26  C   UNL     1       0.978   9.087  20.597  0.00  0.00    +0.000 A 
ATOM     27  C   UNL     1       1.559   8.097  19.795  0.00  0.00    +0.000 A 
ENDBRANCH  17  18
ENDBRANCH  10  17
TORSDOF 3
ENDMDL
MODEL 3
REMARK VINA RESULT:      -8.3      1.419      1.617
REMARK  Name = 
REMARK  3 active torsions:
REMARK  status: ('A' for Active; 'I' for Inactive)
REMARK    1  A    between atoms: C_2  and  C_4
REMARK    2  A    between atoms: C_13  and  C_15
REMARK    3  A    between atoms: C_15  and  C_16
REMARK                            x       y       z     vdW  Elec       q    Type
REMARK                         _______ _______ _______ _____ _____    ______ ____
ROOT
ATOM      1  C   UNL     1       5.353   5.749  17.753  0.00  0.00    +0.000 C 
ATOM      2  C   UNL     1       5.477   4.222  17.755  0.00  0.00    +0.000 C 
ATOM      3  C   UNL     1       4.056   3.796  17.914  0.00  0.00    +0.000 A 
ATOM      4  C   UNL     1       3.613   2.495  18.123  0.00  0.00    +0.000 A 
ATOM      5  C   UNL     1       2.245   2.263  18.228  0.00  0.00    +0.000 A 
ATOM      6  C   UNL     1       1.345   3.325  18.111  0.00  0.00    +0.000 A 
ATOM      7  C   UNL     1       1.807   4.634  17.910  0.00  0.00    +0.000 A 
ATOM      8  C   UNL     1       3.170   4.875  17.812  0.00  0.00    +0.000 A 
ATOM      9  N   UNL     1       3.907   6.073  17.650  0.00  0.00    +0.000 N 
ATOM     10  C   UNL     1       3.526   7.406  17.669  0.00  0.00    +0.000 C 
ATOM     11  O   UNL     1       4.383   8.298  17.708  0.00  0.00    +0.000 OA
ENDROOT
BRANCH   1  13
ATOM     12  N   UNL     1       7.172   7.190  16.961  0.00  0.00    +0.000 N 
ATOM     13  C   UNL     1       6.176   6.322  16.591  0.00  0.00    +0.000 C 
ATOM     14  O   UNL     1       5.983   6.058  15.408  0.00  0.00    +0.000 OA
ATOM     15  H   UNL     1       7.606   7.681  16.189  0.00  0.00    +0.000 HD
ATOM     16  H   UNL     1       7.012   7.762  17.784  0.00  0.00    +0.000 HD
ENDBRANCH   1  13
BRANCH  10  17
ATOM     17  C   UNL     1       2.053   7.750  17.706  0.00  0.00    +0.000 C 
BRANCH  17  18
ATOM     18  C   UNL     1       1.594   8.769  18.718  0.00  0.00    +0.000 A 
ATOM     19  C   UNL     1       1.282  10.074  18.363  0.00  0.00    +0.000 A 
ATOM     20  N   UNL     1       0.703  10.968  19.199  0.00  0.00    +0.000 NA
ATOM     21  C   UNL     1       0.398  10.568  20.446  0.00  0.00    +0.000 A 
ATOM     22  C   UNL     1      -0.208  11.458  21.321  0.00  0.00    +0.000 A 
ATOM     23  C   UNL     1      -0.558  11.089  22.623  0.00  0.00    +0.000 A 
ATOM     24  C   UNL     1      -0.304   9.797  23.069  0.00  0.00    +0.000 A 
ATOM     25  C   UNL     1       0.302   8.881  22.211  0.00  0.00    +0.000 A 
ATOM     26  C   UNL     1       0.660   9.261  20.904  0.00  0.00    +0.000 A 
ATOM     27  C   UNL     1       1.265   8.364  20.016  0.00  0.00    +0.000 A 
ENDBRANCH  17  18
ENDBRANCH  10  17
TORSDOF 3
ENDMDL
MODEL 4
REMARK VINA RESULT:      -8.2      2.418      3.888
REMARK  Name = 
REMARK  3 active torsions:
REMARK  status: ('A' for Active; 'I' for Inactive)
REMARK    1  A    between atoms: C_2  and  C_4
REMARK    2  A    between atoms: C_13  and  C_15
REMARK    3  A    between atoms: C_15  and  C_16
REMARK                            x       y       z     vdW  Elec       q    Type
REMARK                         _______ _______ _______ _____ _____    ______ ____
ROOT
ATOM      1  C   UNL     1       2.138   3.792  19.095  0.00  0.00    +0.000 C 
ATOM      2  C   UNL     1       3.043   3.083  18.083  0.00  0.00    +0.000 C 
ATOM      3  C   UNL     1       3.764   4.228  17.457  0.00  0.00    +0.000 A 
ATOM      4  C   UNL     1       4.612   4.156  16.358  0.00  0.00    +0.000 A 
ATOM      5  C   UNL     1       5.229   5.320  15.910  0.00  0.00    +0.000 A 
ATOM      6  C   UNL     1       4.998   6.530  16.569  0.00  0.00    +0.000 A 
ATOM      7  C   UNL     1       4.132   6.590  17.670  0.00  0.00    +0.000 A 
ATOM      8  C   UNL     1       3.508   5.434  18.118  0.00  0.00    +0.000 A 
ATOM      9  N   UNL     1       2.576   5.210  19.160  0.00  0.00    +0.000 N 
ATOM     10  C   UNL     1       1.880   6.079  19.986  0.00  0.00    +0.000 C 
ATOM     11  O   UNL     1       0.957   5.659  20.695  0.00  0.00    +0.000 OA
ENDROOT
BRANCH   1  13
ATOM     12  N   UNL     1       1.031   2.827  21.060  0.00  0.00    +0.000 N 
ATOM     13  C   UNL     1       2.235   3.076  20.449  0.00  0.00    +0.000 C 
ATOM     14  O   UNL     1       3.288   2.744  20.984  0.00  0.00    +0.000 OA
ATOM     15  H   UNL     1       1.108   2.499  22.014  0.00  0.00    +0.000 HD
ATOM     16  H   UNL     1       0.282   3.494  20.905  0.00  0.00    +0.000 HD
ENDBRANCH   1  13
BRANCH  10  17
ATOM     17  C   UNL     1       2.222   7.553  19.959  0.00  0.00    +0.000 C 
BRANCH  17  18
ATOM     18  C   UNL     1       1.297   8.503  20.675  0.00  0.00    +0.000 A 
ATOM     19  C   UNL     1       1.396   8.741  22.039  0.00  0.00    +0.000 A 
ATOM     20  N   UNL     1       0.707   9.709  22.690  0.00  0.00    +0.000 NA
ATOM     21  C   UNL     1      -0.112  10.499  21.973  0.00  0.00    +0.000 A 
ATOM     22  C   UNL     1      -0.820  11.508  22.611  0.00  0.00    +0.000 A 
ATOM     23  C   UNL     1      -1.674  12.364  21.910  0.00  0.00    +0.000 A 
ATOM     24  C   UNL     1      -1.827  12.219  20.536  0.00  0.00    +0.000 A 
ATOM     25  C   UNL     1      -1.126  11.215  19.869  0.00  0.00    +0.000 A 
ATOM     26  C   UNL     1      -0.275  10.350  20.582  0.00  0.00    +0.000 A 
ATOM     27  C   UNL     1       0.447   9.336  19.941  0.00  0.00    +0.000 A 
ENDBRANCH  17  18
ENDBRANCH  10  17
TORSDOF 3
ENDMDL
MODEL 5
REMARK VINA RESULT:      -8.1      0.835      1.531
REMARK  Name = 
REMARK  3 active torsions:
REMARK  status: ('A' for Active; 'I' for Inactive)
REMARK    1  A    between atoms: C_2  and  C_4
REMARK    2  A    between atoms: C_13  and  C_15
REMARK    3  A    between atoms: C_15  and  C_16
REMARK                            x       y       z     vdW  Elec       q    Type
REMARK                         _______ _______ _______ _____ _____    ______ ____
ROOT
ATOM      1  C   UNL     1       5.356   4.429  18.847  0.00  0.00    +0.000 C 
ATOM      2  C   UNL     1       4.920   2.993  19.155  0.00  0.00    +0.000 C 
ATOM      3  C   UNL     1       3.453   3.052  18.892  0.00  0.00    +0.000 A 
ATOM      4  C   UNL     1       2.535   2.043  19.159  0.00  0.00    +0.000 A 
ATOM      5  C   UNL     1       1.199   2.249  18.830  0.00  0.00    +0.000 A 
ATOM      6  C   UNL     1       0.804   3.448  18.233  0.00  0.00    +0.000 A 
ATOM      7  C   UNL     1       1.739   4.462  17.978  0.00  0.00    +0.000 A 
ATOM      8  C   UNL     1       3.073   4.266  18.310  0.00  0.00    +0.000 A 
ATOM      9  N   UNL     1       4.204   5.110  18.203  0.00  0.00    +0.000 N 
ATOM     10  C   UNL     1       4.335   6.447  17.861  0.00  0.00    +0.000 C 
ATOM     11  O   UNL     1       5.412   7.032  18.034  0.00  0.00    +0.000 OA
ENDROOT
BRANCH   1  13
ATOM     12  N   UNL     1       6.371   4.063  16.645  0.00  0.00    +0.000 N 
ATOM     13  C   UNL     1       6.604   4.398  17.955  0.00  0.00    +0.000 C 
ATOM     14  O   UNL     1       7.743   4.638  18.346  0.00  0.00    +0.000 OA
ATOM     15  H   UNL     1       7.208   3.894  16.102  0.00  0.00    +0.000 HD
ATOM     16  H   UNL     1       5.611   3.417  16.456  0.00  0.00    +0.000 HD
ENDBRANCH   1  13
BRANCH  10  17
ATOM     17  C   UNL     1       3.129   7.194  17.335  0.00  0.00    +0.000 C 
BRANCH  17  18
ATOM     18  C   UNL     1       2.229   7.873  18.336  0.00  0.00    +0.000 A 
ATOM     19  C   UNL     1       2.229   7.529  19.680  0.00  0.00    +0.000 A 
ATOM     20  N   UNL     1       1.572   8.223  20.640  0.00  0.00    +0.000 NA
ATOM     21  C   UNL     1       0.889   9.322  20.274  0.00  0.00    +0.000 A 
ATOM     22  C   UNL     1       0.217  10.062  21.237  0.00  0.00    +0.000 A 
ATOM     23  C   UNL     1      -0.497  11.218  20.912  0.00  0.00    +0.000 A 
ATOM     24  C   UNL     1      -0.542  11.658  19.593  0.00  0.00    +0.000 A 
ATOM     25  C   UNL     1       0.126  10.936  18.606  0.00  0.00    +0.000 A 
ATOM     26  C   UNL     1       0.835   9.767  18.938  0.00  0.00    +0.000 A 
ATOM     27  C   UNL     1       1.521   9.022  17.971  0.00  0.00    +0.000 A 
ENDBRANCH  17  18
ENDBRANCH  10  17
TORSDOF 3
ENDMDL
MODEL 6
REMARK VINA RESULT:      -8.1      2.162      3.622
REMARK  Name = 
REMARK  3 active torsions:
REMARK  status: ('A' for Active; 'I' for Inactive)
REMARK    1  A    between atoms: C_2  and  C_4
REMARK    2  A    between atoms: C_13  and  C_15
REMARK    3  A    between atoms: C_15  and  C_16
REMARK                            x       y       z     vdW  Elec       q    Type
REMARK                         _______ _______ _______ _____ _____    ______ ____
ROOT
ATOM      1  C   UNL     1       3.096   3.385  17.406  0.00  0.00    +0.000 C 
ATOM      2  C   UNL     1       4.265   3.137  16.447  0.00  0.00    +0.000 C 
ATOM      3  C   UNL     1       5.139   4.316  16.714  0.00  0.00    +0.000 A 
ATOM      4  C   UNL     1       6.278   4.666  15.998  0.00  0.00    +0.000 A 
ATOM      5  C   UNL     1       6.999   5.789  16.393  0.00  0.00    +0.000 A 
ATOM      6  C   UNL     1       6.579   6.535  17.497  0.00  0.00    +0.000 A 
ATOM      7  C   UNL     1       5.421   6.177  18.203  0.00  0.00    +0.000 A 
ATOM      8  C   UNL     1       4.694   5.062  17.811  0.00  0.00    +0.000 A 
ATOM      9  N   UNL     1       3.492   4.499  18.305  0.00  0.00    +0.000 N 
ATOM     10  C   UNL     1       2.579   4.943  19.248  0.00  0.00    +0.000 C 
ATOM     11  O   UNL     1       1.485   4.376  19.372  0.00  0.00    +0.000 OA
ENDROOT
BRANCH   1  13
ATOM     12  N   UNL     1       1.453   1.756  18.220  0.00  0.00    +0.000 N 
ATOM     13  C   UNL     1       2.783   2.089  18.166  0.00  0.00    +0.000 C 
ATOM     14  O   UNL     1       3.627   1.382  18.708  0.00  0.00    +0.000 OA
ATOM     15  H   UNL     1       1.238   0.993  18.848  0.00  0.00    +0.000 HD
ATOM     16  H   UNL     1       0.781   2.517  18.240  0.00  0.00    +0.000 HD
ENDBRANCH   1  13
BRANCH  10  17
ATOM     17  C   UNL     1       2.910   6.165  20.076  0.00  0.00    +0.000 C 
BRANCH  17  18
ATOM     18  C   UNL     1       2.247   7.467  19.705  0.00  0.00    +0.000 A 
ATOM     19  C   UNL     1       2.190   7.920  18.394  0.00  0.00    +0.000 A 
ATOM     20  N   UNL     1       1.459   8.987  17.992  0.00  0.00    +0.000 NA
ATOM     21  C   UNL     1       0.731   9.642  18.914  0.00  0.00    +0.000 A 
ATOM     22  C   UNL     1      -0.038  10.731  18.529  0.00  0.00    +0.000 A 
ATOM     23  C   UNL     1      -0.822  11.439  19.445  0.00  0.00    +0.000 A 
ATOM     24  C   UNL     1      -0.847  11.053  20.781  0.00  0.00    +0.000 A 
ATOM     25  C   UNL     1      -0.086   9.961  21.194  0.00  0.00    +0.000 A 
ATOM     26  C   UNL     1       0.708   9.258  20.269  0.00  0.00    +0.000 A 
ATOM     27  C   UNL     1       1.480   8.154  20.651  0.00  0.00    +0.000 A 
ENDBRANCH  17  18
ENDBRANCH  10  17
TORSDOF 3
ENDMDL
MODEL 7
REMARK VINA RESULT:      -8.1      3.398      7.083
REMARK  Name = 
REMARK  3 active torsions:
REMARK  status: ('A' for Active; 'I' for Inactive)
REMARK    1  A    between atoms: C_2  and  C_4
REMARK    2  A    between atoms: C_13  and  C_15
REMARK    3  A    between atoms: C_15  and  C_16
REMARK                            x       y       z     vdW  Elec       q    Type
REMARK                         _______ _______ _______ _____ _____    ______ ____
ROOT
ATOM      1  C   UNL     1       2.611   3.556  19.775  0.00  0.00    +0.000 C 
ATOM      2  C   UNL     1       1.448   4.076  20.626  0.00  0.00    +0.000 C 
ATOM      3  C   UNL     1       1.586   5.553  20.467  0.00  0.00    +0.000 A 
ATOM      4  C   UNL     1       0.862   6.519  21.157  0.00  0.00    +0.000 A 
ATOM      5  C   UNL     1       1.095   7.861  20.873  0.00  0.00    +0.000 A 
ATOM      6  C   UNL     1       2.036   8.216  19.903  0.00  0.00    +0.000 A 
ATOM      7  C   UNL     1       2.767   7.231  19.222  0.00  0.00    +0.000 A 
ATOM      8  C   UNL     1       2.543   5.891  19.504  0.00  0.00    +0.000 A 
ATOM      9  N   UNL     1       3.148   4.711  19.009  0.00  0.00    +0.000 N 
ATOM     10  C   UNL     1       4.244   4.504  18.186  0.00  0.00    +0.000 C 
ATOM     11  O   UNL     1       4.717   3.368  18.050  0.00  0.00    +0.000 OA
ENDROOT
BRANCH   1  13
ATOM     12  N   UNL     1       2.923   1.321  18.815  0.00  0.00    +0.000 N 
ATOM     13  C   UNL     1       2.108   2.424  18.869  0.00  0.00    +0.000 C 
ATOM     14  O   UNL     1       1.068   2.466  18.218  0.00  0.00    +0.000 OA
ATOM     15  H   UNL     1       2.668   0.648  18.103  0.00  0.00    +0.000 HD
ATOM     16  H   UNL     1       3.922   1.473  18.909  0.00  0.00    +0.000 HD
ENDBRANCH   1  13
BRANCH  10  17
ATOM     17  C   UNL     1       4.890   5.693  17.509  0.00  0.00    +0.000 C 
BRANCH  17  18
ATOM     18  C   UNL     1       5.555   5.468  16.175  0.00  0.00    +0.000 A 
ATOM     19  C   UNL     1       6.877   5.821  15.940  0.00  0.00    +0.000 A 
ATOM     20  N   UNL     1       7.564   5.482  14.823  0.00  0.00    +0.000 NA
ATOM     21  C   UNL     1       6.937   4.745  13.889  0.00  0.00    +0.000 A 
ATOM     22  C   UNL     1       7.620   4.371  12.741  0.00  0.00    +0.000 A 
ATOM     23  C   UNL     1       7.018   3.595  11.746  0.00  0.00    +0.000 A 
ATOM     24  C   UNL     1       5.702   3.173  11.897  0.00  0.00    +0.000 A 
ATOM     25  C   UNL     1       4.992   3.533  13.041  0.00  0.00    +0.000 A 
ATOM     26  C   UNL     1       5.601   4.322  14.035  0.00  0.00    +0.000 A 
ATOM     27  C   UNL     1       4.917   4.695  15.199  0.00  0.00    +0.000 A 
ENDBRANCH  17  18
ENDBRANCH  10  17
TORSDOF 3
ENDMDL
MODEL 8
REMARK VINA RESULT:      -7.9      1.531      2.017
REMARK  Name = 
REMARK  3 active torsions:
REMARK  status: ('A' for Active; 'I' for Inactive)
REMARK    1  A    between atoms: C_2  and  C_4
REMARK    2  A    between atoms: C_13  and  C_15
REMARK    3  A    between atoms: C_15  and  C_16
REMARK                            x       y       z     vdW  Elec       q    Type
REMARK                         _______ _______ _______ _____ _____    ______ ____
ROOT
ATOM      1  C   UNL     1       5.549   5.576  17.737  0.00  0.00    +0.000 C 
ATOM      2  C   UNL     1       5.570   4.045  17.765  0.00  0.00    +0.000 C 
ATOM      3  C   UNL     1       4.118   3.718  17.872  0.00  0.00    +0.000 A 
ATOM      4  C   UNL     1       3.580   2.453  18.081  0.00  0.00    +0.000 A 
ATOM      5  C   UNL     1       2.196   2.314  18.133  0.00  0.00    +0.000 A 
ATOM      6  C   UNL     1       1.376   3.432  17.965  0.00  0.00    +0.000 A 
ATOM      7  C   UNL     1       1.933   4.704  17.764  0.00  0.00    +0.000 A 
ATOM      8  C   UNL     1       3.312   4.851  17.718  0.00  0.00    +0.000 A 
ATOM      9  N   UNL     1       4.133   5.995  17.570  0.00  0.00    +0.000 N 
ATOM     10  C   UNL     1       3.843   7.350  17.554  0.00  0.00    +0.000 C 
ATOM     11  O   UNL     1       4.756   8.184  17.616  0.00  0.00    +0.000 OA
ENDROOT
BRANCH   1  13
ATOM     12  N   UNL     1       7.512   6.851  17.003  0.00  0.00    +0.000 N 
ATOM     13  C   UNL     1       6.454   6.073  16.602  0.00  0.00    +0.000 C 
ATOM     14  O   UNL     1       6.275   5.827  15.413  0.00  0.00    +0.000 OA
ATOM     15  H   UNL     1       8.011   7.300  16.245  0.00  0.00    +0.000 HD
ATOM     16  H   UNL     1       7.378   7.435  17.821  0.00  0.00    +0.000 HD
ENDBRANCH   1  13
BRANCH  10  17
ATOM     17  C   UNL     1       2.396   7.793  17.526  0.00  0.00    +0.000 C 
BRANCH  17  18
ATOM     18  C   UNL     1       1.741   8.138  18.839  0.00  0.00    +0.000 A 
ATOM     19  C   UNL     1       2.053   7.474  20.017  0.00  0.00    +0.000 A 
ATOM     20  N   UNL     1       1.623   7.862  21.242  0.00  0.00    +0.000 NA
ATOM     21  C   UNL     1       0.859   8.966  21.328  0.00  0.00    +0.000 A 
ATOM     22  C   UNL     1       0.416   9.395  22.571  0.00  0.00    +0.000 A 
ATOM     23  C   UNL     1      -0.369  10.543  22.716  0.00  0.00    +0.000 A 
ATOM     24  C   UNL     1      -0.721  11.289  21.596  0.00  0.00    +0.000 A 
ATOM     25  C   UNL     1      -0.287  10.882  20.336  0.00  0.00    +0.000 A 
ATOM     26  C   UNL     1       0.496   9.721  20.195  0.00  0.00    +0.000 A 
ATOM     27  C   UNL     1       0.952   9.288  18.944  0.00  0.00    +0.000 A 
ENDBRANCH  17  18
ENDBRANCH  10  17
TORSDOF 3
ENDMDL
MODEL 9
REMARK VINA RESULT:      -7.9      3.136      6.972
REMARK  Name = 
REMARK  3 active torsions:
REMARK  status: ('A' for Active; 'I' for Inactive)
REMARK    1  A    between atoms: C_2  and  C_4
REMARK    2  A    between atoms: C_13  and  C_15
REMARK    3  A    between atoms: C_15  and  C_16
REMARK                            x       y       z     vdW  Elec       q    Type
REMARK                         _______ _______ _______ _____ _____    ______ ____
ROOT
ATOM      1  C   UNL     1       1.801   6.182  19.337  0.00  0.00    +0.000 C 
ATOM      2  C   UNL     1       1.029   5.436  20.430  0.00  0.00    +0.000 C 
ATOM      3  C   UNL     1       1.882   4.231  20.643  0.00  0.00    +0.000 A 
ATOM      4  C   UNL     1       1.563   3.135  21.436  0.00  0.00    +0.000 A 
ATOM      5  C   UNL     1       2.484   2.097  21.548  0.00  0.00    +0.000 A 
ATOM      6  C   UNL     1       3.707   2.175  20.878  0.00  0.00    +0.000 A 
ATOM      7  C   UNL     1       4.012   3.282  20.072  0.00  0.00    +0.000 A 
ATOM      8  C   UNL     1       3.095   4.317  19.951  0.00  0.00    +0.000 A 
ATOM      9  N   UNL     1       3.120   5.513  19.194  0.00  0.00    +0.000 N 
ATOM     10  C   UNL     1       3.997   5.983  18.229  0.00  0.00    +0.000 C 
ATOM     11  O   UNL     1       3.703   6.976  17.550  0.00  0.00    +0.000 OA
ENDROOT
BRANCH   1  13
ATOM     12  N   UNL     1       2.045   7.900  21.069  0.00  0.00    +0.000 N 
ATOM     13  C   UNL     1       1.922   7.662  19.723  0.00  0.00    +0.000 C 
ATOM     14  O   UNL     1       1.903   8.592  18.923  0.00  0.00    +0.000 OA
ATOM     15  H   UNL     1       1.969   8.875  21.329  0.00  0.00    +0.000 HD
ATOM     16  H   UNL     1       1.578   7.260  21.702  0.00  0.00    +0.000 HD
ENDBRANCH   1  13
BRANCH  10  17
ATOM     17  C   UNL     1       5.284   5.229  17.975  0.00  0.00    +0.000 C 
BRANCH  17  18
ATOM     18  C   UNL     1       5.825   5.216  16.568  0.00  0.00    +0.000 A 
ATOM     19  C   UNL     1       7.054   5.776  16.244  0.00  0.00    +0.000 A 
ATOM     20  N   UNL     1       7.656   5.636  15.039  0.00  0.00    +0.000 NA
ATOM     21  C   UNL     1       7.037   4.898  14.101  0.00  0.00    +0.000 A 
ATOM     22  C   UNL     1       7.636   4.726  12.861  0.00  0.00    +0.000 A 
ATOM     23  C   UNL     1       7.041   3.958  11.856  0.00  0.00    +0.000 A 
ATOM     24  C   UNL     1       5.818   3.339  12.089  0.00  0.00    +0.000 A 
ATOM     25  C   UNL     1       5.194   3.494  13.325  0.00  0.00    +0.000 A 
ATOM     26  C   UNL     1       5.794   4.275  14.330  0.00  0.00    +0.000 A 
ATOM     27  C   UNL     1       5.196   4.446  15.585  0.00  0.00    +0.000 A 
ENDBRANCH  17  18
ENDBRANCH  10  17
TORSDOF 3
ENDMDL
