MODEL 1
REMARK VINA RESULT:      -9.0      0.000      0.000
REMARK  Name = 
REMARK  5 active torsions:
REMARK  status: ('A' for Active; 'I' for Inactive)
REMARK    1  A    between atoms: C_2  and  C_16
REMARK    2  A    between atoms: N_3  and  C_4
REMARK    3  A    between atoms: C_9  and  N_10
REMARK    4  A    between atoms: C_20  and  C_21
REMARK    5  A    between atoms: C_21  and  N_22
REMARK                            x       y       z     vdW  Elec       q    Type
REMARK                         _______ _______ _______ _____ _____    ______ ____
ROOT
ATOM      1  C   UNL     1       1.962   7.977  19.048  0.00  0.00    +0.000 A 
ATOM      2  C   UNL     1       2.411   8.629  17.895  0.00  0.00    +0.000 A 
ATOM      3  C   UNL     1       2.105   9.974  17.685  0.00  0.00    +0.000 A 
ATOM      4  C   UNL     1       1.366  10.677  18.628  0.00  0.00    +0.000 A 
ATOM      5  C   UNL     1       0.955  10.063  19.811  0.00  0.00    +0.000 A 
ATOM      6  C   UNL     1       1.262   8.712  20.011  0.00  0.00    +0.000 A 
ENDROOT
BRANCH   1   8
ATOM      7  O   UNL     1       2.598   6.131  20.329  0.00  0.00    +0.000 OA
ATOM      8  C   UNL     1       2.273   6.533  19.215  0.00  0.00    +0.000 C 
ATOM      9  N   UNL     1       2.135   5.733  18.091  0.00  0.00    +0.000 N 
ATOM     10  H   UNL     1       1.602   6.047  17.291  0.00  0.00    +0.000 HD
BRANCH   9  11
ATOM     11  C   UNL     1       2.341   4.339  18.138  0.00  0.00    +0.000 A 
ATOM     12  C   UNL     1       1.350   3.546  18.733  0.00  0.00    +0.000 A 
ATOM     13  C   UNL     1       1.564   2.188  18.926  0.00  0.00    +0.000 A 
ATOM     14  C   UNL     1       2.749   1.614  18.481  0.00  0.00    +0.000 A 
ATOM     15  C   UNL     1       3.737   2.407  17.881  0.00  0.00    +0.000 A 
ATOM     16  C   UNL     1       3.579   3.793  17.717  0.00  0.00    +0.000 A 
BRANCH  16  17
ATOM     17  N   UNL     1       4.595   4.589  17.198  0.00  0.00    +0.000 N 
ATOM     18  C   UNL     1       5.568   5.255  18.079  0.00  0.00    +0.000 C 
ATOM     19  C   UNL     1       5.986   6.571  17.400  0.00  0.00    +0.000 C 
ATOM     20  O   UNL     1       6.543   6.346  16.089  0.00  0.00    +0.000 OA
ATOM     21  C   UNL     1       5.599   5.646  15.258  0.00  0.00    +0.000 C 
ATOM     22  C   UNL     1       5.184   4.297  15.876  0.00  0.00    +0.000 C 
ENDBRANCH  16  17
ENDBRANCH   9  11
ENDBRANCH   1   8
BRANCH   5  23
ATOM     23  C   UNL     1       0.274  10.848  20.879  0.00  0.00    +0.000 C 
BRANCH  23  24
ATOM     24  N   UNL     1      -0.297  12.132  20.500  0.00  0.00    +0.000 N 
ATOM     25  C   UNL     1      -0.024  13.083  21.459  0.00  0.00    +0.000 C 
ATOM     26  O   UNL     1       1.057  13.484  21.848  0.00  0.00    +0.000 OA
ATOM     27  C   UNL     1      -1.287  13.386  22.108  0.00  0.00    +0.000 A 
ATOM     28  C   UNL     1      -1.484  13.762  23.422  0.00  0.00    +0.000 A 
ATOM     29  C   UNL     1      -2.769  13.587  23.938  0.00  0.00    +0.000 A 
ATOM     30  C   UNL     1      -3.810  13.081  23.135  0.00  0.00    +0.000 A 
ATOM     31  C   UNL     1      -3.583  12.705  21.803  0.00  0.00    +0.000 A 
ATOM     32  C   UNL     1      -2.294  12.847  21.338  0.00  0.00    +0.000 A 
ATOM     33  C   UNL     1      -1.647  12.141  20.229  0.00  0.00    +0.000 C 
ATOM     34  O   UNL     1      -2.272  11.581  19.347  0.00  0.00    +0.000 OA
ENDBRANCH  23  24
ENDBRANCH   5  23
TORSDOF 5
ENDMDL
MODEL 2
REMARK VINA RESULT:      -8.9      1.061      1.466
REMARK  Name = 
REMARK  5 active torsions:
REMARK  status: ('A' for Active; 'I' for Inactive)
REMARK    1  A    between atoms: C_2  and  C_16
REMARK    2  A    between atoms: N_3  and  C_4
REMARK    3  A    between atoms: C_9  and  N_10
REMARK    4  A    between atoms: C_20  and  C_21
REMARK    5  A    between atoms: C_21  and  N_22
REMARK                            x       y       z     vdW  Elec       q    Type
REMARK                         _______ _______ _______ _____ _____    ______ ____
ROOT
ATOM      1  C   UNL     1       1.942   7.951  18.939  0.00  0.00    +0.000 A 
ATOM      2  C   UNL     1       2.634   8.705  17.986  0.00  0.00    +0.000 A 
ATOM      3  C   UNL     1       2.285  10.036  17.755  0.00  0.00    +0.000 A 
ATOM      4  C   UNL     1       1.258  10.624  18.483  0.00  0.00    +0.000 A 
ATOM      5  C   UNL     1       0.592   9.909  19.477  0.00  0.00    +0.000 A 
ATOM      6  C   UNL     1       0.944   8.573  19.699  0.00  0.00    +0.000 A 
ENDROOT
BRANCH   1   8
ATOM      7  O   UNL     1       2.749   6.173  20.220  0.00  0.00    +0.000 OA
ATOM      8  C   UNL     1       2.316   6.524  19.125  0.00  0.00    +0.000 C 
ATOM      9  N   UNL     1       2.110   5.681  18.044  0.00  0.00    +0.000 N 
ATOM     10  H   UNL     1       1.500   5.949  17.284  0.00  0.00    +0.000 HD
BRANCH   9  11
ATOM     11  C   UNL     1       2.368   4.297  18.119  0.00  0.00    +0.000 A 
ATOM     12  C   UNL     1       1.404   3.479  18.725  0.00  0.00    +0.000 A 
ATOM     13  C   UNL     1       1.668   2.134  18.946  0.00  0.00    +0.000 A 
ATOM     14  C   UNL     1       2.875   1.596  18.516  0.00  0.00    +0.000 A 
ATOM     15  C   UNL     1       3.835   2.414  17.904  0.00  0.00    +0.000 A 
ATOM     16  C   UNL     1       3.626   3.790  17.713  0.00  0.00    +0.000 A 
BRANCH  16  17
ATOM     17  N   UNL     1       4.614   4.613  17.182  0.00  0.00    +0.000 N 
ATOM     18  C   UNL     1       5.586   5.295  18.051  0.00  0.00    +0.000 C 
ATOM     19  C   UNL     1       5.962   6.625  17.374  0.00  0.00    +0.000 C 
ATOM     20  O   UNL     1       6.501   6.423  16.052  0.00  0.00    +0.000 OA
ATOM     21  C   UNL     1       5.559   5.706  15.232  0.00  0.00    +0.000 C 
ATOM     22  C   UNL     1       5.187   4.344  15.848  0.00  0.00    +0.000 C 
ENDBRANCH  16  17
ENDBRANCH   9  11
ENDBRANCH   1   8
BRANCH   5  23
ATOM     23  C   UNL     1      -0.421  10.576  20.345  0.00  0.00    +0.000 C 
BRANCH  23  24
ATOM     24  N   UNL     1       0.060  11.214  21.561  0.00  0.00    +0.000 N 
ATOM     25  C   UNL     1      -0.705  10.832  22.641  0.00  0.00    +0.000 C 
ATOM     26  O   UNL     1      -0.884   9.717  23.092  0.00  0.00    +0.000 OA
ATOM     27  C   UNL     1      -1.467  12.003  23.039  0.00  0.00    +0.000 A 
ATOM     28  C   UNL     1      -2.727  12.030  23.603  0.00  0.00    +0.000 A 
ATOM     29  C   UNL     1      -3.430  13.232  23.507  0.00  0.00    +0.000 A 
ATOM     30  C   UNL     1      -2.856  14.362  22.892  0.00  0.00    +0.000 A 
ATOM     31  C   UNL     1      -1.574  14.308  22.325  0.00  0.00    +0.000 A 
ATOM     32  C   UNL     1      -0.926  13.094  22.395  0.00  0.00    +0.000 A 
ATOM     33  C   UNL     1       0.146  12.588  21.533  0.00  0.00    +0.000 C 
ATOM     34  O   UNL     1       0.846  13.315  20.851  0.00  0.00    +0.000 OA
ENDBRANCH  23  24
ENDBRANCH   5  23
TORSDOF 5
ENDMDL
MODEL 3
REMARK VINA RESULT:      -8.8      1.002      1.578
REMARK  Name = 
REMARK  5 active torsions:
REMARK  status: ('A' for Active; 'I' for Inactive)
REMARK    1  A    between atoms: C_2  and  C_16
REMARK    2  A    between atoms: N_3  and  C_4
REMARK    3  A    between atoms: C_9  and  N_10
REMARK    4  A    between atoms: C_20  and  C_21
REMARK    5  A    between atoms: C_21  and  N_22
REMARK                            x       y       z     vdW  Elec       q    Type
REMARK                         _______ _______ _______ _____ _____    ______ ____
ROOT
ATOM      1  C   UNL     1       2.010   7.983  19.004  0.00  0.00    +0.000 A 
ATOM      2  C   UNL     1       2.376   8.567  17.788  0.00  0.00    +0.000 A 
ATOM      3  C   UNL     1       2.122   9.919  17.553  0.00  0.00    +0.000 A 
ATOM      4  C   UNL     1       1.516  10.695  18.533  0.00  0.00    +0.000 A 
ATOM      5  C   UNL     1       1.193  10.147  19.774  0.00  0.00    +0.000 A 
ATOM      6  C   UNL     1       1.447   8.790  19.999  0.00  0.00    +0.000 A 
ENDROOT
BRANCH   1   8
ATOM      7  O   UNL     1       2.483   6.125  20.337  0.00  0.00    +0.000 OA
ATOM      8  C   UNL     1       2.261   6.530  19.199  0.00  0.00    +0.000 C 
ATOM      9  N   UNL     1       2.186   5.729  18.070  0.00  0.00    +0.000 N 
ATOM     10  H   UNL     1       1.729   6.056  17.229  0.00  0.00    +0.000 HD
BRANCH   9  11
ATOM     11  C   UNL     1       2.344   4.330  18.137  0.00  0.00    +0.000 A 
ATOM     12  C   UNL     1       1.309   3.578  18.709  0.00  0.00    +0.000 A 
ATOM     13  C   UNL     1       1.470   2.216  18.923  0.00  0.00    +0.000 A 
ATOM     14  C   UNL     1       2.647   1.597  18.520  0.00  0.00    +0.000 A 
ATOM     15  C   UNL     1       3.679   2.349  17.941  0.00  0.00    +0.000 A 
ATOM     16  C   UNL     1       3.574   3.738  17.759  0.00  0.00    +0.000 A 
BRANCH  16  17
ATOM     17  N   UNL     1       4.631   4.493  17.262  0.00  0.00    +0.000 N 
ATOM     18  C   UNL     1       5.697   4.988  18.149  0.00  0.00    +0.000 C 
ATOM     19  C   UNL     1       6.197   6.324  17.573  0.00  0.00    +0.000 C 
ATOM     20  O   UNL     1       6.674   6.181  16.219  0.00  0.00    +0.000 OA
ATOM     21  C   UNL     1       5.636   5.645  15.378  0.00  0.00    +0.000 C 
ATOM     22  C   UNL     1       5.133   4.282  15.890  0.00  0.00    +0.000 C 
ENDBRANCH  16  17
ENDBRANCH   9  11
ENDBRANCH   1   8
BRANCH   5  23
ATOM     23  C   UNL     1       0.661  11.007  20.870  0.00  0.00    +0.000 C 
BRANCH  23  24
ATOM     24  N   UNL     1      -0.739  10.841  21.228  0.00  0.00    +0.000 N 
ATOM     25  C   UNL     1      -1.537  11.638  20.437  0.00  0.00    +0.000 C 
ATOM     26  O   UNL     1      -1.667  11.626  19.228  0.00  0.00    +0.000 OA
ATOM     27  C   UNL     1      -2.058  12.683  21.301  0.00  0.00    +0.000 A 
ATOM     28  C   UNL     1      -2.371  13.981  20.950  0.00  0.00    +0.000 A 
ATOM     29  C   UNL     1      -2.440  14.912  21.988  0.00  0.00    +0.000 A 
ATOM     30  C   UNL     1      -2.229  14.524  23.326  0.00  0.00    +0.000 A 
ATOM     31  C   UNL     1      -1.911  13.198  23.656  0.00  0.00    +0.000 A 
ATOM     32  C   UNL     1      -1.805  12.314  22.604  0.00  0.00    +0.000 A 
ATOM     33  C   UNL     1      -1.058  11.055  22.550  0.00  0.00    +0.000 C 
ATOM     34  O   UNL     1      -0.710  10.448  23.547  0.00  0.00    +0.000 OA
ENDBRANCH  23  24
ENDBRANCH   5  23
TORSDOF 5
ENDMDL
MODEL 4
REMARK VINA RESULT:      -8.8      0.681      1.082
REMARK  Name = 
REMARK  5 active torsions:
REMARK  status: ('A' for Active; 'I' for Inactive)
REMARK    1  A    between atoms: C_2  and  C_16
REMARK    2  A    between atoms: N_3  and  C_4
REMARK    3  A    between atoms: C_9  and  N_10
REMARK    4  A    between atoms: C_20  and  C_21
REMARK    5  A    between atoms: C_21  and  N_22
REMARK                            x       y       z     vdW  Elec       q    Type
REMARK                         _______ _______ _______ _____ _____    ______ ____
ROOT
ATOM      1  C   UNL     1       1.860   8.105  19.150  0.00  0.00    +0.000 A 
ATOM      2  C   UNL     1       2.308   8.758  17.996  0.00  0.00    +0.000 A 
ATOM      3  C   UNL     1       2.027  10.110  17.801  0.00  0.00    +0.000 A 
ATOM      4  C   UNL     1       1.312  10.819  18.759  0.00  0.00    +0.000 A 
ATOM      5  C   UNL     1       0.904  10.203  19.941  0.00  0.00    +0.000 A 
ATOM      6  C   UNL     1       1.187   8.845  20.127  0.00  0.00    +0.000 A 
ENDROOT
BRANCH   1   8
ATOM      7  O   UNL     1       2.142   6.173  20.431  0.00  0.00    +0.000 OA
ATOM      8  C   UNL     1       2.145   6.653  19.300  0.00  0.00    +0.000 C 
ATOM      9  N   UNL     1       2.359   5.937  18.133  0.00  0.00    +0.000 N 
ATOM     10  H   UNL     1       2.075   6.307  17.236  0.00  0.00    +0.000 HD
BRANCH   9  11
ATOM     11  C   UNL     1       2.577   4.544  18.142  0.00  0.00    +0.000 A 
ATOM     12  C   UNL     1       1.469   3.706  18.323  0.00  0.00    +0.000 A 
ATOM     13  C   UNL     1       1.645   2.337  18.476  0.00  0.00    +0.000 A 
ATOM     14  C   UNL     1       2.925   1.802  18.399  0.00  0.00    +0.000 A 
ATOM     15  C   UNL     1       4.033   2.641  18.211  0.00  0.00    +0.000 A 
ATOM     16  C   UNL     1       3.899   4.035  18.108  0.00  0.00    +0.000 A 
BRANCH  16  17
ATOM     17  N   UNL     1       5.006   4.871  18.006  0.00  0.00    +0.000 N 
ATOM     18  C   UNL     1       5.197   5.745  16.837  0.00  0.00    +0.000 C 
ATOM     19  C   UNL     1       6.711   5.894  16.609  0.00  0.00    +0.000 C 
ATOM     20  O   UNL     1       7.379   6.429  17.771  0.00  0.00    +0.000 OA
ATOM     21  C   UNL     1       7.137   5.591  18.916  0.00  0.00    +0.000 C 
ATOM     22  C   UNL     1       5.632   5.449  19.212  0.00  0.00    +0.000 C 
ENDBRANCH  16  17
ENDBRANCH   9  11
ENDBRANCH   1   8
BRANCH   5  23
ATOM     23  C   UNL     1       0.251  10.993  21.024  0.00  0.00    +0.000 C 
BRANCH  23  24
ATOM     24  N   UNL     1      -0.331  12.275  20.656  0.00  0.00    +0.000 N 
ATOM     25  C   UNL     1      -0.120  13.204  21.650  0.00  0.00    +0.000 C 
ATOM     26  O   UNL     1       0.934  13.617  22.097  0.00  0.00    +0.000 OA
ATOM     27  C   UNL     1      -1.416  13.463  22.252  0.00  0.00    +0.000 A 
ATOM     28  C   UNL     1      -1.678  13.798  23.566  0.00  0.00    +0.000 A 
ATOM     29  C   UNL     1      -2.980  13.582  24.020  0.00  0.00    +0.000 A 
ATOM     30  C   UNL     1      -3.974  13.076  23.160  0.00  0.00    +0.000 A 
ATOM     31  C   UNL     1      -3.682  12.742  21.829  0.00  0.00    +0.000 A 
ATOM     32  C   UNL     1      -2.377  12.925  21.425  0.00  0.00    +0.000 A 
ATOM     33  C   UNL     1      -1.668  12.263  20.327  0.00  0.00    +0.000 C 
ATOM     34  O   UNL     1      -2.242  11.714  19.403  0.00  0.00    +0.000 OA
ENDBRANCH  23  24
ENDBRANCH   5  23
TORSDOF 5
ENDMDL
MODEL 5
REMARK VINA RESULT:      -8.6      1.232      1.820
REMARK  Name = 
REMARK  5 active torsions:
REMARK  status: ('A' for Active; 'I' for Inactive)
REMARK    1  A    between atoms: C_2  and  C_16
REMARK    2  A    between atoms: N_3  and  C_4
REMARK    3  A    between atoms: C_9  and  N_10
REMARK    4  A    between atoms: C_20  and  C_21
REMARK    5  A    between atoms: C_21  and  N_22
REMARK                            x       y       z     vdW  Elec       q    Type
REMARK                         _______ _______ _______ _____ _____    ______ ____
ROOT
ATOM      1  C   UNL     1       1.835   8.065  19.024  0.00  0.00    +0.000 A 
ATOM      2  C   UNL     1       2.577   8.797  18.090  0.00  0.00    +0.000 A 
ATOM      3  C   UNL     1       2.281  10.141  17.858  0.00  0.00    +0.000 A 
ATOM      4  C   UNL     1       1.258  10.763  18.563  0.00  0.00    +0.000 A 
ATOM      5  C   UNL     1       0.544  10.068  19.538  0.00  0.00    +0.000 A 
ATOM      6  C   UNL     1       0.843   8.719  19.762  0.00  0.00    +0.000 A 
ENDROOT
BRANCH   1   8
ATOM      7  O   UNL     1       2.206   6.185  20.358  0.00  0.00    +0.000 OA
ATOM      8  C   UNL     1       2.154   6.625  19.212  0.00  0.00    +0.000 C 
ATOM      9  N   UNL     1       2.335   5.872  18.062  0.00  0.00    +0.000 N 
ATOM     10  H   UNL     1       2.007   6.205  17.166  0.00  0.00    +0.000 HD
BRANCH   9  11
ATOM     11  C   UNL     1       2.580   4.485  18.111  0.00  0.00    +0.000 A 
ATOM     12  C   UNL     1       1.484   3.628  18.283  0.00  0.00    +0.000 A 
ATOM     13  C   UNL     1       1.684   2.268  18.473  0.00  0.00    +0.000 A 
ATOM     14  C   UNL     1       2.976   1.757  18.442  0.00  0.00    +0.000 A 
ATOM     15  C   UNL     1       4.070   2.614  18.263  0.00  0.00    +0.000 A 
ATOM     16  C   UNL     1       3.912   4.003  18.122  0.00  0.00    +0.000 A 
BRANCH  16  17
ATOM     17  N   UNL     1       5.004   4.858  18.029  0.00  0.00    +0.000 N 
ATOM     18  C   UNL     1       5.185   5.740  16.864  0.00  0.00    +0.000 C 
ATOM     19  C   UNL     1       6.698   5.917  16.645  0.00  0.00    +0.000 C 
ATOM     20  O   UNL     1       7.350   6.459  17.811  0.00  0.00    +0.000 OA
ATOM     21  C   UNL     1       7.118   5.612  18.953  0.00  0.00    +0.000 C 
ATOM     22  C   UNL     1       5.614   5.442  19.241  0.00  0.00    +0.000 C 
ENDBRANCH  16  17
ENDBRANCH   9  11
ENDBRANCH   1   8
BRANCH   5  23
ATOM     23  C   UNL     1      -0.466  10.768  20.384  0.00  0.00    +0.000 C 
BRANCH  23  24
ATOM     24  N   UNL     1       0.005  11.369  21.623  0.00  0.00    +0.000 N 
ATOM     25  C   UNL     1      -0.769  10.956  22.684  0.00  0.00    +0.000 C 
ATOM     26  O   UNL     1      -0.952   9.827  23.100  0.00  0.00    +0.000 OA
ATOM     27  C   UNL     1      -1.534  12.114  23.110  0.00  0.00    +0.000 A 
ATOM     28  C   UNL     1      -2.799  12.125  23.664  0.00  0.00    +0.000 A 
ATOM     29  C   UNL     1      -3.501  13.329  23.599  0.00  0.00    +0.000 A 
ATOM     30  C   UNL     1      -2.922  14.477  23.022  0.00  0.00    +0.000 A 
ATOM     31  C   UNL     1      -1.635  14.439  22.465  0.00  0.00    +0.000 A 
ATOM     32  C   UNL     1      -0.987  13.224  22.504  0.00  0.00    +0.000 A 
ATOM     33  C   UNL     1       0.092  12.743  21.636  0.00  0.00    +0.000 C 
ATOM     34  O   UNL     1       0.797  13.490  20.982  0.00  0.00    +0.000 OA
ENDBRANCH  23  24
ENDBRANCH   5  23
TORSDOF 5
ENDMDL
MODEL 6
REMARK VINA RESULT:      -8.5      2.230      4.279
REMARK  Name = 
REMARK  5 active torsions:
REMARK  status: ('A' for Active; 'I' for Inactive)
REMARK    1  A    between atoms: C_2  and  C_16
REMARK    2  A    between atoms: N_3  and  C_4
REMARK    3  A    between atoms: C_9  and  N_10
REMARK    4  A    between atoms: C_20  and  C_21
REMARK    5  A    between atoms: C_21  and  N_22
REMARK                            x       y       z     vdW  Elec       q    Type
REMARK                         _______ _______ _______ _____ _____    ______ ____
ROOT
ATOM      1  C   UNL     1       1.670   8.626  19.359  0.00  0.00    +0.000 A 
ATOM      2  C   UNL     1       1.508   8.033  20.615  0.00  0.00    +0.000 A 
ATOM      3  C   UNL     1       0.844   8.717  21.634  0.00  0.00    +0.000 A 
ATOM      4  C   UNL     1       0.328   9.986  21.401  0.00  0.00    +0.000 A 
ATOM      5  C   UNL     1       0.429  10.573  20.140  0.00  0.00    +0.000 A 
ATOM      6  C   UNL     1       1.101   9.882  19.125  0.00  0.00    +0.000 A 
ENDROOT
BRANCH   1   8
ATOM      7  O   UNL     1       2.459   8.350  17.178  0.00  0.00    +0.000 OA
ATOM      8  C   UNL     1       2.420   7.881  18.313  0.00  0.00    +0.000 C 
ATOM      9  N   UNL     1       3.058   6.717  18.715  0.00  0.00    +0.000 N 
ATOM     10  H   UNL     1       3.233   6.531  19.693  0.00  0.00    +0.000 HD
BRANCH   9  11
ATOM     11  C   UNL     1       3.850   5.958  17.829  0.00  0.00    +0.000 A 
ATOM     12  C   UNL     1       4.593   6.643  16.858  0.00  0.00    +0.000 A 
ATOM     13  C   UNL     1       5.280   5.939  15.879  0.00  0.00    +0.000 A 
ATOM     14  C   UNL     1       5.265   4.550  15.901  0.00  0.00    +0.000 A 
ATOM     15  C   UNL     1       4.528   3.866  16.877  0.00  0.00    +0.000 A 
ATOM     16  C   UNL     1       3.776   4.544  17.851  0.00  0.00    +0.000 A 
BRANCH  16  17
ATOM     17  N   UNL     1       2.979   3.863  18.765  0.00  0.00    +0.000 N 
ATOM     18  C   UNL     1       1.557   3.599  18.489  0.00  0.00    +0.000 C 
ATOM     19  C   UNL     1       0.815   3.599  19.837  0.00  0.00    +0.000 C 
ATOM     20  O   UNL     1       1.357   2.621  20.749  0.00  0.00    +0.000 OA
ATOM     21  C   UNL     1       2.759   2.862  20.965  0.00  0.00    +0.000 C 
ATOM     22  C   UNL     1       3.554   2.826  19.645  0.00  0.00    +0.000 C 
ENDBRANCH  16  17
ENDBRANCH   9  11
ENDBRANCH   1   8
BRANCH   5  23
ATOM     23  C   UNL     1      -0.235  11.877  19.853  0.00  0.00    +0.000 C 
BRANCH  23  24
ATOM     24  N   UNL     1      -0.039  12.951  20.816  0.00  0.00    +0.000 N 
ATOM     25  C   UNL     1      -0.970  13.947  20.624  0.00  0.00    +0.000 C 
ATOM     26  O   UNL     1      -2.183  13.879  20.689  0.00  0.00    +0.000 OA
ATOM     27  C   UNL     1      -0.246  15.091  20.098  0.00  0.00    +0.000 A 
ATOM     28  C   UNL     1      -0.717  16.051  19.225  0.00  0.00    +0.000 A 
ATOM     29  C   UNL     1       0.241  16.790  18.529  0.00  0.00    +0.000 A 
ATOM     30  C   UNL     1       1.618  16.577  18.743  0.00  0.00    +0.000 A 
ATOM     31  C   UNL     1       2.071  15.594  19.636  0.00  0.00    +0.000 A 
ATOM     32  C   UNL     1       1.100  14.851  20.271  0.00  0.00    +0.000 A 
ATOM     33  C   UNL     1       1.219  13.511  20.853  0.00  0.00    +0.000 C 
ATOM     34  O   UNL     1       2.288  13.014  21.157  0.00  0.00    +0.000 OA
ENDBRANCH  23  24
ENDBRANCH   5  23
TORSDOF 5
ENDMDL
MODEL 7
REMARK VINA RESULT:      -8.4      2.387      4.060
REMARK  Name = 
REMARK  5 active torsions:
REMARK  status: ('A' for Active; 'I' for Inactive)
REMARK    1  A    between atoms: C_2  and  C_16
REMARK    2  A    between atoms: N_3  and  C_4
REMARK    3  A    between atoms: C_9  and  N_10
REMARK    4  A    between atoms: C_20  and  C_21
REMARK    5  A    between atoms: C_21  and  N_22
REMARK                            x       y       z     vdW  Elec       q    Type
REMARK                         _______ _______ _______ _____ _____    ______ ____
ROOT
ATOM      1  C   UNL     1       1.515   8.607  19.857  0.00  0.00    +0.000 A 
ATOM      2  C   UNL     1       1.181   7.918  21.028  0.00  0.00    +0.000 A 
ATOM      3  C   UNL     1       0.605   8.598  22.102  0.00  0.00    +0.000 A 
ATOM      4  C   UNL     1       0.348   9.960  22.008  0.00  0.00    +0.000 A 
ATOM      5  C   UNL     1       0.621  10.655  20.831  0.00  0.00    +0.000 A 
ATOM      6  C   UNL     1       1.203   9.967  19.760  0.00  0.00    +0.000 A 
ENDROOT
BRANCH   1   8
ATOM      7  O   UNL     1       1.899   8.172  17.595  0.00  0.00    +0.000 OA
ATOM      8  C   UNL     1       2.165   7.855  18.751  0.00  0.00    +0.000 C 
ATOM      9  N   UNL     1       3.063   6.864  19.117  0.00  0.00    +0.000 N 
ATOM     10  H   UNL     1       3.456   6.835  20.048  0.00  0.00    +0.000 HD
BRANCH   9  11
ATOM     11  C   UNL     1       3.788   6.125  18.159  0.00  0.00    +0.000 A 
ATOM     12  C   UNL     1       4.515   6.834  17.193  0.00  0.00    +0.000 A 
ATOM     13  C   UNL     1       5.133   6.159  16.149  0.00  0.00    +0.000 A 
ATOM     14  C   UNL     1       5.066   4.772  16.100  0.00  0.00    +0.000 A 
ATOM     15  C   UNL     1       4.344   4.064  17.071  0.00  0.00    +0.000 A 
ATOM     16  C   UNL     1       3.660   4.715  18.110  0.00  0.00    +0.000 A 
BRANCH  16  17
ATOM     17  N   UNL     1       2.877   4.016  19.022  0.00  0.00    +0.000 N 
ATOM     18  C   UNL     1       1.442   3.793  18.781  0.00  0.00    +0.000 C 
ATOM     19  C   UNL     1       0.741   3.754  20.150  0.00  0.00    +0.000 C 
ATOM     20  O   UNL     1       1.288   2.730  21.006  0.00  0.00    +0.000 OA
ATOM     21  C   UNL     1       2.702   2.933  21.186  0.00  0.00    +0.000 C 
ATOM     22  C   UNL     1       3.455   2.933  19.842  0.00  0.00    +0.000 C 
ENDBRANCH  16  17
ENDBRANCH   9  11
ENDBRANCH   1   8
BRANCH   5  23
ATOM     23  C   UNL     1       0.227  12.086  20.684  0.00  0.00    +0.000 C 
BRANCH  23  24
ATOM     24  N   UNL     1       0.982  12.890  19.735  0.00  0.00    +0.000 N 
ATOM     25  C   UNL     1       1.851  13.729  20.397  0.00  0.00    +0.000 C 
ATOM     26  O   UNL     1       2.766  13.442  21.144  0.00  0.00    +0.000 OA
ATOM     27  C   UNL     1       1.337  15.076  20.219  0.00  0.00    +0.000 A 
ATOM     28  C   UNL     1       1.442  16.135  21.099  0.00  0.00    +0.000 A 
ATOM     29  C   UNL     1       0.532  17.181  20.932  0.00  0.00    +0.000 A 
ATOM     30  C   UNL     1      -0.419  17.157  19.893  0.00  0.00    +0.000 A 
ATOM     31  C   UNL     1      -0.506  16.067  19.014  0.00  0.00    +0.000 A 
ATOM     32  C   UNL     1       0.375  15.032  19.234  0.00  0.00    +0.000 A 
ATOM     33  C   UNL     1       0.240  13.627  18.838  0.00  0.00    +0.000 C 
ATOM     34  O   UNL     1      -0.514  13.257  17.956  0.00  0.00    +0.000 OA
ENDBRANCH  23  24
ENDBRANCH   5  23
TORSDOF 5
ENDMDL
MODEL 8
REMARK VINA RESULT:      -8.4      2.372      8.771
REMARK  Name = 
REMARK  5 active torsions:
REMARK  status: ('A' for Active; 'I' for Inactive)
REMARK    1  A    between atoms: C_2  and  C_16
REMARK    2  A    between atoms: N_3  and  C_4
REMARK    3  A    between atoms: C_9  and  N_10
REMARK    4  A    between atoms: C_20  and  C_21
REMARK    5  A    between atoms: C_21  and  N_22
REMARK                            x       y       z     vdW  Elec       q    Type
REMARK                         _______ _______ _______ _____ _____    ______ ____
ROOT
ATOM      1  C   UNL     1       2.822   7.088  19.219  0.00  0.00    +0.000 A 
ATOM      2  C   UNL     1       2.846   7.709  17.966  0.00  0.00    +0.000 A 
ATOM      3  C   UNL     1       3.739   7.275  16.985  0.00  0.00    +0.000 A 
ATOM      4  C   UNL     1       4.600   6.216  17.244  0.00  0.00    +0.000 A 
ATOM      5  C   UNL     1       4.554   5.546  18.466  0.00  0.00    +0.000 A 
ATOM      6  C   UNL     1       3.659   5.990  19.446  0.00  0.00    +0.000 A 
ENDROOT
BRANCH   1   8
ATOM      7  O   UNL     1       1.411   6.812  21.059  0.00  0.00    +0.000 OA
ATOM      8  C   UNL     1       1.885   7.606  20.250  0.00  0.00    +0.000 C 
ATOM      9  N   UNL     1       1.643   8.972  20.242  0.00  0.00    +0.000 N 
ATOM     10  H   UNL     1       2.261   9.607  19.755  0.00  0.00    +0.000 HD
BRANCH   9  11
ATOM     11  C   UNL     1       0.822   9.589  21.207  0.00  0.00    +0.000 A 
ATOM     12  C   UNL     1       0.139   8.767  22.114  0.00  0.00    +0.000 A 
ATOM     13  C   UNL     1      -0.785   9.314  22.994  0.00  0.00    +0.000 A 
ATOM     14  C   UNL     1      -0.988  10.688  23.002  0.00  0.00    +0.000 A 
ATOM     15  C   UNL     1      -0.299  11.510  22.099  0.00  0.00    +0.000 A 
ATOM     16  C   UNL     1       0.602  10.988  21.157  0.00  0.00    +0.000 A 
BRANCH  16  17
ATOM     17  N   UNL     1       1.220  11.796  20.209  0.00  0.00    +0.000 N 
ATOM     18  C   UNL     1       1.037  11.558  18.768  0.00  0.00    +0.000 C 
ATOM     19  C   UNL     1       2.330  11.991  18.057  0.00  0.00    +0.000 C 
ATOM     20  O   UNL     1       2.650  13.373  18.317  0.00  0.00    +0.000 OA
ATOM     21  C   UNL     1       2.772  13.600  19.734  0.00  0.00    +0.000 C 
ATOM     22  C   UNL     1       1.481  13.223  20.486  0.00  0.00    +0.000 C 
ENDBRANCH  16  17
ENDBRANCH   9  11
ENDBRANCH   1   8
BRANCH   5  23
ATOM     23  C   UNL     1       5.385   4.330  18.699  0.00  0.00    +0.000 C 
BRANCH  23  24
ATOM     24  N   UNL     1       4.714   3.041  18.627  0.00  0.00    +0.000 N 
ATOM     25  C   UNL     1       3.543   3.146  17.910  0.00  0.00    +0.000 C 
ATOM     26  O   UNL     1       3.387   3.485  16.752  0.00  0.00    +0.000 OA
ATOM     27  C   UNL     1       2.461   2.987  18.864  0.00  0.00    +0.000 A 
ATOM     28  C   UNL     1       1.208   3.567  18.815  0.00  0.00    +0.000 A 
ATOM     29  C   UNL     1       0.498   3.628  20.015  0.00  0.00    +0.000 A 
ATOM     30  C   UNL     1       1.033   3.090  21.203  0.00  0.00    +0.000 A 
ATOM     31  C   UNL     1       2.308   2.508  21.227  0.00  0.00    +0.000 A 
ATOM     32  C   UNL     1       3.002   2.505  20.036  0.00  0.00    +0.000 A 
ATOM     33  C   UNL     1       4.451   2.426  19.831  0.00  0.00    +0.000 C 
ATOM     34  O   UNL     1       5.217   2.002  20.678  0.00  0.00    +0.000 OA
ENDBRANCH  23  24
ENDBRANCH   5  23
TORSDOF 5
ENDMDL
MODEL 9
REMARK VINA RESULT:      -8.4      2.646      9.948
REMARK  Name = 
REMARK  5 active torsions:
REMARK  status: ('A' for Active; 'I' for Inactive)
REMARK    1  A    between atoms: C_2  and  C_16
REMARK    2  A    between atoms: N_3  and  C_4
REMARK    3  A    between atoms: C_9  and  N_10
REMARK    4  A    between atoms: C_20  and  C_21
REMARK    5  A    between atoms: C_21  and  N_22
REMARK                            x       y       z     vdW  Elec       q    Type
REMARK                         _______ _______ _______ _____ _____    ______ ____
ROOT
ATOM      1  C   UNL     1      -1.205  10.883  18.313  0.00  0.00    +0.000 A 
ATOM      2  C   UNL     1      -0.512  12.043  18.676  0.00  0.00    +0.000 A 
ATOM      3  C   UNL     1       0.879  12.025  18.785  0.00  0.00    +0.000 A 
ATOM      4  C   UNL     1       1.584  10.858  18.520  0.00  0.00    +0.000 A 
ATOM      5  C   UNL     1       0.920   9.706  18.102  0.00  0.00    +0.000 A 
ATOM      6  C   UNL     1      -0.476   9.731  17.999  0.00  0.00    +0.000 A 
ENDROOT
BRANCH   1   8
ATOM      7  O   UNL     1      -3.294   9.908  17.943  0.00  0.00    +0.000 OA
ATOM      8  C   UNL     1      -2.689  10.933  18.247  0.00  0.00    +0.000 C 
ATOM      9  N   UNL     1      -3.286  12.141  18.576  0.00  0.00    +0.000 N 
ATOM     10  H   UNL     1      -2.778  12.852  19.085  0.00  0.00    +0.000 HD
BRANCH   9  11
ATOM     11  C   UNL     1      -4.687  12.294  18.611  0.00  0.00    +0.000 A 
ATOM     12  C   UNL     1      -5.413  11.983  17.453  0.00  0.00    +0.000 A 
ATOM     13  C   UNL     1      -6.775  12.244  17.391  0.00  0.00    +0.000 A 
ATOM     14  C   UNL     1      -7.420  12.771  18.503  0.00  0.00    +0.000 A 
ATOM     15  C   UNL     1      -6.694  13.076  19.663  0.00  0.00    +0.000 A 
ATOM     16  C   UNL     1      -5.306  12.877  19.745  0.00  0.00    +0.000 A 
BRANCH  16  17
ATOM     17  N   UNL     1      -4.577  13.258  20.866  0.00  0.00    +0.000 N 
ATOM     18  C   UNL     1      -4.055  14.627  21.006  0.00  0.00    +0.000 C 
ATOM     19  C   UNL     1      -2.745  14.545  21.809  0.00  0.00    +0.000 C 
ATOM     20  O   UNL     1      -2.942  13.931  23.099  0.00  0.00    +0.000 OA
ATOM     21  C   UNL     1      -3.504  12.614  22.945  0.00  0.00    +0.000 C 
ATOM     22  C   UNL     1      -4.843  12.650  22.185  0.00  0.00    +0.000 C 
ENDBRANCH  16  17
ENDBRANCH   9  11
ENDBRANCH   1   8
BRANCH   5  23
ATOM     23  C   UNL     1       1.685   8.493  17.694  0.00  0.00    +0.000 C 
BRANCH  23  24
ATOM     24  N   UNL     1       2.621   7.939  18.661  0.00  0.00    +0.000 N 
ATOM     25  C   UNL     1       3.366   6.932  18.089  0.00  0.00    +0.000 C 
ATOM     26  O   UNL     1       4.119   6.989  17.134  0.00  0.00    +0.000 OA
ATOM     27  C   UNL     1       2.923   5.693  18.703  0.00  0.00    +0.000 A 
ATOM     28  C   UNL     1       2.882   4.440  18.125  0.00  0.00    +0.000 A 
ATOM     29  C   UNL     1       2.041   3.500  18.725  0.00  0.00    +0.000 A 
ATOM     30  C   UNL     1       1.303   3.821  19.881  0.00  0.00    +0.000 A 
ATOM     31  C   UNL     1       1.360   5.103  20.448  0.00  0.00    +0.000 A 
ATOM     32  C   UNL     1       2.164   6.020  19.805  0.00  0.00    +0.000 A 
ATOM     33  C   UNL     1       2.077   7.482  19.840  0.00  0.00    +0.000 C 
ATOM     34  O   UNL     1       1.496   8.090  20.722  0.00  0.00    +0.000 OA
ENDBRANCH  23  24
ENDBRANCH   5  23
TORSDOF 5
ENDMDL
