MODEL 1
REMARK VINA RESULT:      -8.4      0.000      0.000
REMARK  Name = 
REMARK  6 active torsions:
REMARK  status: ('A' for Active; 'I' for Inactive)
REMARK    1  A    between atoms: C_1  and  C_2
REMARK    2  A    between atoms: C_2  and  C_3
REMARK    3  A    between atoms: C_2  and  C_8
REMARK    4  A    between atoms: N_6  and  C_7
REMARK    5  A    between atoms: C_12  and  N_13
REMARK    6  A    between atoms: C_20  and  C_21
REMARK                            x       y       z     vdW  Elec       q    Type
REMARK                         _______ _______ _______ _____ _____    ______ ____
ROOT
ATOM      1  N   UNL     1       2.585   6.535  17.647  0.00  0.00    +0.000 N 
ATOM      2  C   UNL     1       1.714   5.353  17.824  0.00  0.00    +0.000 C 
ATOM      3  C   UNL     1       2.628   4.391  18.516  0.00  0.00    +0.000 A 
ATOM      4  C   UNL     1       3.936   4.710  18.138  0.00  0.00    +0.000 A 
ATOM      5  C   UNL     1       5.050   4.117  18.692  0.00  0.00    +0.000 A 
ATOM      6  C   UNL     1       4.835   3.166  19.687  0.00  0.00    +0.000 A 
ATOM      7  C   UNL     1       3.527   2.846  20.098  0.00  0.00    +0.000 A 
ATOM      8  C   UNL     1       2.393   3.454  19.516  0.00  0.00    +0.000 A 
ATOM      9  C   UNL     1       3.894   6.019  17.437  0.00  0.00    +0.000 C 
ATOM     10  O   UNL     1       4.868   6.584  16.980  0.00  0.00    +0.000 OA
ENDROOT
BRANCH   1  15
ATOM     11  C   UNL     1       1.129   9.375  19.435  0.00  0.00    +0.000 A 
ATOM     12  C   UNL     1       0.806   8.713  20.629  0.00  0.00    +0.000 A 
ATOM     13  C   UNL     1       1.434   7.517  20.969  0.00  0.00    +0.000 A 
ATOM     14  C   UNL     1       2.306   6.915  20.072  0.00  0.00    +0.000 A 
ATOM     15  C   UNL     1       2.442   7.443  18.779  0.00  0.00    +0.000 A 
ATOM     16  C   UNL     1       1.980   8.741  18.522  0.00  0.00    +0.000 A 
BRANCH  11  18
ATOM     17  C   UNL     1      -1.022  10.664  19.420  0.00  0.00    +0.000 C 
ATOM     18  C   UNL     1       0.470  10.694  19.071  0.00  0.00    +0.000 C 
BRANCH  18  19
ATOM     19  C   UNL     1       1.140  11.853  19.728  0.00  0.00    +0.000 C 
ATOM     20  N   UNL     1       1.371  12.110  20.969  0.00  0.00    +0.000 NA
ATOM     21  C   UNL     1       2.149  13.270  20.589  0.00  0.00    +0.000 C 
ATOM     22  N   UNL     1       1.742  12.982  19.263  0.00  0.00    +0.000 N 
ATOM     23  C   UNL     1       2.712  12.964  18.198  0.00  0.00    +0.000 C 
ENDBRANCH  18  19
ENDBRANCH  11  18
ENDBRANCH   1  15
BRANCH   8  24
ATOM     24  C   UNL     1       1.027   3.151  20.074  0.00  0.00    +0.000 C 
ATOM     25  F   UNL     1       0.207   2.485  19.216  0.00  0.00    +0.000 F 
ATOM     26  F   UNL     1       1.091   2.377  21.193  0.00  0.00    +0.000 F 
ATOM     27  F   UNL     1       0.351   4.276  20.437  0.00  0.00    +0.000 F 
ENDBRANCH   8  24
TORSDOF 4
ENDMDL
MODEL 2
REMARK VINA RESULT:      -8.4      2.844      3.635
REMARK  Name = 
REMARK  6 active torsions:
REMARK  status: ('A' for Active; 'I' for Inactive)
REMARK    1  A    between atoms: C_1  and  C_2
REMARK    2  A    between atoms: C_2  and  C_3
REMARK    3  A    between atoms: C_2  and  C_8
REMARK    4  A    between atoms: N_6  and  C_7
REMARK    5  A    between atoms: C_12  and  N_13
REMARK    6  A    between atoms: C_20  and  C_21
REMARK                            x       y       z     vdW  Elec       q    Type
REMARK                         _______ _______ _______ _____ _____    ______ ____
ROOT
ATOM      1  N   UNL     1       3.263   5.858  20.218  0.00  0.00    +0.000 N 
ATOM      2  C   UNL     1       4.412   5.594  19.326  0.00  0.00    +0.000 C 
ATOM      3  C   UNL     1       3.961   4.375  18.585  0.00  0.00    +0.000 A 
ATOM      4  C   UNL     1       3.068   3.687  19.414  0.00  0.00    +0.000 A 
ATOM      5  C   UNL     1       2.347   2.588  19.001  0.00  0.00    +0.000 A 
ATOM      6  C   UNL     1       2.524   2.169  17.685  0.00  0.00    +0.000 A 
ATOM      7  C   UNL     1       3.400   2.861  16.827  0.00  0.00    +0.000 A 
ATOM      8  C   UNL     1       4.141   3.981  17.264  0.00  0.00    +0.000 A 
ATOM      9  C   UNL     1       2.736   4.580  20.553  0.00  0.00    +0.000 C 
ATOM     10  O   UNL     1       1.981   4.285  21.458  0.00  0.00    +0.000 OA
ENDROOT
BRANCH   1  15
ATOM     11  C   UNL     1       1.109   8.813  20.083  0.00  0.00    +0.000 A 
ATOM     12  C   UNL     1       1.617   9.374  18.901  0.00  0.00    +0.000 A 
ATOM     13  C   UNL     1       2.316   8.589  17.989  0.00  0.00    +0.000 A 
ATOM     14  C   UNL     1       2.614   7.269  18.296  0.00  0.00    +0.000 A 
ATOM     15  C   UNL     1       2.327   6.776  19.579  0.00  0.00    +0.000 A 
ATOM     16  C   UNL     1       1.447   7.492  20.401  0.00  0.00    +0.000 A 
BRANCH  11  18
ATOM     17  C   UNL     1       0.709   9.303  22.510  0.00  0.00    +0.000 C 
ATOM     18  C   UNL     1       0.320   9.655  21.070  0.00  0.00    +0.000 C 
BRANCH  18  19
ATOM     19  C   UNL     1       0.491  11.115  20.821  0.00  0.00    +0.000 C 
ATOM     20  N   UNL     1       1.472  11.911  21.073  0.00  0.00    +0.000 NA
ATOM     21  C   UNL     1       0.798  12.975  20.360  0.00  0.00    +0.000 C 
ATOM     22  N   UNL     1      -0.285  12.069  20.238  0.00  0.00    +0.000 N 
ATOM     23  C   UNL     1      -0.926  11.878  18.962  0.00  0.00    +0.000 C 
ENDBRANCH  18  19
ENDBRANCH  11  18
ENDBRANCH   1  15
BRANCH   8  24
ATOM     24  C   UNL     1       4.977   4.744  16.269  0.00  0.00    +0.000 C 
ATOM     25  F   UNL     1       4.601   6.040  16.099  0.00  0.00    +0.000 F 
ATOM     26  F   UNL     1       6.289   4.789  16.632  0.00  0.00    +0.000 F 
ATOM     27  F   UNL     1       4.952   4.182  15.029  0.00  0.00    +0.000 F 
ENDBRANCH   8  24
TORSDOF 4
ENDMDL
MODEL 3
REMARK VINA RESULT:      -8.3      1.313      2.189
REMARK  Name = 
REMARK  6 active torsions:
REMARK  status: ('A' for Active; 'I' for Inactive)
REMARK    1  A    between atoms: C_1  and  C_2
REMARK    2  A    between atoms: C_2  and  C_3
REMARK    3  A    between atoms: C_2  and  C_8
REMARK    4  A    between atoms: N_6  and  C_7
REMARK    5  A    between atoms: C_12  and  N_13
REMARK    6  A    between atoms: C_20  and  C_21
REMARK                            x       y       z     vdW  Elec       q    Type
REMARK                         _______ _______ _______ _____ _____    ______ ____
ROOT
ATOM      1  N   UNL     1       2.551   6.566  17.716  0.00  0.00    +0.000 N 
ATOM      2  C   UNL     1       1.681   5.383  17.885  0.00  0.00    +0.000 C 
ATOM      3  C   UNL     1       2.604   4.405  18.541  0.00  0.00    +0.000 A 
ATOM      4  C   UNL     1       3.907   4.730  18.148  0.00  0.00    +0.000 A 
ATOM      5  C   UNL     1       5.028   4.124  18.671  0.00  0.00    +0.000 A 
ATOM      6  C   UNL     1       4.828   3.153  19.650  0.00  0.00    +0.000 A 
ATOM      7  C   UNL     1       3.526   2.828  20.077  0.00  0.00    +0.000 A 
ATOM      8  C   UNL     1       2.384   3.449  19.526  0.00  0.00    +0.000 A 
ATOM      9  C   UNL     1       3.855   6.053  17.475  0.00  0.00    +0.000 C 
ATOM     10  O   UNL     1       4.821   6.625  17.013  0.00  0.00    +0.000 OA
ENDROOT
BRANCH   1  15
ATOM     11  C   UNL     1       1.258   9.475  19.521  0.00  0.00    +0.000 A 
ATOM     12  C   UNL     1       0.814   8.810  20.675  0.00  0.00    +0.000 A 
ATOM     13  C   UNL     1       1.316   7.555  21.007  0.00  0.00    +0.000 A 
ATOM     14  C   UNL     1       2.178   6.902  20.136  0.00  0.00    +0.000 A 
ATOM     15  C   UNL     1       2.428   7.452  18.869  0.00  0.00    +0.000 A 
ATOM     16  C   UNL     1       2.096   8.793  18.632  0.00  0.00    +0.000 A 
BRANCH  11  18
ATOM     17  C   UNL     1       1.781  11.635  18.360  0.00  0.00    +0.000 C 
ATOM     18  C   UNL     1       0.737  10.857  19.168  0.00  0.00    +0.000 C 
BRANCH  18  19
ATOM     19  C   UNL     1      -0.558  10.795  18.431  0.00  0.00    +0.000 C 
ATOM     20  N   UNL     1      -1.038   9.908  17.630  0.00  0.00    +0.000 NA
ATOM     21  C   UNL     1      -2.300  10.617  17.595  0.00  0.00    +0.000 C 
ATOM     22  N   UNL     1      -1.650  11.605  18.375  0.00  0.00    +0.000 N 
ATOM     23  C   UNL     1      -2.291  12.130  19.554  0.00  0.00    +0.000 C 
ENDBRANCH  18  19
ENDBRANCH  11  18
ENDBRANCH   1  15
BRANCH   8  24
ATOM     24  C   UNL     1       1.027   3.136  20.101  0.00  0.00    +0.000 C 
ATOM     25  F   UNL     1       1.058   2.372  21.226  0.00  0.00    +0.000 F 
ATOM     26  F   UNL     1       0.345   4.264  20.444  0.00  0.00    +0.000 F 
ATOM     27  F   UNL     1       0.230   2.470  19.221  0.00  0.00    +0.000 F 
ENDBRANCH   8  24
TORSDOF 4
ENDMDL
MODEL 4
REMARK VINA RESULT:      -8.2      0.557      1.234
REMARK  Name = 
REMARK  6 active torsions:
REMARK  status: ('A' for Active; 'I' for Inactive)
REMARK    1  A    between atoms: C_1  and  C_2
REMARK    2  A    between atoms: C_2  and  C_3
REMARK    3  A    between atoms: C_2  and  C_8
REMARK    4  A    between atoms: N_6  and  C_7
REMARK    5  A    between atoms: C_12  and  N_13
REMARK    6  A    between atoms: C_20  and  C_21
REMARK                            x       y       z     vdW  Elec       q    Type
REMARK                         _______ _______ _______ _____ _____    ______ ____
ROOT
ATOM      1  N   UNL     1       2.682   6.220  17.522  0.00  0.00    +0.000 N 
ATOM      2  C   UNL     1       1.755   5.104  17.809  0.00  0.00    +0.000 C 
ATOM      3  C   UNL     1       2.620   4.173  18.599  0.00  0.00    +0.000 A 
ATOM      4  C   UNL     1       3.943   4.391  18.201  0.00  0.00    +0.000 A 
ATOM      5  C   UNL     1       5.025   3.804  18.820  0.00  0.00    +0.000 A 
ATOM      6  C   UNL     1       4.762   2.967  19.902  0.00  0.00    +0.000 A 
ATOM      7  C   UNL     1       3.439   2.752  20.333  0.00  0.00    +0.000 A 
ATOM      8  C   UNL     1       2.338   3.352  19.685  0.00  0.00    +0.000 A 
ATOM      9  C   UNL     1       3.965   5.625  17.375  0.00  0.00    +0.000 C 
ATOM     10  O   UNL     1       4.966   6.095  16.872  0.00  0.00    +0.000 OA
ENDROOT
BRANCH   1  15
ATOM     11  C   UNL     1       1.357   9.289  19.011  0.00  0.00    +0.000 A 
ATOM     12  C   UNL     1       0.999   8.763  20.262  0.00  0.00    +0.000 A 
ATOM     13  C   UNL     1       1.569   7.580  20.722  0.00  0.00    +0.000 A 
ATOM     14  C   UNL     1       2.414   6.851  19.896  0.00  0.00    +0.000 A 
ATOM     15  C   UNL     1       2.579   7.242  18.558  0.00  0.00    +0.000 A 
ATOM     16  C   UNL     1       2.180   8.528  18.171  0.00  0.00    +0.000 A 
BRANCH  11  18
ATOM     17  C   UNL     1      -0.747  10.633  18.776  0.00  0.00    +0.000 C 
ATOM     18  C   UNL     1       0.762  10.595  18.514  0.00  0.00    +0.000 C 
BRANCH  18  19
ATOM     19  C   UNL     1       1.432  11.781  19.122  0.00  0.00    +0.000 C 
ATOM     20  N   UNL     1       2.144  12.716  18.597  0.00  0.00    +0.000 NA
ATOM     21  C   UNL     1       2.171  13.413  19.865  0.00  0.00    +0.000 C 
ATOM     22  N   UNL     1       1.494  12.282  20.385  0.00  0.00    +0.000 N 
ATOM     23  C   UNL     1       0.327  12.457  21.212  0.00  0.00    +0.000 C 
ENDBRANCH  18  19
ENDBRANCH  11  18
ENDBRANCH   1  15
BRANCH   8  24
ATOM     24  C   UNL     1       0.957   3.170  20.260  0.00  0.00    +0.000 C 
ATOM     25  F   UNL     1       0.304   4.333  20.527  0.00  0.00    +0.000 F 
ATOM     26  F   UNL     1       0.140   2.477  19.420  0.00  0.00    +0.000 F 
ATOM     27  F   UNL     1       0.968   2.473  21.430  0.00  0.00    +0.000 F 
ENDBRANCH   8  24
TORSDOF 4
ENDMDL
MODEL 5
REMARK VINA RESULT:      -8.1      3.289      4.656
REMARK  Name = 
REMARK  6 active torsions:
REMARK  status: ('A' for Active; 'I' for Inactive)
REMARK    1  A    between atoms: C_1  and  C_2
REMARK    2  A    between atoms: C_2  and  C_3
REMARK    3  A    between atoms: C_2  and  C_8
REMARK    4  A    between atoms: N_6  and  C_7
REMARK    5  A    between atoms: C_12  and  N_13
REMARK    6  A    between atoms: C_20  and  C_21
REMARK                            x       y       z     vdW  Elec       q    Type
REMARK                         _______ _______ _______ _____ _____    ______ ____
ROOT
ATOM      1  N   UNL     1       4.005   3.125  18.795  0.00  0.00    +0.000 N 
ATOM      2  C   UNL     1       5.470   3.315  18.873  0.00  0.00    +0.000 C 
ATOM      3  C   UNL     1       5.700   4.397  17.864  0.00  0.00    +0.000 A 
ATOM      4  C   UNL     1       4.681   4.304  16.911  0.00  0.00    +0.000 A 
ATOM      5  C   UNL     1       4.497   5.231  15.907  0.00  0.00    +0.000 A 
ATOM      6  C   UNL     1       5.375   6.312  15.872  0.00  0.00    +0.000 A 
ATOM      7  C   UNL     1       6.394   6.436  16.837  0.00  0.00    +0.000 A 
ATOM      8  C   UNL     1       6.578   5.475  17.854  0.00  0.00    +0.000 A 
ATOM      9  C   UNL     1       3.659   3.363  17.436  0.00  0.00    +0.000 C 
ATOM     10  O   UNL     1       2.639   3.061  16.850  0.00  0.00    +0.000 OA
ENDROOT
BRANCH   1  15
ATOM     11  C   UNL     1       2.356   6.189  19.927  0.00  0.00    +0.000 A 
ATOM     12  C   UNL     1       1.188   5.606  20.443  0.00  0.00    +0.000 A 
ATOM     13  C   UNL     1       1.162   4.257  20.786  0.00  0.00    +0.000 A 
ATOM     14  C   UNL     1       2.260   3.452  20.513  0.00  0.00    +0.000 A 
ATOM     15  C   UNL     1       3.333   3.974  19.772  0.00  0.00    +0.000 A 
ATOM     16  C   UNL     1       3.443   5.362  19.621  0.00  0.00    +0.000 A 
BRANCH  11  18
ATOM     17  C   UNL     1       2.154   7.874  18.080  0.00  0.00    +0.000 C 
ATOM     18  C   UNL     1       2.402   7.666  19.578  0.00  0.00    +0.000 C 
BRANCH  18  19
ATOM     19  C   UNL     1       1.433   8.461  20.386  0.00  0.00    +0.000 C 
ATOM     20  N   UNL     1       1.178   8.462  21.649  0.00  0.00    +0.000 NA
ATOM     21  C   UNL     1       0.298   9.598  21.475  0.00  0.00    +0.000 C 
ATOM     22  N   UNL     1       0.540   9.444  20.087  0.00  0.00    +0.000 N 
ATOM     23  C   UNL     1       0.883  10.589  19.284  0.00  0.00    +0.000 C 
ENDBRANCH  18  19
ENDBRANCH  11  18
ENDBRANCH   1  15
BRANCH   8  24
ATOM     24  C   UNL     1       7.615   5.720  18.920  0.00  0.00    +0.000 C 
ATOM     25  F   UNL     1       7.123   5.723  20.188  0.00  0.00    +0.000 F 
ATOM     26  F   UNL     1       8.593   4.774  18.908  0.00  0.00    +0.000 F 
ATOM     27  F   UNL     1       8.248   6.915  18.764  0.00  0.00    +0.000 F 
ENDBRANCH   8  24
TORSDOF 4
ENDMDL
MODEL 6
REMARK VINA RESULT:      -8.0      0.965      1.297
REMARK  Name = 
REMARK  6 active torsions:
REMARK  status: ('A' for Active; 'I' for Inactive)
REMARK    1  A    between atoms: C_1  and  C_2
REMARK    2  A    between atoms: C_2  and  C_3
REMARK    3  A    between atoms: C_2  and  C_8
REMARK    4  A    between atoms: N_6  and  C_7
REMARK    5  A    between atoms: C_12  and  N_13
REMARK    6  A    between atoms: C_20  and  C_21
REMARK                            x       y       z     vdW  Elec       q    Type
REMARK                         _______ _______ _______ _____ _____    ______ ____
ROOT
ATOM      1  N   UNL     1       2.592   6.482  17.641  0.00  0.00    +0.000 N 
ATOM      2  C   UNL     1       1.713   5.307  17.827  0.00  0.00    +0.000 C 
ATOM      3  C   UNL     1       2.620   4.344  18.527  0.00  0.00    +0.000 A 
ATOM      4  C   UNL     1       3.931   4.652  18.147  0.00  0.00    +0.000 A 
ATOM      5  C   UNL     1       5.040   4.056  18.707  0.00  0.00    +0.000 A 
ATOM      6  C   UNL     1       4.818   3.114  19.709  0.00  0.00    +0.000 A 
ATOM      7  C   UNL     1       3.507   2.806  20.122  0.00  0.00    +0.000 A 
ATOM      8  C   UNL     1       2.378   3.417  19.534  0.00  0.00    +0.000 A 
ATOM      9  C   UNL     1       3.898   5.956  17.436  0.00  0.00    +0.000 C 
ATOM     10  O   UNL     1       4.875   6.510  16.976  0.00  0.00    +0.000 OA
ENDROOT
BRANCH   1  15
ATOM     11  C   UNL     1       1.138   9.332  19.416  0.00  0.00    +0.000 A 
ATOM     12  C   UNL     1       0.828   8.678  20.618  0.00  0.00    +0.000 A 
ATOM     13  C   UNL     1       1.464   7.489  20.963  0.00  0.00    +0.000 A 
ATOM     14  C   UNL     1       2.332   6.883  20.065  0.00  0.00    +0.000 A 
ATOM     15  C   UNL     1       2.454   7.400  18.765  0.00  0.00    +0.000 A 
ATOM     16  C   UNL     1       1.984   8.693  18.501  0.00  0.00    +0.000 A 
BRANCH  11  18
ATOM     17  C   UNL     1      -0.832  10.387  18.278  0.00  0.00    +0.000 C 
ATOM     18  C   UNL     1       0.469  10.644  19.045  0.00  0.00    +0.000 C 
BRANCH  18  19
ATOM     19  C   UNL     1       0.214  11.498  20.241  0.00  0.00    +0.000 C 
ATOM     20  N   UNL     1       1.022  12.062  21.070  0.00  0.00    +0.000 NA
ATOM     21  C   UNL     1      -0.091  12.740  21.700  0.00  0.00    +0.000 C 
ATOM     22  N   UNL     1      -0.914  11.981  20.830  0.00  0.00    +0.000 N 
ATOM     23  C   UNL     1      -1.965  12.626  20.086  0.00  0.00    +0.000 C 
ENDBRANCH  18  19
ENDBRANCH  11  18
ENDBRANCH   1  15
BRANCH   8  24
ATOM     24  C   UNL     1       1.010   3.127  20.093  0.00  0.00    +0.000 C 
ATOM     25  F   UNL     1       0.191   2.446  19.246  0.00  0.00    +0.000 F 
ATOM     26  F   UNL     1       1.069   2.375  21.227  0.00  0.00    +0.000 F 
ATOM     27  F   UNL     1       0.335   4.261  20.432  0.00  0.00    +0.000 F 
ENDBRANCH   8  24
TORSDOF 4
ENDMDL
MODEL 7
REMARK VINA RESULT:      -7.9      4.603      7.212
REMARK  Name = 
REMARK  6 active torsions:
REMARK  status: ('A' for Active; 'I' for Inactive)
REMARK    1  A    between atoms: C_1  and  C_2
REMARK    2  A    between atoms: C_2  and  C_3
REMARK    3  A    between atoms: C_2  and  C_8
REMARK    4  A    between atoms: N_6  and  C_7
REMARK    5  A    between atoms: C_12  and  N_13
REMARK    6  A    between atoms: C_20  and  C_21
REMARK                            x       y       z     vdW  Elec       q    Type
REMARK                         _______ _______ _______ _____ _____    ______ ____
ROOT
ATOM      1  N   UNL     1      -0.799  11.936  19.215  0.00  0.00    +0.000 N 
ATOM      2  C   UNL     1       0.462  11.353  18.707  0.00  0.00    +0.000 C 
ATOM      3  C   UNL     1       0.783  10.336  19.757  0.00  0.00    +0.000 A 
ATOM      4  C   UNL     1       0.214  10.779  20.956  0.00  0.00    +0.000 A 
ATOM      5  C   UNL     1       0.194  10.022  22.108  0.00  0.00    +0.000 A 
ATOM      6  C   UNL     1       0.761   8.752  22.044  0.00  0.00    +0.000 A 
ATOM      7  C   UNL     1       1.319   8.278  20.841  0.00  0.00    +0.000 A 
ATOM      8  C   UNL     1       1.342   9.067  19.670  0.00  0.00    +0.000 A 
ATOM      9  C   UNL     1      -0.688  11.913  20.633  0.00  0.00    +0.000 C 
ATOM     10  O   UNL     1      -1.340  12.526  21.454  0.00  0.00    +0.000 OA
ENDROOT
BRANCH   1  15
ATOM     11  C   UNL     1      -4.260  11.634  18.067  0.00  0.00    +0.000 A 
ATOM     12  C   UNL     1      -4.002  11.083  16.803  0.00  0.00    +0.000 A 
ATOM     13  C   UNL     1      -2.790  10.451  16.539  0.00  0.00    +0.000 A 
ATOM     14  C   UNL     1      -1.783  10.459  17.495  0.00  0.00    +0.000 A 
ATOM     15  C   UNL     1      -1.945  11.221  18.663  0.00  0.00    +0.000 A 
ATOM     16  C   UNL     1      -3.225  11.671  19.010  0.00  0.00    +0.000 A 
BRANCH  11  18
ATOM     17  C   UNL     1      -6.294  12.715  17.074  0.00  0.00    +0.000 C 
ATOM     18  C   UNL     1      -5.590  12.300  18.371  0.00  0.00    +0.000 C 
BRANCH  18  19
ATOM     19  C   UNL     1      -6.477  11.428  19.194  0.00  0.00    +0.000 C 
ATOM     20  N   UNL     1      -6.762  10.175  19.099  0.00  0.00    +0.000 NA
ATOM     21  C   UNL     1      -7.494  10.243  20.346  0.00  0.00    +0.000 C 
ATOM     22  N   UNL     1      -7.237  11.636  20.304  0.00  0.00    +0.000 N 
ATOM     23  C   UNL     1      -6.738  12.313  21.473  0.00  0.00    +0.000 C 
ENDBRANCH  18  19
ENDBRANCH  11  18
ENDBRANCH   1  15
BRANCH   8  24
ATOM     24  C   UNL     1       1.854   8.464  18.387  0.00  0.00    +0.000 C 
ATOM     25  F   UNL     1       2.172   7.144  18.477  0.00  0.00    +0.000 F 
ATOM     26  F   UNL     1       0.941   8.553  17.380  0.00  0.00    +0.000 F 
ATOM     27  F   UNL     1       2.976   9.087  17.930  0.00  0.00    +0.000 F 
ENDBRANCH   8  24
TORSDOF 4
ENDMDL
MODEL 8
REMARK VINA RESULT:      -7.9      3.113      3.954
REMARK  Name = 
REMARK  6 active torsions:
REMARK  status: ('A' for Active; 'I' for Inactive)
REMARK    1  A    between atoms: C_1  and  C_2
REMARK    2  A    between atoms: C_2  and  C_3
REMARK    3  A    between atoms: C_2  and  C_8
REMARK    4  A    between atoms: N_6  and  C_7
REMARK    5  A    between atoms: C_12  and  N_13
REMARK    6  A    between atoms: C_20  and  C_21
REMARK                            x       y       z     vdW  Elec       q    Type
REMARK                         _______ _______ _______ _____ _____    ______ ____
ROOT
ATOM      1  N   UNL     1       3.150   5.971  20.110  0.00  0.00    +0.000 N 
ATOM      2  C   UNL     1       4.388   5.533  19.430  0.00  0.00    +0.000 C 
ATOM      3  C   UNL     1       3.946   4.273  18.754  0.00  0.00    +0.000 A 
ATOM      4  C   UNL     1       2.891   3.743  19.505  0.00  0.00    +0.000 A 
ATOM      5  C   UNL     1       2.147   2.656  19.100  0.00  0.00    +0.000 A 
ATOM      6  C   UNL     1       2.473   2.084  17.873  0.00  0.00    +0.000 A 
ATOM      7  C   UNL     1       3.516   2.617  17.091  0.00  0.00    +0.000 A 
ATOM      8  C   UNL     1       4.277   3.725  17.520  0.00  0.00    +0.000 A 
ATOM      9  C   UNL     1       2.476   4.776  20.488  0.00  0.00    +0.000 C 
ATOM     10  O   UNL     1       1.580   4.634  21.295  0.00  0.00    +0.000 OA
ENDROOT
BRANCH   1  15
ATOM     11  C   UNL     1       1.351   9.063  19.343  0.00  0.00    +0.000 A 
ATOM     12  C   UNL     1       2.042   9.408  18.171  0.00  0.00    +0.000 A 
ATOM     13  C   UNL     1       2.751   8.446  17.457  0.00  0.00    +0.000 A 
ATOM     14  C   UNL     1       2.870   7.158  17.962  0.00  0.00    +0.000 A 
ATOM     15  C   UNL     1       2.393   6.874  19.251  0.00  0.00    +0.000 A 
ATOM     16  C   UNL     1       1.509   7.773  19.863  0.00  0.00    +0.000 A 
BRANCH  11  18
ATOM     17  C   UNL     1      -0.821  10.312  19.463  0.00  0.00    +0.000 C 
ATOM     18  C   UNL     1       0.552  10.101  20.111  0.00  0.00    +0.000 C 
BRANCH  18  19
ATOM     19  C   UNL     1       0.404   9.738  21.550  0.00  0.00    +0.000 C 
ATOM     20  N   UNL     1       1.191   9.112  22.354  0.00  0.00    +0.000 NA
ATOM     21  C   UNL     1       0.301   9.400  23.458  0.00  0.00    +0.000 C 
ATOM     22  N   UNL     1      -0.562   9.960  22.483  0.00  0.00    +0.000 N 
ATOM     23  C   UNL     1      -1.151  11.256  22.700  0.00  0.00    +0.000 C 
ENDBRANCH  18  19
ENDBRANCH  11  18
ENDBRANCH   1  15
BRANCH   8  24
ATOM     24  C   UNL     1       5.307   4.315  16.591  0.00  0.00    +0.000 C 
ATOM     25  F   UNL     1       5.572   3.555  15.495  0.00  0.00    +0.000 F 
ATOM     26  F   UNL     1       4.924   5.530  16.110  0.00  0.00    +0.000 F 
ATOM     27  F   UNL     1       6.506   4.517  17.204  0.00  0.00    +0.000 F 
ENDBRANCH   8  24
TORSDOF 4
ENDMDL
MODEL 9
REMARK VINA RESULT:      -7.9      1.231      2.054
REMARK  Name = 
REMARK  6 active torsions:
REMARK  status: ('A' for Active; 'I' for Inactive)
REMARK    1  A    between atoms: C_1  and  C_2
REMARK    2  A    between atoms: C_2  and  C_3
REMARK    3  A    between atoms: C_2  and  C_8
REMARK    4  A    between atoms: N_6  and  C_7
REMARK    5  A    between atoms: C_12  and  N_13
REMARK    6  A    between atoms: C_20  and  C_21
REMARK                            x       y       z     vdW  Elec       q    Type
REMARK                         _______ _______ _______ _____ _____    ______ ____
ROOT
ATOM      1  N   UNL     1       2.426   6.820  17.867  0.00  0.00    +0.000 N 
ATOM      2  C   UNL     1       1.618   5.584  17.947  0.00  0.00    +0.000 C 
ATOM      3  C   UNL     1       2.600   4.603  18.506  0.00  0.00    +0.000 A 
ATOM      4  C   UNL     1       3.878   5.025  18.123  0.00  0.00    +0.000 A 
ATOM      5  C   UNL     1       5.037   4.435  18.577  0.00  0.00    +0.000 A 
ATOM      6  C   UNL     1       4.903   3.377  19.473  0.00  0.00    +0.000 A 
ATOM      7  C   UNL     1       3.627   2.951  19.890  0.00  0.00    +0.000 A 
ATOM      8  C   UNL     1       2.446   3.558  19.410  0.00  0.00    +0.000 A 
ATOM      9  C   UNL     1       3.748   6.395  17.564  0.00  0.00    +0.000 C 
ATOM     10  O   UNL     1       4.677   7.052  17.138  0.00  0.00    +0.000 OA
ENDROOT
BRANCH   1  15
ATOM     11  C   UNL     1       1.184   9.617  19.872  0.00  0.00    +0.000 A 
ATOM     12  C   UNL     1       0.636   8.875  20.929  0.00  0.00    +0.000 A 
ATOM     13  C   UNL     1       1.048   7.567  21.164  0.00  0.00    +0.000 A 
ATOM     14  C   UNL     1       1.925   6.948  20.283  0.00  0.00    +0.000 A 
ATOM     15  C   UNL     1       2.281   7.599  19.091  0.00  0.00    +0.000 A 
ATOM     16  C   UNL     1       2.037   8.973  18.968  0.00  0.00    +0.000 A 
BRANCH  11  18
ATOM     17  C   UNL     1       1.590  11.675  18.496  0.00  0.00    +0.000 C 
ATOM     18  C   UNL     1       0.761  11.055  19.627  0.00  0.00    +0.000 C 
BRANCH  18  19
ATOM     19  C   UNL     1      -0.696  11.166  19.330  0.00  0.00    +0.000 C 
ATOM     20  N   UNL     1      -1.557  12.078  19.627  0.00  0.00    +0.000 NA
ATOM     21  C   UNL     1      -2.552  11.408  18.817  0.00  0.00    +0.000 C 
ATOM     22  N   UNL     1      -1.581  10.391  18.646  0.00  0.00    +0.000 N 
ATOM     23  C   UNL     1      -1.304   9.871  17.331  0.00  0.00    +0.000 C 
ENDBRANCH  18  19
ENDBRANCH  11  18
ENDBRANCH   1  15
BRANCH   8  24
ATOM     24  C   UNL     1       1.116   3.130  19.976  0.00  0.00    +0.000 C 
ATOM     25  F   UNL     1       0.353   4.154  20.445  0.00  0.00    +0.000 F 
ATOM     26  F   UNL     1       0.347   2.494  19.050  0.00  0.00    +0.000 F 
ATOM     27  F   UNL     1       1.249   2.259  21.014  0.00  0.00    +0.000 F 
ENDBRANCH   8  24
TORSDOF 4
ENDMDL
