MODEL 1
REMARK VINA RESULT:      -8.3      0.000      0.000
REMARK  Name = 
REMARK  2 active torsions:
REMARK  status: ('A' for Active; 'I' for Inactive)
REMARK    1  A    between atoms: C_2  and  C_4
REMARK    2  A    between atoms: C_14  and  C_16
REMARK                            x       y       z     vdW  Elec       q    Type
REMARK                         _______ _______ _______ _____ _____    ______ ____
ROOT
ATOM      1  C   UNL     1       3.594   5.342  17.663  0.00  0.00    +0.000 C 
ATOM      2  C   UNL     1       2.190   5.414  18.289  0.00  0.00    +0.000 C 
ATOM      3  C   UNL     1       1.944   4.336  19.294  0.00  0.00    +0.000 A 
ATOM      4  C   UNL     1       0.674   3.771  19.457  0.00  0.00    +0.000 A 
ATOM      5  C   UNL     1       0.449   2.854  20.477  0.00  0.00    +0.000 A 
ATOM      6  C   UNL     1       1.490   2.507  21.337  0.00  0.00    +0.000 A 
ATOM      7  C   UNL     1       2.763   3.061  21.167  0.00  0.00    +0.000 A 
ATOM      8  C   UNL     1       3.006   3.973  20.133  0.00  0.00    +0.000 A 
ATOM      9  C   UNL     1       4.353   4.641  19.946  0.00  0.00    +0.000 C 
ATOM     10  N   UNL     1       4.692   4.870  18.532  0.00  0.00    +0.000 N 
ATOM     11  C   UNL     1       6.023   4.680  18.136  0.00  0.00    +0.000 C 
ATOM     12  O   UNL     1       6.859   4.380  19.006  0.00  0.00    +0.000 OA
ENDROOT
BRANCH  11  13
ATOM     13  C   UNL     1       6.550   4.849  16.713  0.00  0.00    +0.000 A 
ATOM     14  C   UNL     1       6.062   3.963  15.803  0.00  0.00    +0.000 A 
ATOM     15  C   UNL     1       6.399   4.015  14.371  0.00  0.00    +0.000 A 
ATOM     16  C   UNL     1       5.958   3.065  13.435  0.00  0.00    +0.000 A 
ATOM     17  C   UNL     1       6.313   3.194  12.087  0.00  0.00    +0.000 A 
ATOM     18  C   UNL     1       7.084   4.273  11.649  0.00  0.00    +0.000 A 
ATOM     19  C   UNL     1       7.522   5.218  12.567  0.00  0.00    +0.000 A 
ATOM     20  C   UNL     1       7.189   5.067  13.914  0.00  0.00    +0.000 A 
ATOM     21  N   UNL     1       7.684   5.975  14.831  0.00  0.00    +0.000 N 
ATOM     22  C   UNL     1       7.458   5.915  16.174  0.00  0.00    +0.000 A 
ATOM     23  O   UNL     1       8.023   6.783  16.829  0.00  0.00    +0.000 OA
ATOM     24  H   UNL     1       8.295   6.722  14.536  0.00  0.00    +0.000 HD
ENDBRANCH  11  13
BRANCH   1  26
ATOM     25  N   UNL     1       3.552   7.829  17.804  0.00  0.00    +0.000 N 
ATOM     26  C   UNL     1       3.918   6.735  17.072  0.00  0.00    +0.000 C 
ATOM     27  O   UNL     1       4.456   6.915  15.982  0.00  0.00    +0.000 OA
ATOM     28  H   UNL     1       3.774   8.731  17.402  0.00  0.00    +0.000 HD
ATOM     29  H   UNL     1       3.313   7.791  18.783  0.00  0.00    +0.000 HD
ENDBRANCH   1  26
TORSDOF 2
ENDMDL
MODEL 2
REMARK VINA RESULT:      -8.2      5.327      8.463
REMARK  Name = 
REMARK  2 active torsions:
REMARK  status: ('A' for Active; 'I' for Inactive)
REMARK    1  A    between atoms: C_2  and  C_4
REMARK    2  A    between atoms: C_14  and  C_16
REMARK                            x       y       z     vdW  Elec       q    Type
REMARK                         _______ _______ _______ _____ _____    ______ ____
ROOT
ATOM      1  C   UNL     1       1.027   7.488  20.194  0.00  0.00    +0.000 C 
ATOM      2  C   UNL     1       1.456   6.112  20.736  0.00  0.00    +0.000 C 
ATOM      3  C   UNL     1       2.032   5.225  19.681  0.00  0.00    +0.000 A 
ATOM      4  C   UNL     1       1.843   3.838  19.716  0.00  0.00    +0.000 A 
ATOM      5  C   UNL     1       2.487   3.027  18.788  0.00  0.00    +0.000 A 
ATOM      6  C   UNL     1       3.322   3.600  17.830  0.00  0.00    +0.000 A 
ATOM      7  C   UNL     1       3.500   4.987  17.785  0.00  0.00    +0.000 A 
ATOM      8  C   UNL     1       2.845   5.815  18.704  0.00  0.00    +0.000 A 
ATOM      9  C   UNL     1       3.053   7.316  18.730  0.00  0.00    +0.000 C 
ATOM     10  N   UNL     1       1.838   8.060  19.100  0.00  0.00    +0.000 N 
ATOM     11  C   UNL     1       1.579   9.267  18.436  0.00  0.00    +0.000 C 
ATOM     12  O   UNL     1       2.412   9.674  17.608  0.00  0.00    +0.000 OA
ENDROOT
BRANCH  11  13
ATOM     13  C   UNL     1       0.361  10.157  18.674  0.00  0.00    +0.000 A 
ATOM     14  C   UNL     1      -0.774   9.774  18.029  0.00  0.00    +0.000 A 
ATOM     15  C   UNL     1      -2.064  10.466  18.193  0.00  0.00    +0.000 A 
ATOM     16  C   UNL     1      -3.224  10.124  17.481  0.00  0.00    +0.000 A 
ATOM     17  C   UNL     1      -4.416  10.824  17.705  0.00  0.00    +0.000 A 
ATOM     18  C   UNL     1      -4.475  11.850  18.651  0.00  0.00    +0.000 A 
ATOM     19  C   UNL     1      -3.333  12.193  19.362  0.00  0.00    +0.000 A 
ATOM     20  C   UNL     1      -2.143  11.510  19.111  0.00  0.00    +0.000 A 
ATOM     21  N   UNL     1      -0.994  11.902  19.776  0.00  0.00    +0.000 N 
ATOM     22  C   UNL     1       0.232  11.338  19.592  0.00  0.00    +0.000 A 
ATOM     23  O   UNL     1       1.137  11.855  20.236  0.00  0.00    +0.000 OA
ATOM     24  H   UNL     1      -1.012  12.684  20.414  0.00  0.00    +0.000 HD
ENDBRANCH  11  13
BRANCH   1  26
ATOM     25  N   UNL     1       2.127   8.830  21.981  0.00  0.00    +0.000 N 
ATOM     26  C   UNL     1       0.950   8.463  21.393  0.00  0.00    +0.000 C 
ATOM     27  O   UNL     1      -0.099   8.901  21.860  0.00  0.00    +0.000 OA
ATOM     28  H   UNL     1       2.056   9.471  22.762  0.00  0.00    +0.000 HD
ATOM     29  H   UNL     1       3.029   8.707  21.548  0.00  0.00    +0.000 HD
ENDBRANCH   1  26
TORSDOF 2
ENDMDL
MODEL 3
REMARK VINA RESULT:      -7.8      8.479     11.418
REMARK  Name = 
REMARK  2 active torsions:
REMARK  status: ('A' for Active; 'I' for Inactive)
REMARK    1  A    between atoms: C_2  and  C_4
REMARK    2  A    between atoms: C_14  and  C_16
REMARK                            x       y       z     vdW  Elec       q    Type
REMARK                         _______ _______ _______ _____ _____    ______ ____
ROOT
ATOM      1  C   UNL     1       1.522  14.650  19.686  0.00  0.00    +0.000 C 
ATOM      2  C   UNL     1       2.170  15.995  19.311  0.00  0.00    +0.000 C 
ATOM      3  C   UNL     1       1.352  16.786  18.341  0.00  0.00    +0.000 A 
ATOM      4  C   UNL     1       1.957  17.596  17.373  0.00  0.00    +0.000 A 
ATOM      5  C   UNL     1       1.173  18.408  16.561  0.00  0.00    +0.000 A 
ATOM      6  C   UNL     1      -0.211  18.414  16.719  0.00  0.00    +0.000 A 
ATOM      7  C   UNL     1      -0.818  17.594  17.677  0.00  0.00    +0.000 A 
ATOM      8  C   UNL     1      -0.041  16.760  18.489  0.00  0.00    +0.000 A 
ATOM      9  C   UNL     1      -0.649  15.898  19.577  0.00  0.00    +0.000 C 
ATOM     10  N   UNL     1       0.046  14.612  19.750  0.00  0.00    +0.000 N 
ATOM     11  C   UNL     1      -0.731  13.476  20.016  0.00  0.00    +0.000 C 
ATOM     12  O   UNL     1      -1.959  13.619  20.144  0.00  0.00    +0.000 OA
ENDROOT
BRANCH  11  13
ATOM     13  C   UNL     1      -0.185  12.061  20.200  0.00  0.00    +0.000 A 
ATOM     14  C   UNL     1       0.296  11.472  19.073  0.00  0.00    +0.000 A 
ATOM     15  C   UNL     1       0.926  10.141  19.069  0.00  0.00    +0.000 A 
ATOM     16  C   UNL     1       1.363   9.493  17.903  0.00  0.00    +0.000 A 
ATOM     17  C   UNL     1       1.965   8.231  17.987  0.00  0.00    +0.000 A 
ATOM     18  C   UNL     1       2.161   7.612  19.223  0.00  0.00    +0.000 A 
ATOM     19  C   UNL     1       1.735   8.248  20.381  0.00  0.00    +0.000 A 
ATOM     20  C   UNL     1       1.110   9.491  20.287  0.00  0.00    +0.000 A 
ATOM     21  N   UNL     1       0.628  10.087  21.439  0.00  0.00    +0.000 N 
ATOM     22  C   UNL     1      -0.028  11.280  21.473  0.00  0.00    +0.000 A 
ATOM     23  O   UNL     1      -0.421  11.619  22.583  0.00  0.00    +0.000 OA
ATOM     24  H   UNL     1       0.708   9.620  22.330  0.00  0.00    +0.000 HD
ENDBRANCH  11  13
BRANCH   1  26
ATOM     25  N   UNL     1       1.886  14.937  22.134  0.00  0.00    +0.000 N 
ATOM     26  C   UNL     1       2.145  14.184  21.023  0.00  0.00    +0.000 C 
ATOM     27  O   UNL     1       2.874  13.202  21.140  0.00  0.00    +0.000 OA
ATOM     28  H   UNL     1       2.300  14.614  22.999  0.00  0.00    +0.000 HD
ATOM     29  H   UNL     1       1.140  15.614  22.187  0.00  0.00    +0.000 HD
ENDBRANCH   1  26
TORSDOF 2
ENDMDL
MODEL 4
REMARK VINA RESULT:      -7.7      7.456      9.522
REMARK  Name = 
REMARK  2 active torsions:
REMARK  status: ('A' for Active; 'I' for Inactive)
REMARK    1  A    between atoms: C_2  and  C_4
REMARK    2  A    between atoms: C_14  and  C_16
REMARK                            x       y       z     vdW  Elec       q    Type
REMARK                         _______ _______ _______ _____ _____    ______ ____
ROOT
ATOM      1  C   UNL     1      -1.917  11.790  19.655  0.00  0.00    +0.000 C 
ATOM      2  C   UNL     1      -3.361  12.316  19.725  0.00  0.00    +0.000 C 
ATOM      3  C   UNL     1      -3.741  12.798  21.088  0.00  0.00    +0.000 A 
ATOM      4  C   UNL     1      -5.047  12.654  21.571  0.00  0.00    +0.000 A 
ATOM      5  C   UNL     1      -5.399  13.215  22.793  0.00  0.00    +0.000 A 
ATOM      6  C   UNL     1      -4.450  13.923  23.529  0.00  0.00    +0.000 A 
ATOM      7  C   UNL     1      -3.141  14.055  23.053  0.00  0.00    +0.000 A 
ATOM      8  C   UNL     1      -2.770  13.481  21.831  0.00  0.00    +0.000 A 
ATOM      9  C   UNL     1      -1.380  13.648  21.250  0.00  0.00    +0.000 C 
ATOM     10  N   UNL     1      -0.918  12.460  20.514  0.00  0.00    +0.000 N 
ATOM     11  C   UNL     1       0.430  12.095  20.637  0.00  0.00    +0.000 C 
ATOM     12  O   UNL     1       1.177  12.819  21.317  0.00  0.00    +0.000 OA
ENDROOT
BRANCH  11  13
ATOM     13  C   UNL     1       1.077  10.885  19.967  0.00  0.00    +0.000 A 
ATOM     14  C   UNL     1       0.962   9.712  20.646  0.00  0.00    +0.000 A 
ATOM     15  C   UNL     1       1.459   8.429  20.123  0.00  0.00    +0.000 A 
ATOM     16  C   UNL     1       1.409   7.226  20.844  0.00  0.00    +0.000 A 
ATOM     17  C   UNL     1       1.893   6.043  20.269  0.00  0.00    +0.000 A 
ATOM     18  C   UNL     1       2.406   6.037  18.971  0.00  0.00    +0.000 A 
ATOM     19  C   UNL     1       2.457   7.222  18.250  0.00  0.00    +0.000 A 
ATOM     20  C   UNL     1       2.001   8.401  18.840  0.00  0.00    +0.000 A 
ATOM     21  N   UNL     1       2.117   9.588  18.140  0.00  0.00    +0.000 N 
ATOM     22  C   UNL     1       1.739  10.806  18.621  0.00  0.00    +0.000 A 
ATOM     23  O   UNL     1       1.967  11.748  17.871  0.00  0.00    +0.000 OA
ATOM     24  H   UNL     1       2.545   9.606  17.227  0.00  0.00    +0.000 HD
ENDBRANCH  11  13
BRANCH   1  26
ATOM     25  N   UNL     1      -0.986  12.995  17.683  0.00  0.00    +0.000 N 
ATOM     26  C   UNL     1      -1.477  11.817  18.172  0.00  0.00    +0.000 C 
ATOM     27  O   UNL     1      -1.566  10.860  17.408  0.00  0.00    +0.000 OA
ATOM     28  H   UNL     1      -0.701  12.992  16.712  0.00  0.00    +0.000 HD
ATOM     29  H   UNL     1      -0.672  13.754  18.269  0.00  0.00    +0.000 HD
ENDBRANCH   1  26
TORSDOF 2
ENDMDL
MODEL 5
REMARK VINA RESULT:      -7.5      8.242     11.690
REMARK  Name = 
REMARK  2 active torsions:
REMARK  status: ('A' for Active; 'I' for Inactive)
REMARK    1  A    between atoms: C_2  and  C_4
REMARK    2  A    between atoms: C_14  and  C_16
REMARK                            x       y       z     vdW  Elec       q    Type
REMARK                         _______ _______ _______ _____ _____    ______ ____
ROOT
ATOM      1  C   UNL     1      -0.490  10.733  20.893  0.00  0.00    +0.000 C 
ATOM      2  C   UNL     1       0.591   9.713  21.293  0.00  0.00    +0.000 C 
ATOM      3  C   UNL     1       1.216   9.036  20.117  0.00  0.00    +0.000 A 
ATOM      4  C   UNL     1       1.640   7.703  20.188  0.00  0.00    +0.000 A 
ATOM      5  C   UNL     1       2.321   7.135  19.118  0.00  0.00    +0.000 A 
ATOM      6  C   UNL     1       2.585   7.899  17.982  0.00  0.00    +0.000 A 
ATOM      7  C   UNL     1       2.150   9.226  17.905  0.00  0.00    +0.000 A 
ATOM      8  C   UNL     1       1.448   9.804  18.969  0.00  0.00    +0.000 A 
ATOM      9  C   UNL     1       1.008  11.254  18.953  0.00  0.00    +0.000 C 
ATOM     10  N   UNL     1      -0.280  11.473  19.632  0.00  0.00    +0.000 N 
ATOM     11  C   UNL     1      -1.170  12.397  19.068  0.00  0.00    +0.000 C 
ATOM     12  O   UNL     1      -0.808  13.022  18.056  0.00  0.00    +0.000 OA
ENDROOT
BRANCH  11  13
ATOM     13  C   UNL     1      -2.554  12.734  19.620  0.00  0.00    +0.000 A 
ATOM     14  C   UNL     1      -3.558  11.911  19.215  0.00  0.00    +0.000 A 
ATOM     15  C   UNL     1      -4.943  12.035  19.699  0.00  0.00    +0.000 A 
ATOM     16  C   UNL     1      -6.001  11.238  19.236  0.00  0.00    +0.000 A 
ATOM     17  C   UNL     1      -7.289  11.411  19.757  0.00  0.00    +0.000 A 
ATOM     18  C   UNL     1      -7.536  12.356  20.756  0.00  0.00    +0.000 A 
ATOM     19  C   UNL     1      -6.494  13.147  21.222  0.00  0.00    +0.000 A 
ATOM     20  C   UNL     1      -5.220  12.989  20.676  0.00  0.00    +0.000 A 
ATOM     21  N   UNL     1      -4.203  13.826  21.098  0.00  0.00    +0.000 N 
ATOM     22  C   UNL     1      -2.928  13.792  20.617  0.00  0.00    +0.000 A 
ATOM     23  O   UNL     1      -2.182  14.647  21.080  0.00  0.00    +0.000 OA
ATOM     24  H   UNL     1      -4.384  14.554  21.772  0.00  0.00    +0.000 HD
ENDBRANCH  11  13
BRANCH   1  26
ATOM     25  N   UNL     1      -1.711  11.457  22.941  0.00  0.00    +0.000 N 
ATOM     26  C   UNL     1      -0.680  11.708  22.080  0.00  0.00    +0.000 C 
ATOM     27  O   UNL     1       0.018  12.700  22.277  0.00  0.00    +0.000 OA
ATOM     28  H   UNL     1      -1.817  12.104  23.712  0.00  0.00    +0.000 HD
ATOM     29  H   UNL     1      -2.190  10.571  22.994  0.00  0.00    +0.000 HD
ENDBRANCH   1  26
TORSDOF 2
ENDMDL
MODEL 6
REMARK VINA RESULT:      -7.3      7.969     10.131
REMARK  Name = 
REMARK  2 active torsions:
REMARK  status: ('A' for Active; 'I' for Inactive)
REMARK    1  A    between atoms: C_2  and  C_4
REMARK    2  A    between atoms: C_14  and  C_16
REMARK                            x       y       z     vdW  Elec       q    Type
REMARK                         _______ _______ _______ _____ _____    ______ ____
ROOT
ATOM      1  C   UNL     1      -2.802  11.545  19.422  0.00  0.00    +0.000 C 
ATOM      2  C   UNL     1      -4.185  12.131  19.085  0.00  0.00    +0.000 C 
ATOM      3  C   UNL     1      -4.734  12.995  20.174  0.00  0.00    +0.000 A 
ATOM      4  C   UNL     1      -6.109  13.049  20.433  0.00  0.00    +0.000 A 
ATOM      5  C   UNL     1      -6.601  13.947  21.374  0.00  0.00    +0.000 A 
ATOM      6  C   UNL     1      -5.722  14.793  22.049  0.00  0.00    +0.000 A 
ATOM      7  C   UNL     1      -4.347  14.728  21.801  0.00  0.00    +0.000 A 
ATOM      8  C   UNL     1      -3.838  13.817  20.868  0.00  0.00    +0.000 A 
ATOM      9  C   UNL     1      -2.363  13.753  20.525  0.00  0.00    +0.000 C 
ATOM     10  N   UNL     1      -1.898  12.386  20.234  0.00  0.00    +0.000 N 
ATOM     11  C   UNL     1      -0.627  12.013  20.693  0.00  0.00    +0.000 C 
ATOM     12  O   UNL     1       0.063  12.868  21.275  0.00  0.00    +0.000 OA
ENDROOT
BRANCH  11  13
ATOM     13  C   UNL     1       0.006  10.636  20.504  0.00  0.00    +0.000 A 
ATOM     14  C   UNL     1       0.748  10.487  19.374  0.00  0.00    +0.000 A 
ATOM     15  C   UNL     1       1.492   9.256  19.059  0.00  0.00    +0.000 A 
ATOM     16  C   UNL     1       2.204   9.064  17.864  0.00  0.00    +0.000 A 
ATOM     17  C   UNL     1       2.897   7.867  17.646  0.00  0.00    +0.000 A 
ATOM     18  C   UNL     1       2.911   6.862  18.615  0.00  0.00    +0.000 A 
ATOM     19  C   UNL     1       2.212   7.044  19.800  0.00  0.00    +0.000 A 
ATOM     20  C   UNL     1       1.500   8.228  19.998  0.00  0.00    +0.000 A 
ATOM     21  N   UNL     1       0.752   8.374  21.152  0.00  0.00    +0.000 N 
ATOM     22  C   UNL     1      -0.010   9.465  21.443  0.00  0.00    +0.000 A 
ATOM     23  O   UNL     1      -0.640   9.387  22.492  0.00  0.00    +0.000 OA
ATOM     24  H   UNL     1       0.704   7.628  21.830  0.00  0.00    +0.000 HD
ENDBRANCH  11  13
BRANCH   1  26
ATOM     25  N   UNL     1      -1.654  12.133  17.291  0.00  0.00    +0.000 N 
ATOM     26  C   UNL     1      -2.127  11.133  18.092  0.00  0.00    +0.000 C 
ATOM     27  O   UNL     1      -2.017   9.973  17.705  0.00  0.00    +0.000 OA
ATOM     28  H   UNL     1      -1.214  11.844  16.427  0.00  0.00    +0.000 HD
ATOM     29  H   UNL     1      -1.500  13.078  17.610  0.00  0.00    +0.000 HD
ENDBRANCH   1  26
TORSDOF 2
ENDMDL
MODEL 7
REMARK VINA RESULT:      -7.3      9.170     12.346
REMARK  Name = 
REMARK  2 active torsions:
REMARK  status: ('A' for Active; 'I' for Inactive)
REMARK    1  A    between atoms: C_2  and  C_4
REMARK    2  A    between atoms: C_14  and  C_16
REMARK                            x       y       z     vdW  Elec       q    Type
REMARK                         _______ _______ _______ _____ _____    ______ ____
ROOT
ATOM      1  C   UNL     1      -0.618  11.791  19.933  0.00  0.00    +0.000 C 
ATOM      2  C   UNL     1      -0.308  11.012  18.643  0.00  0.00    +0.000 C 
ATOM      3  C   UNL     1       0.698   9.925  18.845  0.00  0.00    +0.000 A 
ATOM      4  C   UNL     1       1.611   9.586  17.839  0.00  0.00    +0.000 A 
ATOM      5  C   UNL     1       2.457   8.496  18.012  0.00  0.00    +0.000 A 
ATOM      6  C   UNL     1       2.386   7.744  19.183  0.00  0.00    +0.000 A 
ATOM      7  C   UNL     1       1.484   8.091  20.193  0.00  0.00    +0.000 A 
ATOM      8  C   UNL     1       0.638   9.196  20.039  0.00  0.00    +0.000 A 
ATOM      9  C   UNL     1      -0.394   9.575  21.082  0.00  0.00    +0.000 C 
ATOM     10  N   UNL     1      -0.588  11.029  21.199  0.00  0.00    +0.000 N 
ATOM     11  C   UNL     1      -0.784  11.564  22.480  0.00  0.00    +0.000 C 
ATOM     12  O   UNL     1      -0.837  10.781  23.444  0.00  0.00    +0.000 OA
ENDROOT
BRANCH  11  13
ATOM     13  C   UNL     1      -0.978  13.047  22.793  0.00  0.00    +0.000 A 
ATOM     14  C   UNL     1      -2.149  13.363  23.407  0.00  0.00    +0.000 A 
ATOM     15  C   UNL     1      -2.480  14.728  23.850  0.00  0.00    +0.000 A 
ATOM     16  C   UNL     1      -3.713  15.081  24.421  0.00  0.00    +0.000 A 
ATOM     17  C   UNL     1      -3.945  16.400  24.829  0.00  0.00    +0.000 A 
ATOM     18  C   UNL     1      -2.953  17.374  24.696  0.00  0.00    +0.000 A 
ATOM     19  C   UNL     1      -1.730  17.034  24.134  0.00  0.00    +0.000 A 
ATOM     20  C   UNL     1      -1.518  15.724  23.704  0.00  0.00    +0.000 A 
ATOM     21  N   UNL     1      -0.322  15.409  23.085  0.00  0.00    +0.000 N 
ATOM     22  C   UNL     1      -0.010  14.177  22.593  0.00  0.00    +0.000 A 
ATOM     23  O   UNL     1       1.079  14.106  22.035  0.00  0.00    +0.000 OA
ATOM     24  H   UNL     1       0.377  16.119  22.926  0.00  0.00    +0.000 HD
ENDBRANCH  11  13
BRANCH   1  26
ATOM     25  N   UNL     1      -1.981  13.854  19.632  0.00  0.00    +0.000 N 
ATOM     26  C   UNL     1      -1.984  12.493  19.744  0.00  0.00    +0.000 C 
ATOM     27  O   UNL     1      -3.063  11.907  19.714  0.00  0.00    +0.000 OA
ATOM     28  H   UNL     1      -2.883  14.295  19.506  0.00  0.00    +0.000 HD
ATOM     29  H   UNL     1      -1.155  14.395  19.426  0.00  0.00    +0.000 HD
ENDBRANCH   1  26
TORSDOF 2
ENDMDL
MODEL 8
REMARK VINA RESULT:      -7.2      8.041     10.140
REMARK  Name = 
REMARK  2 active torsions:
REMARK  status: ('A' for Active; 'I' for Inactive)
REMARK    1  A    between atoms: C_2  and  C_4
REMARK    2  A    between atoms: C_14  and  C_16
REMARK                            x       y       z     vdW  Elec       q    Type
REMARK                         _______ _______ _______ _____ _____    ______ ____
ROOT
ATOM      1  C   UNL     1      -2.278  12.008  20.060  0.00  0.00    +0.000 C 
ATOM      2  C   UNL     1      -3.615  12.760  19.934  0.00  0.00    +0.000 C 
ATOM      3  C   UNL     1      -3.845  13.731  21.047  0.00  0.00    +0.000 A 
ATOM      4  C   UNL     1      -5.132  13.979  21.539  0.00  0.00    +0.000 A 
ATOM      5  C   UNL     1      -5.329  14.970  22.494  0.00  0.00    +0.000 A 
ATOM      6  C   UNL     1      -4.244  15.715  22.952  0.00  0.00    +0.000 A 
ATOM      7  C   UNL     1      -2.956  15.458  22.472  0.00  0.00    +0.000 A 
ATOM      8  C   UNL     1      -2.742  14.452  21.522  0.00  0.00    +0.000 A 
ATOM      9  C   UNL     1      -1.374  14.177  20.931  0.00  0.00    +0.000 C 
ATOM     10  N   UNL     1      -1.144  12.751  20.648  0.00  0.00    +0.000 N 
ATOM     11  C   UNL     1       0.132  12.228  20.900  0.00  0.00    +0.000 C 
ATOM     12  O   UNL     1       1.018  13.004  21.299  0.00  0.00    +0.000 OA
ENDROOT
BRANCH  11  13
ATOM     13  C   UNL     1       0.543  10.773  20.688  0.00  0.00    +0.000 A 
ATOM     14  C   UNL     1       1.158  10.508  19.504  0.00  0.00    +0.000 A 
ATOM     15  C   UNL     1       1.689   9.180  19.154  0.00  0.00    +0.000 A 
ATOM     16  C   UNL     1       2.261   8.877  17.909  0.00  0.00    +0.000 A 
ATOM     17  C   UNL     1       2.755   7.590  17.659  0.00  0.00    +0.000 A 
ATOM     18  C   UNL     1       2.707   6.602  18.644  0.00  0.00    +0.000 A 
ATOM     19  C   UNL     1       2.145   6.894  19.880  0.00  0.00    +0.000 A 
ATOM     20  C   UNL     1       1.628   8.169  20.110  0.00  0.00    +0.000 A 
ATOM     21  N   UNL     1       1.010   8.432  21.319  0.00  0.00    +0.000 N 
ATOM     22  C   UNL     1       0.439   9.625  21.650  0.00  0.00    +0.000 A 
ATOM     23  O   UNL     1      -0.104   9.648  22.748  0.00  0.00    +0.000 OA
ATOM     24  H   UNL     1       0.913   7.707  22.014  0.00  0.00    +0.000 HD
ENDBRANCH  11  13
BRANCH   1  26
ATOM     25  N   UNL     1      -1.510  12.361  17.717  0.00  0.00    +0.000 N 
ATOM     26  C   UNL     1      -1.913  11.459  18.660  0.00  0.00    +0.000 C 
ATOM     27  O   UNL     1      -1.988  10.275  18.342  0.00  0.00    +0.000 OA
ATOM     28  H   UNL     1      -1.273  11.982  16.809  0.00  0.00    +0.000 HD
ATOM     29  H   UNL     1      -1.209  13.299  17.934  0.00  0.00    +0.000 HD
ENDBRANCH   1  26
TORSDOF 2
ENDMDL
MODEL 9
REMARK VINA RESULT:      -7.1      8.639     11.651
REMARK  Name = 
REMARK  2 active torsions:
REMARK  status: ('A' for Active; 'I' for Inactive)
REMARK    1  A    between atoms: C_2  and  C_4
REMARK    2  A    between atoms: C_14  and  C_16
REMARK                            x       y       z     vdW  Elec       q    Type
REMARK                         _______ _______ _______ _____ _____    ______ ____
ROOT
ATOM      1  C   UNL     1      -0.049  11.390  19.524  0.00  0.00    +0.000 C 
ATOM      2  C   UNL     1       0.211  10.401  18.373  0.00  0.00    +0.000 C 
ATOM      3  C   UNL     1       1.107   9.271  18.767  0.00  0.00    +0.000 A 
ATOM      4  C   UNL     1       2.004   8.704  17.853  0.00  0.00    +0.000 A 
ATOM      5  C   UNL     1       2.740   7.581  18.212  0.00  0.00    +0.000 A 
ATOM      6  C   UNL     1       2.577   7.023  19.479  0.00  0.00    +0.000 A 
ATOM      7  C   UNL     1       1.692   7.597  20.397  0.00  0.00    +0.000 A 
ATOM      8  C   UNL     1       0.957   8.738  20.053  0.00  0.00    +0.000 A 
ATOM      9  C   UNL     1      -0.055   9.360  20.994  0.00  0.00    +0.000 C 
ATOM     10  N   UNL     1      -0.114  10.827  20.889  0.00  0.00    +0.000 N 
ATOM     11  C   UNL     1      -0.284  11.564  22.069  0.00  0.00    +0.000 C 
ATOM     12  O   UNL     1      -0.428  10.943  23.136  0.00  0.00    +0.000 OA
ENDROOT
BRANCH  11  13
ATOM     13  C   UNL     1      -0.344  13.088  22.153  0.00  0.00    +0.000 A 
ATOM     14  C   UNL     1      -1.507  13.598  22.638  0.00  0.00    +0.000 A 
ATOM     15  C   UNL     1      -1.722  15.039  22.858  0.00  0.00    +0.000 A 
ATOM     16  C   UNL     1      -2.941  15.584  23.292  0.00  0.00    +0.000 A 
ATOM     17  C   UNL     1      -3.059  16.965  23.490  0.00  0.00    +0.000 A 
ATOM     18  C   UNL     1      -1.970  17.814  23.283  0.00  0.00    +0.000 A 
ATOM     19  C   UNL     1      -0.760  17.283  22.856  0.00  0.00    +0.000 A 
ATOM     20  C   UNL     1      -0.658  15.909  22.633  0.00  0.00    +0.000 A 
ATOM     21  N   UNL     1       0.530  15.397  22.145  0.00  0.00    +0.000 N 
ATOM     22  C   UNL     1       0.741  14.082  21.856  0.00  0.00    +0.000 A 
ATOM     23  O   UNL     1       1.844  13.830  21.385  0.00  0.00    +0.000 OA
ATOM     24  H   UNL     1       1.303  16.009  21.931  0.00  0.00    +0.000 HD
ENDBRANCH  11  13
BRANCH   1  26
ATOM     25  N   UNL     1      -1.194  13.434  18.678  0.00  0.00    +0.000 N 
ATOM     26  C   UNL     1      -1.339  12.175  19.188  0.00  0.00    +0.000 C 
ATOM     27  O   UNL     1      -2.476  11.748  19.375  0.00  0.00    +0.000 OA
ATOM     28  H   UNL     1      -2.049  13.930  18.462  0.00  0.00    +0.000 HD
ATOM     29  H   UNL     1      -0.331  13.782  18.289  0.00  0.00    +0.000 HD
ENDBRANCH   1  26
TORSDOF 2
ENDMDL
