MODEL 1
REMARK VINA RESULT:      -8.0      0.000      0.000
REMARK  Name = 
REMARK  6 active torsions:
REMARK  status: ('A' for Active; 'I' for Inactive)
REMARK    1  A    between atoms: C_1  and  N_2
REMARK    2  A    between atoms: C_6  and  C_7
REMARK    3  A    between atoms: C_7  and  C_8
REMARK    4  A    between atoms: C_12  and  N_13
REMARK    5  A    between atoms: C_14  and  C_16
REMARK    6  A    between atoms: N_21  and  N_22
REMARK                            x       y       z     vdW  Elec       q    Type
REMARK                         _______ _______ _______ _____ _____    ______ ____
ROOT
ATOM      1  C   UNL     1       3.361   3.719  18.961  0.00  0.00    +0.000 A 
ATOM      2  C   UNL     1       3.328   2.661  19.881  0.00  0.00    +0.000 A 
ATOM      3  C   UNL     1       2.641   2.794  21.081  0.00  0.00    +0.000 A 
ATOM      4  C   UNL     1       2.028   4.007  21.396  0.00  0.00    +0.000 A 
ATOM      5  C   UNL     1       2.105   5.109  20.537  0.00  0.00    +0.000 A 
ATOM      6  C   UNL     1       2.746   4.946  19.299  0.00  0.00    +0.000 A 
ENDROOT
BRANCH   5   7
ATOM      7  N   UNL     1       1.587   6.375  20.895  0.00  0.00    +0.000 N 
ATOM      8  C   UNL     1       1.780   7.554  20.201  0.00  0.00    +0.000 C 
ATOM      9  O   UNL     1       2.437   7.668  19.166  0.00  0.00    +0.000 OA
ATOM     10  H   UNL     1       0.958   6.454  21.694  0.00  0.00    +0.000 HD
BRANCH   8  11
ATOM     11  C   UNL     1       1.077   8.777  20.781  0.00  0.00    +0.000 C 
ATOM     12  C   UNL     1       0.867   8.683  22.107  0.00  0.00    +0.000 C 
ATOM     13  C   UNL     1       0.150   9.701  22.910  0.00  0.00    +0.000 C 
ATOM     14  C   UNL     1      -0.406  10.883  22.126  0.00  0.00    +0.000 C 
ATOM     15  C   UNL     1      -0.312  10.841  20.602  0.00  0.00    +0.000 C 
ATOM     16  N   UNL     1       0.658   9.880  20.035  0.00  0.00    +0.000 N 
BRANCH  16  17
ATOM     17  N   UNL     1       0.721   9.814  18.617  0.00  0.00    +0.000 NA
ATOM     18  H   UNL     1       1.676   9.613  18.304  0.00  0.00    +0.000 HD
ATOM     19  H   UNL     1       0.496  10.732  18.219  0.00  0.00    +0.000 HD
ENDBRANCH  16  17
ENDBRANCH   8  11
ENDBRANCH   5   7
BRANCH   1  20
ATOM     20  C   UNL     1       4.100   3.528  17.655  0.00  0.00    +0.000 C 
BRANCH  20  26
ATOM     21  C   UNL     1       5.930   4.065  15.128  0.00  0.00    +0.000 C 
ATOM     22  N   UNL     1       6.274   4.244  16.513  0.00  0.00    +0.000 N 
ATOM     23  C   UNL     1       7.498   4.631  16.971  0.00  0.00    +0.000 A 
ATOM     24  N   UNL     1       7.478   4.694  18.279  0.00  0.00    +0.000 NA
ATOM     25  N   UNL     1       6.221   4.332  18.693  0.00  0.00    +0.000 NA
ATOM     26  C   UNL     1       5.495   4.053  17.627  0.00  0.00    +0.000 A 
ENDBRANCH  20  26
ENDBRANCH   1  20
TORSDOF 5
ENDMDL
MODEL 2
REMARK VINA RESULT:      -8.0      2.054      2.983
REMARK  Name = 
REMARK  6 active torsions:
REMARK  status: ('A' for Active; 'I' for Inactive)
REMARK    1  A    between atoms: C_1  and  N_2
REMARK    2  A    between atoms: C_6  and  C_7
REMARK    3  A    between atoms: C_7  and  C_8
REMARK    4  A    between atoms: C_12  and  N_13
REMARK    5  A    between atoms: C_14  and  C_16
REMARK    6  A    between atoms: N_21  and  N_22
REMARK                            x       y       z     vdW  Elec       q    Type
REMARK                         _______ _______ _______ _____ _____    ______ ____
ROOT
ATOM      1  C   UNL     1       4.836   4.446  17.302  0.00  0.00    +0.000 A 
ATOM      2  C   UNL     1       4.088   3.295  17.016  0.00  0.00    +0.000 A 
ATOM      3  C   UNL     1       2.709   3.293  17.182  0.00  0.00    +0.000 A 
ATOM      4  C   UNL     1       2.072   4.426  17.687  0.00  0.00    +0.000 A 
ATOM      5  C   UNL     1       2.794   5.567  18.055  0.00  0.00    +0.000 A 
ATOM      6  C   UNL     1       4.179   5.583  17.826  0.00  0.00    +0.000 A 
ENDROOT
BRANCH   5   7
ATOM      7  N   UNL     1       2.176   6.678  18.674  0.00  0.00    +0.000 N 
ATOM      8  C   UNL     1       2.252   7.990  18.245  0.00  0.00    +0.000 C 
ATOM      9  O   UNL     1       2.875   8.377  17.257  0.00  0.00    +0.000 OA
ATOM     10  H   UNL     1       1.560   6.531  19.474  0.00  0.00    +0.000 HD
BRANCH   8  11
ATOM     11  C   UNL     1       1.458   8.995  19.073  0.00  0.00    +0.000 C 
ATOM     12  C   UNL     1       1.021  10.043  18.351  0.00  0.00    +0.000 C 
ATOM     13  C   UNL     1       0.280  11.193  18.920  0.00  0.00    +0.000 C 
ATOM     14  C   UNL     1       0.070  11.158  20.428  0.00  0.00    +0.000 C 
ATOM     15  C   UNL     1       0.755  10.047  21.222  0.00  0.00    +0.000 C 
ATOM     16  N   UNL     1       1.217   8.879  20.443  0.00  0.00    +0.000 N 
BRANCH  16  17
ATOM     17  N   UNL     1       1.887   7.861  21.175  0.00  0.00    +0.000 NA
ATOM     18  H   UNL     1       1.909   6.986  20.644  0.00  0.00    +0.000 HD
ATOM     19  H   UNL     1       1.358   7.645  22.027  0.00  0.00    +0.000 HD
ENDBRANCH  16  17
ENDBRANCH   8  11
ENDBRANCH   5   7
BRANCH   1  20
ATOM     20  C   UNL     1       6.333   4.416  17.087  0.00  0.00    +0.000 C 
BRANCH  20  26
ATOM     21  C   UNL     1       7.686   5.487  19.742  0.00  0.00    +0.000 C 
ATOM     22  N   UNL     1       7.583   6.164  18.477  0.00  0.00    +0.000 N 
ATOM     23  C   UNL     1       8.014   7.432  18.231  0.00  0.00    +0.000 A 
ATOM     24  N   UNL     1       7.768   7.748  16.984  0.00  0.00    +0.000 NA
ATOM     25  N   UNL     1       7.153   6.670  16.397  0.00  0.00    +0.000 NA
ATOM     26  C   UNL     1       7.034   5.715  17.300  0.00  0.00    +0.000 A 
ENDBRANCH  20  26
ENDBRANCH   1  20
TORSDOF 5
ENDMDL
MODEL 3
REMARK VINA RESULT:      -7.9      2.613      3.980
REMARK  Name = 
REMARK  6 active torsions:
REMARK  status: ('A' for Active; 'I' for Inactive)
REMARK    1  A    between atoms: C_1  and  N_2
REMARK    2  A    between atoms: C_6  and  C_7
REMARK    3  A    between atoms: C_7  and  C_8
REMARK    4  A    between atoms: C_12  and  N_13
REMARK    5  A    between atoms: C_14  and  C_16
REMARK    6  A    between atoms: N_21  and  N_22
REMARK                            x       y       z     vdW  Elec       q    Type
REMARK                         _______ _______ _______ _____ _____    ______ ____
ROOT
ATOM      1  C   UNL     1       5.996   4.499  16.292  0.00  0.00    +0.000 A 
ATOM      2  C   UNL     1       7.110   4.395  17.136  0.00  0.00    +0.000 A 
ATOM      3  C   UNL     1       7.148   5.089  18.339  0.00  0.00    +0.000 A 
ATOM      4  C   UNL     1       6.094   5.937  18.682  0.00  0.00    +0.000 A 
ATOM      5  C   UNL     1       5.001   6.125  17.829  0.00  0.00    +0.000 A 
ATOM      6  C   UNL     1       4.941   5.371  16.645  0.00  0.00    +0.000 A 
ENDROOT
BRANCH   5   7
ATOM      7  N   UNL     1       3.983   7.065  18.110  0.00  0.00    +0.000 N 
ATOM      8  C   UNL     1       2.880   6.848  18.914  0.00  0.00    +0.000 C 
ATOM      9  O   UNL     1       2.627   5.797  19.501  0.00  0.00    +0.000 OA
ATOM     10  H   UNL     1       4.068   8.019  17.758  0.00  0.00    +0.000 HD
BRANCH   8  11
ATOM     11  C   UNL     1       1.951   8.045  19.084  0.00  0.00    +0.000 C 
ATOM     12  C   UNL     1       1.780   8.745  17.947  0.00  0.00    +0.000 C 
ATOM     13  C   UNL     1       0.978   9.987  17.847  0.00  0.00    +0.000 C 
ATOM     14  C   UNL     1       0.372  10.484  19.153  0.00  0.00    +0.000 C 
ATOM     15  C   UNL     1       0.759   9.764  20.444  0.00  0.00    +0.000 C 
ATOM     16  N   UNL     1       1.348   8.417  20.287  0.00  0.00    +0.000 N 
BRANCH  16  17
ATOM     17  N   UNL     1       1.742   7.760  21.484  0.00  0.00    +0.000 NA
ATOM     18  H   UNL     1       1.972   8.441  22.214  0.00  0.00    +0.000 HD
ATOM     19  H   UNL     1       2.609   7.238  21.321  0.00  0.00    +0.000 HD
ENDBRANCH  16  17
ENDBRANCH   8  11
ENDBRANCH   5   7
BRANCH   1  20
ATOM     20  C   UNL     1       5.982   3.710  15.001  0.00  0.00    +0.000 C 
BRANCH  20  26
ATOM     21  C   UNL     1       5.835   2.915  11.939  0.00  0.00    +0.000 C 
ATOM     22  N   UNL     1       6.620   3.963  12.536  0.00  0.00    +0.000 N 
ATOM     23  C   UNL     1       7.493   4.764  11.865  0.00  0.00    +0.000 A 
ATOM     24  N   UNL     1       8.047   5.609  12.700  0.00  0.00    +0.000 NA
ATOM     25  N   UNL     1       7.537   5.352  13.948  0.00  0.00    +0.000 NA
ATOM     26  C   UNL     1       6.680   4.354  13.852  0.00  0.00    +0.000 A 
ENDBRANCH  20  26
ENDBRANCH   1  20
TORSDOF 5
ENDMDL
MODEL 4
REMARK VINA RESULT:      -7.9      1.078      1.144
REMARK  Name = 
REMARK  6 active torsions:
REMARK  status: ('A' for Active; 'I' for Inactive)
REMARK    1  A    between atoms: C_1  and  N_2
REMARK    2  A    between atoms: C_6  and  C_7
REMARK    3  A    between atoms: C_7  and  C_8
REMARK    4  A    between atoms: C_12  and  N_13
REMARK    5  A    between atoms: C_14  and  C_16
REMARK    6  A    between atoms: N_21  and  N_22
REMARK                            x       y       z     vdW  Elec       q    Type
REMARK                         _______ _______ _______ _____ _____    ______ ____
ROOT
ATOM      1  C   UNL     1       4.092   4.036  19.297  0.00  0.00    +0.000 A 
ATOM      2  C   UNL     1       3.736   2.871  19.992  0.00  0.00    +0.000 A 
ATOM      3  C   UNL     1       2.685   2.886  20.900  0.00  0.00    +0.000 A 
ATOM      4  C   UNL     1       2.016   4.082  21.163  0.00  0.00    +0.000 A 
ATOM      5  C   UNL     1       2.392   5.281  20.545  0.00  0.00    +0.000 A 
ATOM      6  C   UNL     1       3.413   5.243  19.582  0.00  0.00    +0.000 A 
ENDROOT
BRANCH   5   7
ATOM      7  N   UNL     1       1.798   6.518  20.886  0.00  0.00    +0.000 N 
ATOM      8  C   UNL     1       1.818   7.665  20.115  0.00  0.00    +0.000 C 
ATOM      9  O   UNL     1       2.359   7.770  19.015  0.00  0.00    +0.000 OA
ATOM     10  H   UNL     1       1.245   6.592  21.740  0.00  0.00    +0.000 HD
BRANCH   8  11
ATOM     11  C   UNL     1       1.066   8.856  20.699  0.00  0.00    +0.000 C 
ATOM     12  C   UNL     1       0.880   8.762  22.028  0.00  0.00    +0.000 C 
ATOM     13  C   UNL     1       0.127   9.750  22.835  0.00  0.00    +0.000 C 
ATOM     14  C   UNL     1      -0.496  10.899  22.053  0.00  0.00    +0.000 C 
ATOM     15  C   UNL     1      -0.422  10.851  20.527  0.00  0.00    +0.000 C 
ATOM     16  N   UNL     1       0.584   9.933  19.952  0.00  0.00    +0.000 N 
BRANCH  16  17
ATOM     17  N   UNL     1       0.629   9.860  18.533  0.00  0.00    +0.000 NA
ATOM     18  H   UNL     1      -0.302  10.002  18.132  0.00  0.00    +0.000 HD
ATOM     19  H   UNL     1       0.905   8.915  18.246  0.00  0.00    +0.000 HD
ENDBRANCH  16  17
ENDBRANCH   8  11
ENDBRANCH   5   7
BRANCH   1  20
ATOM     20  C   UNL     1       5.227   3.973  18.299  0.00  0.00    +0.000 C 
BRANCH  20  26
ATOM     21  C   UNL     1       5.410   6.541  16.456  0.00  0.00    +0.000 C 
ATOM     22  N   UNL     1       6.281   6.178  17.541  0.00  0.00    +0.000 N 
ATOM     23  C   UNL     1       7.389   6.874  17.921  0.00  0.00    +0.000 A 
ATOM     24  N   UNL     1       7.959   6.274  18.936  0.00  0.00    +0.000 NA
ATOM     25  N   UNL     1       7.219   5.155  19.226  0.00  0.00    +0.000 NA
ATOM     26  C   UNL     1       6.209   5.092  18.379  0.00  0.00    +0.000 A 
ENDBRANCH  20  26
ENDBRANCH   1  20
TORSDOF 5
ENDMDL
MODEL 5
REMARK VINA RESULT:      -7.9      2.300      4.029
REMARK  Name = 
REMARK  6 active torsions:
REMARK  status: ('A' for Active; 'I' for Inactive)
REMARK    1  A    between atoms: C_1  and  N_2
REMARK    2  A    between atoms: C_6  and  C_7
REMARK    3  A    between atoms: C_7  and  C_8
REMARK    4  A    between atoms: C_12  and  N_13
REMARK    5  A    between atoms: C_14  and  C_16
REMARK    6  A    between atoms: N_21  and  N_22
REMARK                            x       y       z     vdW  Elec       q    Type
REMARK                         _______ _______ _______ _____ _____    ______ ____
ROOT
ATOM      1  C   UNL     1       4.000   4.052  17.785  0.00  0.00    +0.000 A 
ATOM      2  C   UNL     1       4.946   4.241  16.767  0.00  0.00    +0.000 A 
ATOM      3  C   UNL     1       5.246   5.520  16.314  0.00  0.00    +0.000 A 
ATOM      4  C   UNL     1       4.561   6.617  16.838  0.00  0.00    +0.000 A 
ATOM      5  C   UNL     1       3.556   6.460  17.800  0.00  0.00    +0.000 A 
ATOM      6  C   UNL     1       3.305   5.172  18.297  0.00  0.00    +0.000 A 
ENDROOT
BRANCH   5   7
ATOM      7  N   UNL     1       2.778   7.549  18.255  0.00  0.00    +0.000 N 
ATOM      8  C   UNL     1       2.079   7.602  19.447  0.00  0.00    +0.000 C 
ATOM      9  O   UNL     1       2.037   6.702  20.284  0.00  0.00    +0.000 OA
ATOM     10  H   UNL     1       2.755   8.413  17.714  0.00  0.00    +0.000 HD
BRANCH   8  11
ATOM     11  C   UNL     1       1.348   8.913  19.716  0.00  0.00    +0.000 C 
ATOM     12  C   UNL     1       1.015   9.571  18.590  0.00  0.00    +0.000 C 
ATOM     13  C   UNL     1       0.354  10.898  18.566  0.00  0.00    +0.000 C 
ATOM     14  C   UNL     1       0.103  11.531  19.929  0.00  0.00    +0.000 C 
ATOM     15  C   UNL     1       0.677  10.833  21.161  0.00  0.00    +0.000 C 
ATOM     16  N   UNL     1       1.063   9.417  20.987  0.00  0.00    +0.000 N 
BRANCH  16  17
ATOM     17  N   UNL     1       1.630   8.776  22.122  0.00  0.00    +0.000 NA
ATOM     18  H   UNL     1       0.948   8.713  22.883  0.00  0.00    +0.000 HD
ATOM     19  H   UNL     1       2.396   9.349  22.494  0.00  0.00    +0.000 HD
ENDBRANCH  16  17
ENDBRANCH   8  11
ENDBRANCH   5   7
BRANCH   1  20
ATOM     20  C   UNL     1       3.717   2.646  18.267  0.00  0.00    +0.000 C 
BRANCH  20  26
ATOM     21  C   UNL     1       0.623   2.527  18.927  0.00  0.00    +0.000 C 
ATOM     22  N   UNL     1       1.719   2.532  19.860  0.00  0.00    +0.000 N 
ATOM     23  C   UNL     1       1.591   2.544  21.216  0.00  0.00    +0.000 A 
ATOM     24  N   UNL     1       2.778   2.551  21.770  0.00  0.00    +0.000 NA
ATOM     25  N   UNL     1       3.707   2.553  20.760  0.00  0.00    +0.000 NA
ATOM     26  C   UNL     1       3.068   2.549  19.605  0.00  0.00    +0.000 A 
ENDBRANCH  20  26
ENDBRANCH   1  20
TORSDOF 5
ENDMDL
MODEL 6
REMARK VINA RESULT:      -7.8      1.947      2.666
REMARK  Name = 
REMARK  6 active torsions:
REMARK  status: ('A' for Active; 'I' for Inactive)
REMARK    1  A    between atoms: C_1  and  N_2
REMARK    2  A    between atoms: C_6  and  C_7
REMARK    3  A    between atoms: C_7  and  C_8
REMARK    4  A    between atoms: C_12  and  N_13
REMARK    5  A    between atoms: C_14  and  C_16
REMARK    6  A    between atoms: N_21  and  N_22
REMARK                            x       y       z     vdW  Elec       q    Type
REMARK                         _______ _______ _______ _____ _____    ______ ____
ROOT
ATOM      1  C   UNL     1       4.774   4.614  17.336  0.00  0.00    +0.000 A 
ATOM      2  C   UNL     1       4.010   3.438  17.330  0.00  0.00    +0.000 A 
ATOM      3  C   UNL     1       2.638   3.489  17.539  0.00  0.00    +0.000 A 
ATOM      4  C   UNL     1       2.025   4.713  17.809  0.00  0.00    +0.000 A 
ATOM      5  C   UNL     1       2.765   5.897  17.898  0.00  0.00    +0.000 A 
ATOM      6  C   UNL     1       4.141   5.846  17.624  0.00  0.00    +0.000 A 
ENDROOT
BRANCH   5   7
ATOM      7  N   UNL     1       2.175   7.123  18.283  0.00  0.00    +0.000 N 
ATOM      8  C   UNL     1       1.923   7.528  19.580  0.00  0.00    +0.000 C 
ATOM      9  O   UNL     1       2.178   6.872  20.590  0.00  0.00    +0.000 OA
ATOM     10  H   UNL     1       1.960   7.823  17.573  0.00  0.00    +0.000 HD
BRANCH   8  11
ATOM     11  C   UNL     1       1.312   8.918  19.723  0.00  0.00    +0.000 C 
ATOM     12  C   UNL     1       0.624   9.076  20.869  0.00  0.00    +0.000 C 
ATOM     13  C   UNL     1      -0.120  10.305  21.230  0.00  0.00    +0.000 C 
ATOM     14  C   UNL     1      -0.113  11.409  20.181  0.00  0.00    +0.000 C 
ATOM     15  C   UNL     1       0.515  11.103  18.822  0.00  0.00    +0.000 C 
ATOM     16  N   UNL     1       1.415   9.932  18.768  0.00  0.00    +0.000 N 
BRANCH  16  17
ATOM     17  N   UNL     1       1.971   9.624  17.497  0.00  0.00    +0.000 NA
ATOM     18  H   UNL     1       1.341   9.916  16.744  0.00  0.00    +0.000 HD
ATOM     19  H   UNL     1       2.056   8.606  17.396  0.00  0.00    +0.000 HD
ENDBRANCH  16  17
ENDBRANCH   8  11
ENDBRANCH   5   7
BRANCH   1  20
ATOM     20  C   UNL     1       6.262   4.520  17.082  0.00  0.00    +0.000 C 
BRANCH  20  26
ATOM     21  C   UNL     1       7.565   5.509  19.793  0.00  0.00    +0.000 C 
ATOM     22  N   UNL     1       7.557   6.189  18.525  0.00  0.00    +0.000 N 
ATOM     23  C   UNL     1       8.074   7.429  18.299  0.00  0.00    +0.000 A 
ATOM     24  N   UNL     1       7.901   7.757  17.044  0.00  0.00    +0.000 NA
ATOM     25  N   UNL     1       7.246   6.718  16.430  0.00  0.00    +0.000 NA
ATOM     26  C   UNL     1       7.032   5.773  17.326  0.00  0.00    +0.000 A 
ENDBRANCH  20  26
ENDBRANCH   1  20
TORSDOF 5
ENDMDL
MODEL 7
REMARK VINA RESULT:      -7.8      1.569      2.100
REMARK  Name = 
REMARK  6 active torsions:
REMARK  status: ('A' for Active; 'I' for Inactive)
REMARK    1  A    between atoms: C_1  and  N_2
REMARK    2  A    between atoms: C_6  and  C_7
REMARK    3  A    between atoms: C_7  and  C_8
REMARK    4  A    between atoms: C_12  and  N_13
REMARK    5  A    between atoms: C_14  and  C_16
REMARK    6  A    between atoms: N_21  and  N_22
REMARK                            x       y       z     vdW  Elec       q    Type
REMARK                         _______ _______ _______ _____ _____    ______ ____
ROOT
ATOM      1  C   UNL     1       4.811   4.521  18.382  0.00  0.00    +0.000 A 
ATOM      2  C   UNL     1       4.405   3.284  18.904  0.00  0.00    +0.000 A 
ATOM      3  C   UNL     1       3.301   3.203  19.743  0.00  0.00    +0.000 A 
ATOM      4  C   UNL     1       2.626   4.367  20.112  0.00  0.00    +0.000 A 
ATOM      5  C   UNL     1       3.048   5.627  19.672  0.00  0.00    +0.000 A 
ATOM      6  C   UNL     1       4.125   5.694  18.774  0.00  0.00    +0.000 A 
ENDROOT
BRANCH   5   7
ATOM      7  N   UNL     1       2.444   6.821  20.128  0.00  0.00    +0.000 N 
ATOM      8  C   UNL     1       1.931   7.826  19.328  0.00  0.00    +0.000 C 
ATOM      9  O   UNL     1       1.930   7.821  18.098  0.00  0.00    +0.000 OA
ATOM     10  H   UNL     1       2.299   6.962  21.128  0.00  0.00    +0.000 HD
BRANCH   8  11
ATOM     11  C   UNL     1       1.297   8.995  20.075  0.00  0.00    +0.000 C 
ATOM     12  C   UNL     1       1.012   8.707  21.358  0.00  0.00    +0.000 C 
ATOM     13  C   UNL     1       0.337   9.640  22.290  0.00  0.00    +0.000 C 
ATOM     14  C   UNL     1      -0.083  10.977  21.691  0.00  0.00    +0.000 C 
ATOM     15  C   UNL     1       0.088  11.173  20.185  0.00  0.00    +0.000 C 
ATOM     16  N   UNL     1       1.006  10.236  19.506  0.00  0.00    +0.000 N 
BRANCH  16  17
ATOM     17  N   UNL     1       1.138  10.394  18.099  0.00  0.00    +0.000 NA
ATOM     18  H   UNL     1       0.706  11.269  17.790  0.00  0.00    +0.000 HD
ATOM     19  H   UNL     1       0.617   9.652  17.619  0.00  0.00    +0.000 HD
ENDBRANCH  16  17
ENDBRANCH   8  11
ENDBRANCH   5   7
BRANCH   1  20
ATOM     20  C   UNL     1       6.004   4.565  17.454  0.00  0.00    +0.000 C 
BRANCH  20  26
ATOM     21  C   UNL     1       7.994   5.602  19.688  0.00  0.00    +0.000 C 
ATOM     22  N   UNL     1       7.612   6.274  18.474  0.00  0.00    +0.000 N 
ATOM     23  C   UNL     1       8.014   7.524  18.113  0.00  0.00    +0.000 A 
ATOM     24  N   UNL     1       7.485   7.840  16.957  0.00  0.00    +0.000 NA
ATOM     25  N   UNL     1       6.710   6.782  16.553  0.00  0.00    +0.000 NA
ATOM     26  C   UNL     1       6.780   5.838  17.472  0.00  0.00    +0.000 A 
ENDBRANCH  20  26
ENDBRANCH   1  20
TORSDOF 5
ENDMDL
MODEL 8
REMARK VINA RESULT:      -7.8      1.508      1.718
REMARK  Name = 
REMARK  6 active torsions:
REMARK  status: ('A' for Active; 'I' for Inactive)
REMARK    1  A    between atoms: C_1  and  N_2
REMARK    2  A    between atoms: C_6  and  C_7
REMARK    3  A    between atoms: C_7  and  C_8
REMARK    4  A    between atoms: C_12  and  N_13
REMARK    5  A    between atoms: C_14  and  C_16
REMARK    6  A    between atoms: N_21  and  N_22
REMARK                            x       y       z     vdW  Elec       q    Type
REMARK                         _______ _______ _______ _____ _____    ______ ____
ROOT
ATOM      1  C   UNL     1       3.949   4.452  19.356  0.00  0.00    +0.000 A 
ATOM      2  C   UNL     1       3.217   3.451  20.011  0.00  0.00    +0.000 A 
ATOM      3  C   UNL     1       2.013   3.754  20.635  0.00  0.00    +0.000 A 
ATOM      4  C   UNL     1       1.559   5.073  20.656  0.00  0.00    +0.000 A 
ATOM      5  C   UNL     1       2.300   6.111  20.080  0.00  0.00    +0.000 A 
ATOM      6  C   UNL     1       3.483   5.786  19.397  0.00  0.00    +0.000 A 
ENDROOT
BRANCH   5   7
ATOM      7  N   UNL     1       1.908   7.465  20.193  0.00  0.00    +0.000 N 
ATOM      8  C   UNL     1       1.666   8.328  19.142  0.00  0.00    +0.000 C 
ATOM      9  O   UNL     1       1.758   8.037  17.950  0.00  0.00    +0.000 OA
ATOM     10  H   UNL     1       1.717   7.858  21.115  0.00  0.00    +0.000 HD
BRANCH   8  11
ATOM     11  C   UNL     1       1.217   9.731  19.539  0.00  0.00    +0.000 C 
ATOM     12  C   UNL     1       0.475   9.748  20.662  0.00  0.00    +0.000 C 
ATOM     13  C   UNL     1      -0.140  10.968  21.234  0.00  0.00    +0.000 C 
ATOM     14  C   UNL     1       0.073  12.248  20.435  0.00  0.00    +0.000 C 
ATOM     15  C   UNL     1       0.754  12.136  19.071  0.00  0.00    +0.000 C 
ATOM     16  N   UNL     1       1.508  10.890  18.819  0.00  0.00    +0.000 N 
BRANCH  16  17
ATOM     17  N   UNL     1       2.111  10.770  17.537  0.00  0.00    +0.000 NA
ATOM     18  H   UNL     1       1.414  10.518  16.830  0.00  0.00    +0.000 HD
ATOM     19  H   UNL     1       2.780   9.992  17.544  0.00  0.00    +0.000 HD
ENDBRANCH  16  17
ENDBRANCH   8  11
ENDBRANCH   5   7
BRANCH   1  20
ATOM     20  C   UNL     1       5.244   4.078  18.669  0.00  0.00    +0.000 C 
BRANCH  20  26
ATOM     21  C   UNL     1       5.549   6.142  16.287  0.00  0.00    +0.000 C 
ATOM     22  N   UNL     1       6.363   6.041  17.469  0.00  0.00    +0.000 N 
ATOM     23  C   UNL     1       7.461   6.804  17.730  0.00  0.00    +0.000 A 
ATOM     24  N   UNL     1       7.974   6.458  18.884  0.00  0.00    +0.000 NA
ATOM     25  N   UNL     1       7.206   5.440  19.390  0.00  0.00    +0.000 NA
ATOM     26  C   UNL     1       6.236   5.182  18.533  0.00  0.00    +0.000 A 
ENDBRANCH  20  26
ENDBRANCH   1  20
TORSDOF 5
ENDMDL
MODEL 9
REMARK VINA RESULT:      -7.8      2.332      3.843
REMARK  Name = 
REMARK  6 active torsions:
REMARK  status: ('A' for Active; 'I' for Inactive)
REMARK    1  A    between atoms: C_1  and  N_2
REMARK    2  A    between atoms: C_6  and  C_7
REMARK    3  A    between atoms: C_7  and  C_8
REMARK    4  A    between atoms: C_12  and  N_13
REMARK    5  A    between atoms: C_14  and  C_16
REMARK    6  A    between atoms: N_21  and  N_22
REMARK                            x       y       z     vdW  Elec       q    Type
REMARK                         _______ _______ _______ _____ _____    ______ ____
ROOT
ATOM      1  C   UNL     1       3.802   4.354  18.024  0.00  0.00    +0.000 A 
ATOM      2  C   UNL     1       4.578   4.665  16.899  0.00  0.00    +0.000 A 
ATOM      3  C   UNL     1       4.789   5.989  16.534  0.00  0.00    +0.000 A 
ATOM      4  C   UNL     1       4.179   7.012  17.261  0.00  0.00    +0.000 A 
ATOM      5  C   UNL     1       3.336   6.736  18.343  0.00  0.00    +0.000 A 
ATOM      6  C   UNL     1       3.179   5.400  18.744  0.00  0.00    +0.000 A 
ENDROOT
BRANCH   5   7
ATOM      7  N   UNL     1       2.622   7.755  19.015  0.00  0.00    +0.000 N 
ATOM      8  C   UNL     1       1.925   8.787  18.416  0.00  0.00    +0.000 C 
ATOM      9  O   UNL     1       1.829   8.965  17.202  0.00  0.00    +0.000 OA
ATOM     10  H   UNL     1       2.538   7.724  20.032  0.00  0.00    +0.000 HD
BRANCH   8  11
ATOM     11  C   UNL     1       1.208   9.733  19.372  0.00  0.00    +0.000 C 
ATOM     12  C   UNL     1       0.579   9.091  20.374  0.00  0.00    +0.000 C 
ATOM     13  C   UNL     1      -0.244   9.765  21.406  0.00  0.00    +0.000 C 
ATOM     14  C   UNL     1      -0.394  11.272  21.246  0.00  0.00    +0.000 C 
ATOM     15  C   UNL     1       0.176  11.920  19.985  0.00  0.00    +0.000 C 
ATOM     16  N   UNL     1       1.168  11.122  19.234  0.00  0.00    +0.000 N 
BRANCH  16  17
ATOM     17  N   UNL     1       1.672  11.708  18.041  0.00  0.00    +0.000 NA
ATOM     18  H   UNL     1       0.915  12.130  17.495  0.00  0.00    +0.000 HD
ATOM     19  H   UNL     1       2.062  10.976  17.436  0.00  0.00    +0.000 HD
ENDBRANCH  16  17
ENDBRANCH   8  11
ENDBRANCH   5   7
BRANCH   1  20
ATOM     20  C   UNL     1       3.615   2.901  18.403  0.00  0.00    +0.000 C 
BRANCH  20  26
ATOM     21  C   UNL     1       0.525   2.652  19.049  0.00  0.00    +0.000 C 
ATOM     22  N   UNL     1       1.622   2.594  19.978  0.00  0.00    +0.000 N 
ATOM     23  C   UNL     1       1.497   2.477  21.330  0.00  0.00    +0.000 A 
ATOM     24  N   UNL     1       2.684   2.458  21.882  0.00  0.00    +0.000 NA
ATOM     25  N   UNL     1       3.611   2.575  20.877  0.00  0.00    +0.000 NA
ATOM     26  C   UNL     1       2.971   2.665  19.727  0.00  0.00    +0.000 A 
ENDBRANCH  20  26
ENDBRANCH   1  20
TORSDOF 5
ENDMDL
