MODEL 1
REMARK VINA RESULT:      -9.4      0.000      0.000
REMARK  Name = 
REMARK  3 active torsions:
REMARK  status: ('A' for Active; 'I' for Inactive)
REMARK    1  A    between atoms: C_1  and  C_2
REMARK    2  A    between atoms: C_5  and  C_6
REMARK    3  A    between atoms: C_13  and  N_14
REMARK                            x       y       z     vdW  Elec       q    Type
REMARK                         _______ _______ _______ _____ _____    ______ ____
ROOT
ATOM      1  N   UNL     1       2.275   6.445  20.077  0.00  0.00    +0.000 N 
ATOM      2  C   UNL     1       1.975   7.639  19.414  0.00  0.00    +0.000 C 
ATOM      3  O   UNL     1       2.209   7.862  18.234  0.00  0.00    +0.000 OA
ATOM      4  N   UNL     1       1.371   8.630  20.212  0.00  0.00    +0.000 N 
ATOM      5  C   UNL     1       1.084   8.506  21.636  0.00  0.00    +0.000 C 
ATOM      6  C   UNL     1      -0.131   9.324  22.052  0.00  0.00    +0.000 C 
ATOM      7  C   UNL     1       0.005  10.782  21.626  0.00  0.00    +0.000 C 
ATOM      8  C   UNL     1       0.288  10.917  20.114  0.00  0.00    +0.000 C 
ATOM      9  C   UNL     1      -0.941  10.575  19.257  0.00  0.00    +0.000 C 
ATOM     10  N   UNL     1      -1.533  11.835  18.926  0.00  0.00    +0.000 N 
ATOM     11  C   UNL     1      -0.632  12.869  19.000  0.00  0.00    +0.000 C 
ATOM     12  O   UNL     1      -0.791  13.970  18.502  0.00  0.00    +0.000 OA
ATOM     13  C   UNL     1       0.579  12.400  19.760  0.00  0.00    +0.000 C 
ATOM     14  C   UNL     1       1.479  10.018  19.724  0.00  0.00    +0.000 C 
ATOM     15  H   UNL     1       1.922   6.315  20.999  0.00  0.00    +0.000 HD
ATOM     16  H   UNL     1      -2.345  11.943  18.330  0.00  0.00    +0.000 HD
ENDROOT
BRANCH   1  23
ATOM     17  C   UNL     1       1.833   3.668  21.203  0.00  0.00    +0.000 C 
ATOM     18  C   UNL     1       2.756   4.017  20.065  0.00  0.00    +0.000 A 
ATOM     19  C   UNL     1       3.435   2.931  19.483  0.00  0.00    +0.000 A 
ATOM     20  C   UNL     1       4.302   3.108  18.410  0.00  0.00    +0.000 A 
ATOM     21  C   UNL     1       4.534   4.377  17.881  0.00  0.00    +0.000 A 
ATOM     22  C   UNL     1       3.867   5.464  18.478  0.00  0.00    +0.000 A 
ATOM     23  C   UNL     1       2.963   5.316  19.542  0.00  0.00    +0.000 A 
BRANCH  21  24
ATOM     24  C   UNL     1       5.401   4.568  16.707  0.00  0.00    +0.000 A 
ATOM     25  C   UNL     1       5.114   4.006  15.460  0.00  0.00    +0.000 A 
ATOM     26  C   UNL     1       5.991   4.175  14.389  0.00  0.00    +0.000 A 
ATOM     27  C   UNL     1       7.138   4.923  14.590  0.00  0.00    +0.000 A 
ATOM     28  N   UNL     1       7.458   5.503  15.761  0.00  0.00    +0.000 NA
ATOM     29  C   UNL     1       6.590   5.302  16.786  0.00  0.00    +0.000 A 
ENDBRANCH  21  24
ENDBRANCH   1  23
TORSDOF 2
ENDMDL
MODEL 2
REMARK VINA RESULT:      -8.8      2.339      8.553
REMARK  Name = 
REMARK  3 active torsions:
REMARK  status: ('A' for Active; 'I' for Inactive)
REMARK    1  A    between atoms: C_1  and  C_2
REMARK    2  A    between atoms: C_5  and  C_6
REMARK    3  A    between atoms: C_13  and  N_14
REMARK                            x       y       z     vdW  Elec       q    Type
REMARK                         _______ _______ _______ _____ _____    ______ ____
ROOT
ATOM      1  N   UNL     1       1.797   7.990  19.541  0.00  0.00    +0.000 N 
ATOM      2  C   UNL     1       2.588   7.833  18.398  0.00  0.00    +0.000 C 
ATOM      3  O   UNL     1       2.584   8.589  17.435  0.00  0.00    +0.000 OA
ATOM      4  N   UNL     1       3.422   6.698  18.399  0.00  0.00    +0.000 N 
ATOM      5  C   UNL     1       3.484   5.700  19.459  0.00  0.00    +0.000 C 
ATOM      6  C   UNL     1       4.861   5.059  19.566  0.00  0.00    +0.000 C 
ATOM      7  C   UNL     1       5.320   4.493  18.227  0.00  0.00    +0.000 C 
ATOM      8  C   UNL     1       5.275   5.555  17.106  0.00  0.00    +0.000 C 
ATOM      9  C   UNL     1       6.378   6.614  17.261  0.00  0.00    +0.000 C 
ATOM     10  N   UNL     1       7.425   6.201  16.378  0.00  0.00    +0.000 N 
ATOM     11  C   UNL     1       6.966   5.386  15.372  0.00  0.00    +0.000 C 
ATOM     12  O   UNL     1       7.574   5.136  14.345  0.00  0.00    +0.000 OA
ATOM     13  C   UNL     1       5.592   4.895  15.738  0.00  0.00    +0.000 C 
ATOM     14  C   UNL     1       3.888   6.227  17.080  0.00  0.00    +0.000 C 
ATOM     15  H   UNL     1       1.974   7.398  20.321  0.00  0.00    +0.000 HD
ATOM     16  H   UNL     1       8.280   6.722  16.225  0.00  0.00    +0.000 HD
ENDROOT
BRANCH   1  23
ATOM     17  C   UNL     1       1.786   9.631  22.086  0.00  0.00    +0.000 C 
ATOM     18  C   UNL     1       0.800   9.759  20.955  0.00  0.00    +0.000 A 
ATOM     19  C   UNL     1      -0.182  10.754  21.119  0.00  0.00    +0.000 A 
ATOM     20  C   UNL     1      -1.142  10.994  20.142  0.00  0.00    +0.000 A 
ATOM     21  C   UNL     1      -1.168  10.244  18.967  0.00  0.00    +0.000 A 
ATOM     22  C   UNL     1      -0.196   9.236  18.815  0.00  0.00    +0.000 A 
ATOM     23  C   UNL     1       0.805   8.989  19.768  0.00  0.00    +0.000 A 
BRANCH  21  24
ATOM     24  C   UNL     1      -2.141  10.530  17.900  0.00  0.00    +0.000 A 
ATOM     25  C   UNL     1      -2.019  10.006  16.610  0.00  0.00    +0.000 A 
ATOM     26  C   UNL     1      -2.939  10.344  15.619  0.00  0.00    +0.000 A 
ATOM     27  C   UNL     1      -3.978  11.196  15.950  0.00  0.00    +0.000 A 
ATOM     28  N   UNL     1      -4.158  11.717  17.177  0.00  0.00    +0.000 NA
ATOM     29  C   UNL     1      -3.232  11.379  18.112  0.00  0.00    +0.000 A 
ENDBRANCH  21  24
ENDBRANCH   1  23
TORSDOF 2
ENDMDL
MODEL 3
REMARK VINA RESULT:      -8.1      1.776      2.318
REMARK  Name = 
REMARK  3 active torsions:
REMARK  status: ('A' for Active; 'I' for Inactive)
REMARK    1  A    between atoms: C_1  and  C_2
REMARK    2  A    between atoms: C_5  and  C_6
REMARK    3  A    between atoms: C_13  and  N_14
REMARK                            x       y       z     vdW  Elec       q    Type
REMARK                         _______ _______ _______ _____ _____    ______ ____
ROOT
ATOM      1  N   UNL     1       1.682   7.708  18.833  0.00  0.00    +0.000 N 
ATOM      2  C   UNL     1       1.488   8.534  19.945  0.00  0.00    +0.000 C 
ATOM      3  O   UNL     1       2.055   8.403  21.021  0.00  0.00    +0.000 OA
ATOM      4  N   UNL     1       0.551   9.569  19.764  0.00  0.00    +0.000 N 
ATOM      5  C   UNL     1      -0.223   9.803  18.551  0.00  0.00    +0.000 C 
ATOM      6  C   UNL     1      -0.562  11.275  18.358  0.00  0.00    +0.000 C 
ATOM      7  C   UNL     1      -1.248  11.857  19.589  0.00  0.00    +0.000 C 
ATOM      8  C   UNL     1      -0.419  11.630  20.873  0.00  0.00    +0.000 C 
ATOM      9  C   UNL     1       0.842  12.507  20.916  0.00  0.00    +0.000 C 
ATOM     10  N   UNL     1       0.493  13.629  21.733  0.00  0.00    +0.000 N 
ATOM     11  C   UNL     1      -0.553  13.352  22.579  0.00  0.00    +0.000 C 
ATOM     12  O   UNL     1      -0.853  14.014  23.557  0.00  0.00    +0.000 OA
ATOM     13  C   UNL     1      -1.229  12.091  22.114  0.00  0.00    +0.000 C 
ATOM     14  C   UNL     1      -0.039  10.140  20.991  0.00  0.00    +0.000 C 
ATOM     15  H   UNL     1       1.275   7.981  17.966  0.00  0.00    +0.000 HD
ATOM     16  H   UNL     1       1.135  14.372  21.984  0.00  0.00    +0.000 HD
ENDROOT
BRANCH   1  23
ATOM     17  C   UNL     1       1.276   5.404  20.755  0.00  0.00    +0.000 C 
ATOM     18  C   UNL     1       2.307   5.460  19.659  0.00  0.00    +0.000 A 
ATOM     19  C   UNL     1       3.116   4.316  19.530  0.00  0.00    +0.000 A 
ATOM     20  C   UNL     1       4.094   4.226  18.546  0.00  0.00    +0.000 A 
ATOM     21  C   UNL     1       4.311   5.278  17.657  0.00  0.00    +0.000 A 
ATOM     22  C   UNL     1       3.512   6.429  17.801  0.00  0.00    +0.000 A 
ATOM     23  C   UNL     1       2.496   6.540  18.764  0.00  0.00    +0.000 A 
BRANCH  21  24
ATOM     24  C   UNL     1       5.300   5.170  16.573  0.00  0.00    +0.000 A 
ATOM     25  C   UNL     1       5.146   4.289  15.498  0.00  0.00    +0.000 A 
ATOM     26  C   UNL     1       6.134   4.188  14.519  0.00  0.00    +0.000 A 
ATOM     27  C   UNL     1       7.257   4.987  14.633  0.00  0.00    +0.000 A 
ATOM     28  N   UNL     1       7.454   5.865  15.634  0.00  0.00    +0.000 NA
ATOM     29  C   UNL     1       6.479   5.924  16.578  0.00  0.00    +0.000 A 
ENDBRANCH  21  24
ENDBRANCH   1  23
TORSDOF 2
ENDMDL
MODEL 4
REMARK VINA RESULT:      -7.9      3.080      8.585
REMARK  Name = 
REMARK  3 active torsions:
REMARK  status: ('A' for Active; 'I' for Inactive)
REMARK    1  A    between atoms: C_1  and  C_2
REMARK    2  A    between atoms: C_5  and  C_6
REMARK    3  A    between atoms: C_13  and  N_14
REMARK                            x       y       z     vdW  Elec       q    Type
REMARK                         _______ _______ _______ _____ _____    ______ ____
ROOT
ATOM      1  N   UNL     1       1.654   9.557  18.530  0.00  0.00    +0.000 N 
ATOM      2  C   UNL     1       1.435   8.580  19.507  0.00  0.00    +0.000 C 
ATOM      3  O   UNL     1       0.760   8.738  20.515  0.00  0.00    +0.000 OA
ATOM      4  N   UNL     1       2.072   7.346  19.271  0.00  0.00    +0.000 N 
ATOM      5  C   UNL     1       2.937   7.048  18.137  0.00  0.00    +0.000 C 
ATOM      6  C   UNL     1       2.889   5.577  17.747  0.00  0.00    +0.000 C 
ATOM      7  C   UNL     1       3.184   4.673  18.939  0.00  0.00    +0.000 C 
ATOM      8  C   UNL     1       2.254   4.972  20.135  0.00  0.00    +0.000 C 
ATOM      9  C   UNL     1       0.812   4.504  19.884  0.00  0.00    +0.000 C 
ATOM     10  N   UNL     1       0.707   3.237  20.541  0.00  0.00    +0.000 N 
ATOM     11  C   UNL     1       1.638   3.089  21.540  0.00  0.00    +0.000 C 
ATOM     12  O   UNL     1       1.585   2.254  22.425  0.00  0.00    +0.000 OA
ATOM     13  C   UNL     1       2.697   4.145  21.371  0.00  0.00    +0.000 C 
ATOM     14  C   UNL     1       2.279   6.482  20.449  0.00  0.00    +0.000 C 
ATOM     15  H   UNL     1       2.105   9.286  17.685  0.00  0.00    +0.000 HD
ATOM     16  H   UNL     1      -0.145   2.690  20.590  0.00  0.00    +0.000 HD
ENDROOT
BRANCH   1  23
ATOM     17  C   UNL     1      -1.290  10.240  18.335  0.00  0.00    +0.000 C 
ATOM     18  C   UNL     1      -0.166  11.233  18.468  0.00  0.00    +0.000 A 
ATOM     19  C   UNL     1      -0.556  12.584  18.529  0.00  0.00    +0.000 A 
ATOM     20  C   UNL     1       0.379  13.604  18.674  0.00  0.00    +0.000 A 
ATOM     21  C   UNL     1       1.741  13.318  18.752  0.00  0.00    +0.000 A 
ATOM     22  C   UNL     1       2.129  11.966  18.671  0.00  0.00    +0.000 A 
ATOM     23  C   UNL     1       1.210  10.911  18.556  0.00  0.00    +0.000 A 
BRANCH  21  24
ATOM     24  C   UNL     1       2.733  14.383  18.967  0.00  0.00    +0.000 A 
ATOM     25  C   UNL     1       3.025  15.347  17.998  0.00  0.00    +0.000 A 
ATOM     26  C   UNL     1       4.009  16.308  18.229  0.00  0.00    +0.000 A 
ATOM     27  C   UNL     1       4.673  16.290  19.442  0.00  0.00    +0.000 A 
ATOM     28  N   UNL     1       4.425  15.399  20.419  0.00  0.00    +0.000 NA
ATOM     29  C   UNL     1       3.473  14.467  20.152  0.00  0.00    +0.000 A 
ENDBRANCH  21  24
ENDBRANCH   1  23
TORSDOF 2
ENDMDL
MODEL 5
REMARK VINA RESULT:      -7.9      3.112      9.638
REMARK  Name = 
REMARK  3 active torsions:
REMARK  status: ('A' for Active; 'I' for Inactive)
REMARK    1  A    between atoms: C_1  and  C_2
REMARK    2  A    between atoms: C_5  and  C_6
REMARK    3  A    between atoms: C_13  and  N_14
REMARK                            x       y       z     vdW  Elec       q    Type
REMARK                         _______ _______ _______ _____ _____    ______ ____
ROOT
ATOM      1  N   UNL     1       1.083   9.767  19.338  0.00  0.00    +0.000 N 
ATOM      2  C   UNL     1       0.959   8.664  20.189  0.00  0.00    +0.000 C 
ATOM      3  O   UNL     1       0.278   8.638  21.205  0.00  0.00    +0.000 OA
ATOM      4  N   UNL     1       1.703   7.530  19.810  0.00  0.00    +0.000 N 
ATOM      5  C   UNL     1       2.585   7.449  18.653  0.00  0.00    +0.000 C 
ATOM      6  C   UNL     1       2.667   6.037  18.088  0.00  0.00    +0.000 C 
ATOM      7  C   UNL     1       3.049   5.027  19.164  0.00  0.00    +0.000 C 
ATOM      8  C   UNL     1       2.103   5.095  20.382  0.00  0.00    +0.000 C 
ATOM      9  C   UNL     1       0.707   4.532  20.069  0.00  0.00    +0.000 C 
ATOM     10  N   UNL     1       0.720   3.191  20.568  0.00  0.00    +0.000 N 
ATOM     11  C   UNL     1       1.667   3.009  21.547  0.00  0.00    +0.000 C 
ATOM     12  O   UNL     1       1.695   2.072  22.325  0.00  0.00    +0.000 OA
ATOM     13  C   UNL     1       2.625   4.169  21.512  0.00  0.00    +0.000 C 
ATOM     14  C   UNL     1       1.993   6.552  20.876  0.00  0.00    +0.000 C 
ATOM     15  H   UNL     1       1.552   9.641  18.469  0.00  0.00    +0.000 HD
ATOM     16  H   UNL     1      -0.078   2.568  20.546  0.00  0.00    +0.000 HD
ENDROOT
BRANCH   1  23
ATOM     17  C   UNL     1       2.423  12.233  18.200  0.00  0.00    +0.000 C 
ATOM     18  C   UNL     1       1.142  12.217  18.991  0.00  0.00    +0.000 A 
ATOM     19  C   UNL     1       0.530  13.470  19.177  0.00  0.00    +0.000 A 
ATOM     20  C   UNL     1      -0.669  13.597  19.871  0.00  0.00    +0.000 A 
ATOM     21  C   UNL     1      -1.299  12.480  20.417  0.00  0.00    +0.000 A 
ATOM     22  C   UNL     1      -0.674  11.230  20.246  0.00  0.00    +0.000 A 
ATOM     23  C   UNL     1       0.519  11.063  19.525  0.00  0.00    +0.000 A 
BRANCH  21  24
ATOM     24  C   UNL     1      -2.598  12.594  21.100  0.00  0.00    +0.000 A 
ATOM     25  C   UNL     1      -3.755  13.032  20.449  0.00  0.00    +0.000 A 
ATOM     26  C   UNL     1      -4.952  13.170  21.150  0.00  0.00    +0.000 A 
ATOM     27  C   UNL     1      -4.967  12.849  22.496  0.00  0.00    +0.000 A 
ATOM     28  N   UNL     1      -3.891  12.406  23.172  0.00  0.00    +0.000 NA
ATOM     29  C   UNL     1      -2.739  12.301  22.461  0.00  0.00    +0.000 A 
ENDBRANCH  21  24
ENDBRANCH   1  23
TORSDOF 2
ENDMDL
MODEL 6
REMARK VINA RESULT:      -7.9      2.313      8.640
REMARK  Name = 
REMARK  3 active torsions:
REMARK  status: ('A' for Active; 'I' for Inactive)
REMARK    1  A    between atoms: C_1  and  C_2
REMARK    2  A    between atoms: C_5  and  C_6
REMARK    3  A    between atoms: C_13  and  N_14
REMARK                            x       y       z     vdW  Elec       q    Type
REMARK                         _______ _______ _______ _____ _____    ______ ____
ROOT
ATOM      1  N   UNL     1       1.254   7.774  19.939  0.00  0.00    +0.000 N 
ATOM      2  C   UNL     1       2.362   7.592  19.107  0.00  0.00    +0.000 C 
ATOM      3  O   UNL     1       2.863   8.463  18.408  0.00  0.00    +0.000 OA
ATOM      4  N   UNL     1       2.896   6.289  19.099  0.00  0.00    +0.000 N 
ATOM      5  C   UNL     1       2.366   5.157  19.847  0.00  0.00    +0.000 C 
ATOM      6  C   UNL     1       3.450   4.159  20.229  0.00  0.00    +0.000 C 
ATOM      7  C   UNL     1       4.250   3.709  19.011  0.00  0.00    +0.000 C 
ATOM      8  C   UNL     1       4.832   4.906  18.229  0.00  0.00    +0.000 C 
ATOM      9  C   UNL     1       5.985   5.590  18.980  0.00  0.00    +0.000 C 
ATOM     10  N   UNL     1       7.181   5.054  18.405  0.00  0.00    +0.000 N 
ATOM     11  C   UNL     1       6.975   4.563  17.139  0.00  0.00    +0.000 C 
ATOM     12  O   UNL     1       7.856   4.323  16.332  0.00  0.00    +0.000 OA
ATOM     13  C   UNL     1       5.495   4.410  16.916  0.00  0.00    +0.000 C 
ATOM     14  C   UNL     1       3.713   5.924  17.925  0.00  0.00    +0.000 C 
ATOM     15  H   UNL     1       1.009   7.041  20.567  0.00  0.00    +0.000 HD
ATOM     16  H   UNL     1       8.116   5.343  18.665  0.00  0.00    +0.000 HD
ENDROOT
BRANCH   1  23
ATOM     17  C   UNL     1       1.631   9.646  22.289  0.00  0.00    +0.000 C 
ATOM     18  C   UNL     1       0.642   9.833  21.169  0.00  0.00    +0.000 A 
ATOM     19  C   UNL     1      -0.139  11.001  21.241  0.00  0.00    +0.000 A 
ATOM     20  C   UNL     1      -1.076  11.309  20.261  0.00  0.00    +0.000 A 
ATOM     21  C   UNL     1      -1.280  10.457  19.176  0.00  0.00    +0.000 A 
ATOM     22  C   UNL     1      -0.510   9.280  19.117  0.00  0.00    +0.000 A 
ATOM     23  C   UNL     1       0.466   8.955  20.073  0.00  0.00    +0.000 A 
BRANCH  21  24
ATOM     24  C   UNL     1      -2.225  10.802  18.102  0.00  0.00    +0.000 A 
ATOM     25  C   UNL     1      -3.454  11.421  18.349  0.00  0.00    +0.000 A 
ATOM     26  C   UNL     1      -4.337  11.684  17.303  0.00  0.00    +0.000 A 
ATOM     27  C   UNL     1      -3.959  11.332  16.019  0.00  0.00    +0.000 A 
ATOM     28  N   UNL     1      -2.784  10.752  15.717  0.00  0.00    +0.000 NA
ATOM     29  C   UNL     1      -1.957  10.494  16.763  0.00  0.00    +0.000 A 
ENDBRANCH  21  24
ENDBRANCH   1  23
TORSDOF 2
ENDMDL
MODEL 7
REMARK VINA RESULT:      -7.8      3.050      9.026
REMARK  Name = 
REMARK  3 active torsions:
REMARK  status: ('A' for Active; 'I' for Inactive)
REMARK    1  A    between atoms: C_1  and  C_2
REMARK    2  A    between atoms: C_5  and  C_6
REMARK    3  A    between atoms: C_13  and  N_14
REMARK                            x       y       z     vdW  Elec       q    Type
REMARK                         _______ _______ _______ _____ _____    ______ ____
ROOT
ATOM      1  N   UNL     1       1.269   9.667  18.993  0.00  0.00    +0.000 N 
ATOM      2  C   UNL     1       1.102   8.610  19.893  0.00  0.00    +0.000 C 
ATOM      3  O   UNL     1       0.403   8.650  20.897  0.00  0.00    +0.000 OA
ATOM      4  N   UNL     1       1.822   7.441  19.582  0.00  0.00    +0.000 N 
ATOM      5  C   UNL     1       2.720   7.282  18.446  0.00  0.00    +0.000 C 
ATOM      6  C   UNL     1       2.775   5.843  17.951  0.00  0.00    +0.000 C 
ATOM      7  C   UNL     1       3.112   4.876  19.081  0.00  0.00    +0.000 C 
ATOM      8  C   UNL     1       2.148   5.027  20.277  0.00  0.00    +0.000 C 
ATOM      9  C   UNL     1       0.743   4.485  19.967  0.00  0.00    +0.000 C 
ATOM     10  N   UNL     1       0.713   3.170  20.530  0.00  0.00    +0.000 N 
ATOM     11  C   UNL     1       1.638   3.012  21.533  0.00  0.00    +0.000 C 
ATOM     12  O   UNL     1       1.629   2.112  22.355  0.00  0.00    +0.000 OA
ATOM     13  C   UNL     1       2.628   4.143  21.460  0.00  0.00    +0.000 C 
ATOM     14  C   UNL     1       2.069   6.508  20.699  0.00  0.00    +0.000 C 
ATOM     15  H   UNL     1       1.749   9.488  18.139  0.00  0.00    +0.000 HD
ATOM     16  H   UNL     1      -0.101   2.567  20.524  0.00  0.00    +0.000 HD
ENDROOT
BRANCH   1  23
ATOM     17  C   UNL     1      -1.429  10.370  17.811  0.00  0.00    +0.000 C 
ATOM     18  C   UNL     1      -0.527  11.315  18.559  0.00  0.00    +0.000 A 
ATOM     19  C   UNL     1      -1.023  12.621  18.725  0.00  0.00    +0.000 A 
ATOM     20  C   UNL     1      -0.301  13.589  19.414  0.00  0.00    +0.000 A 
ATOM     21  C   UNL     1       0.950  13.297  19.956  0.00  0.00    +0.000 A 
ATOM     22  C   UNL     1       1.452  11.994  19.771  0.00  0.00    +0.000 A 
ATOM     23  C   UNL     1       0.736  10.985  19.107  0.00  0.00    +0.000 A 
BRANCH  21  24
ATOM     24  C   UNL     1       1.695  14.295  20.739  0.00  0.00    +0.000 A 
ATOM     25  C   UNL     1       2.976  14.728  20.384  0.00  0.00    +0.000 A 
ATOM     26  C   UNL     1       3.662  15.640  21.185  0.00  0.00    +0.000 A 
ATOM     27  C   UNL     1       3.038  16.112  22.326  0.00  0.00    +0.000 A 
ATOM     28  N   UNL     1       1.802  15.746  22.711  0.00  0.00    +0.000 NA
ATOM     29  C   UNL     1       1.171  14.843  21.915  0.00  0.00    +0.000 A 
ENDBRANCH  21  24
ENDBRANCH   1  23
TORSDOF 2
ENDMDL
MODEL 8
REMARK VINA RESULT:      -7.7      2.165      8.388
REMARK  Name = 
REMARK  3 active torsions:
REMARK  status: ('A' for Active; 'I' for Inactive)
REMARK    1  A    between atoms: C_1  and  C_2
REMARK    2  A    between atoms: C_5  and  C_6
REMARK    3  A    between atoms: C_13  and  N_14
REMARK                            x       y       z     vdW  Elec       q    Type
REMARK                         _______ _______ _______ _____ _____    ______ ____
ROOT
ATOM      1  N   UNL     1       1.303   8.346  20.654  0.00  0.00    +0.000 N 
ATOM      2  C   UNL     1       2.060   7.902  19.565  0.00  0.00    +0.000 C 
ATOM      3  O   UNL     1       2.491   8.620  18.673  0.00  0.00    +0.000 OA
ATOM      4  N   UNL     1       2.305   6.515  19.533  0.00  0.00    +0.000 N 
ATOM      5  C   UNL     1       1.810   5.550  20.506  0.00  0.00    +0.000 C 
ATOM      6  C   UNL     1       2.744   4.358  20.662  0.00  0.00    +0.000 C 
ATOM      7  C   UNL     1       3.046   3.705  19.318  0.00  0.00    +0.000 C 
ATOM      8  C   UNL     1       3.592   4.721  18.292  0.00  0.00    +0.000 C 
ATOM      9  C   UNL     1       5.025   5.170  18.620  0.00  0.00    +0.000 C 
ATOM     10  N   UNL     1       5.871   4.371  17.787  0.00  0.00    +0.000 N 
ATOM     11  C   UNL     1       5.210   3.890  16.683  0.00  0.00    +0.000 C 
ATOM     12  O   UNL     1       5.750   3.439  15.688  0.00  0.00    +0.000 OA
ATOM     13  C   UNL     1       3.729   4.048  16.900  0.00  0.00    +0.000 C 
ATOM     14  C   UNL     1       2.653   5.942  18.218  0.00  0.00    +0.000 C 
ATOM     15  H   UNL     1       1.118   7.705  21.392  0.00  0.00    +0.000 HD
ATOM     16  H   UNL     1       6.879   4.462  17.745  0.00  0.00    +0.000 HD
ENDROOT
BRANCH   1  23
ATOM     17  C   UNL     1      -0.686   8.931  22.861  0.00  0.00    +0.000 C 
ATOM     18  C   UNL     1      -0.094   9.948  21.922  0.00  0.00    +0.000 A 
ATOM     19  C   UNL     1      -0.503  11.277  22.134  0.00  0.00    +0.000 A 
ATOM     20  C   UNL     1      -0.017  12.320  21.353  0.00  0.00    +0.000 A 
ATOM     21  C   UNL     1       0.888  12.077  20.321  0.00  0.00    +0.000 A 
ATOM     22  C   UNL     1       1.281  10.743  20.099  0.00  0.00    +0.000 A 
ATOM     23  C   UNL     1       0.834   9.672  20.889  0.00  0.00    +0.000 A 
BRANCH  21  24
ATOM     24  C   UNL     1       1.456  13.179  19.528  0.00  0.00    +0.000 A 
ATOM     25  C   UNL     1       2.554  13.008  18.680  0.00  0.00    +0.000 A 
ATOM     26  C   UNL     1       3.087  14.094  17.985  0.00  0.00    +0.000 A 
ATOM     27  C   UNL     1       2.493  15.333  18.146  0.00  0.00    +0.000 A 
ATOM     28  N   UNL     1       1.425  15.555  18.933  0.00  0.00    +0.000 NA
ATOM     29  C   UNL     1       0.944  14.479  19.608  0.00  0.00    +0.000 A 
ENDBRANCH  21  24
ENDBRANCH   1  23
TORSDOF 2
ENDMDL
MODEL 9
REMARK VINA RESULT:      -7.6      2.794      8.741
REMARK  Name = 
REMARK  3 active torsions:
REMARK  status: ('A' for Active; 'I' for Inactive)
REMARK    1  A    between atoms: C_1  and  C_2
REMARK    2  A    between atoms: C_5  and  C_6
REMARK    3  A    between atoms: C_13  and  N_14
REMARK                            x       y       z     vdW  Elec       q    Type
REMARK                         _______ _______ _______ _____ _____    ______ ____
ROOT
ATOM      1  N   UNL     1       1.289   9.551  19.069  0.00  0.00    +0.000 N 
ATOM      2  C   UNL     1       2.042   8.760  18.195  0.00  0.00    +0.000 C 
ATOM      3  O   UNL     1       2.445   9.119  17.097  0.00  0.00    +0.000 OA
ATOM      4  N   UNL     1       2.318   7.458  18.655  0.00  0.00    +0.000 N 
ATOM      5  C   UNL     1       1.857   6.896  19.918  0.00  0.00    +0.000 C 
ATOM      6  C   UNL     1       2.820   5.854  20.471  0.00  0.00    +0.000 C 
ATOM      7  C   UNL     1       3.120   4.769  19.443  0.00  0.00    +0.000 C 
ATOM      8  C   UNL     1       3.629   5.361  18.111  0.00  0.00    +0.000 C 
ATOM      9  C   UNL     1       5.056   5.921  18.228  0.00  0.00    +0.000 C 
ATOM     10  N   UNL     1       5.909   4.891  17.718  0.00  0.00    +0.000 N 
ATOM     11  C   UNL     1       5.245   4.036  16.872  0.00  0.00    +0.000 C 
ATOM     12  O   UNL     1       5.782   3.269  16.093  0.00  0.00    +0.000 OA
ATOM     13  C   UNL     1       3.764   4.237  17.048  0.00  0.00    +0.000 C 
ATOM     14  C   UNL     1       2.662   6.459  17.625  0.00  0.00    +0.000 C 
ATOM     15  H   UNL     1       1.128   9.213  19.991  0.00  0.00    +0.000 HD
ATOM     16  H   UNL     1       6.914   4.978  17.626  0.00  0.00    +0.000 HD
ENDROOT
BRANCH   1  23
ATOM     17  C   UNL     1      -1.656  10.040  18.562  0.00  0.00    +0.000 C 
ATOM     18  C   UNL     1      -0.584  11.097  18.591  0.00  0.00    +0.000 A 
ATOM     19  C   UNL     1      -1.029  12.416  18.385  0.00  0.00    +0.000 A 
ATOM     20  C   UNL     1      -0.147  13.491  18.408  0.00  0.00    +0.000 A 
ATOM     21  C   UNL     1       1.216  13.293  18.625  0.00  0.00    +0.000 A 
ATOM     22  C   UNL     1       1.660  11.970  18.811  0.00  0.00    +0.000 A 
ATOM     23  C   UNL     1       0.793  10.865  18.825  0.00  0.00    +0.000 A 
BRANCH  21  24
ATOM     24  C   UNL     1       2.148  14.428  18.712  0.00  0.00    +0.000 A 
ATOM     25  C   UNL     1       1.733  15.720  19.047  0.00  0.00    +0.000 A 
ATOM     26  C   UNL     1       2.646  16.773  19.070  0.00  0.00    +0.000 A 
ATOM     27  C   UNL     1       3.969  16.503  18.767  0.00  0.00    +0.000 A 
ATOM     28  N   UNL     1       4.431  15.279  18.455  0.00  0.00    +0.000 NA
ATOM     29  C   UNL     1       3.510  14.281  18.426  0.00  0.00    +0.000 A 
ENDBRANCH  21  24
ENDBRANCH   1  23
TORSDOF 2
ENDMDL
