MODEL 1
REMARK VINA RESULT:      -8.5      0.000      0.000
REMARK  Name = 
REMARK  4 active torsions:
REMARK  status: ('A' for Active; 'I' for Inactive)
REMARK    1  A    between atoms: C_1  and  C_2
REMARK    2  A    between atoms: C_5  and  N_6
REMARK    3  A    between atoms: C_10  and  N_11
REMARK    4  A    between atoms: C_12  and  C_14
REMARK                            x       y       z     vdW  Elec       q    Type
REMARK                         _______ _______ _______ _____ _____    ______ ____
ROOT
ATOM      1  N   UNL     1       1.023   9.797  20.081  0.00  0.00    +0.000 N 
ATOM      2  C   UNL     1       1.121   8.655  20.866  0.00  0.00    +0.000 C 
ATOM      3  O   UNL     1       0.887   8.653  22.069  0.00  0.00    +0.000 OA
ATOM      4  H   UNL     1       1.259   9.737  19.098  0.00  0.00    +0.000 HD
ENDROOT
BRANCH   2   5
ATOM      5  C   UNL     1       1.839   7.483  20.246  0.00  0.00    +0.000 A 
ATOM      6  C   UNL     1       2.360   7.833  18.993  0.00  0.00    +0.000 A 
ATOM      7  C   UNL     1       2.415   6.881  17.987  0.00  0.00    +0.000 A 
ATOM      8  C   UNL     1       2.145   5.563  18.334  0.00  0.00    +0.000 A 
ATOM      9  N   UNL     1       1.744   4.500  17.572  0.00  0.00    +0.000 NA
ATOM     10  C   UNL     1       1.832   3.449  18.366  0.00  0.00    +0.000 A 
ATOM     11  N   UNL     1       2.533   3.836  19.529  0.00  0.00    +0.000 N 
ATOM     12  C   UNL     1       2.236   5.190  19.672  0.00  0.00    +0.000 A 
ATOM     13  C   UNL     1       1.874   6.116  20.688  0.00  0.00    +0.000 A 
ATOM     14  C   UNL     1       3.897   3.217  19.317  0.00  0.00    +0.000 C 
ATOM     15  C   UNL     1       3.787   2.418  17.976  0.00  0.00    +0.000 C 
ATOM     16  C   UNL     1       2.290   2.115  17.892  0.00  0.00    +0.000 C 
ENDBRANCH   2   5
BRANCH   1  21
ATOM     17  N   UNL     1      -1.240  11.998  19.438  0.00  0.00    +0.000 N 
ATOM     18  C   UNL     1      -0.430  12.855  18.563  0.00  0.00    +0.000 C 
ATOM     19  C   UNL     1       1.054  12.504  18.556  0.00  0.00    +0.000 C 
ATOM     20  C   UNL     1       1.553  12.285  19.975  0.00  0.00    +0.000 C 
ATOM     21  C   UNL     1       0.782  11.146  20.654  0.00  0.00    +0.000 C 
ATOM     22  C   UNL     1      -0.722  11.459  20.634  0.00  0.00    +0.000 C 
ATOM     23  O   UNL     1      -1.418  11.118  21.594  0.00  0.00    +0.000 OA
BRANCH  17  28
ATOM     24  C   UNL     1      -6.908  11.633  18.532  0.00  0.00    +0.000 C 
ATOM     25  C   UNL     1      -5.444  11.788  18.785  0.00  0.00    +0.000 A 
ATOM     26  C   UNL     1      -4.942  12.570  19.837  0.00  0.00    +0.000 A 
ATOM     27  C   UNL     1      -3.557  12.681  20.052  0.00  0.00    +0.000 A 
ATOM     28  C   UNL     1      -2.664  11.983  19.240  0.00  0.00    +0.000 A 
ATOM     29  C   UNL     1      -3.174  11.230  18.176  0.00  0.00    +0.000 A 
ATOM     30  C   UNL     1      -4.544  11.144  17.939  0.00  0.00    +0.000 A 
ENDBRANCH  17  28
ENDBRANCH   1  21
TORSDOF 3
ENDMDL
MODEL 2
REMARK VINA RESULT:      -8.3      3.061      9.337
REMARK  Name = 
REMARK  4 active torsions:
REMARK  status: ('A' for Active; 'I' for Inactive)
REMARK    1  A    between atoms: C_1  and  C_2
REMARK    2  A    between atoms: C_5  and  N_6
REMARK    3  A    between atoms: C_10  and  N_11
REMARK    4  A    between atoms: C_12  and  C_14
REMARK                            x       y       z     vdW  Elec       q    Type
REMARK                         _______ _______ _______ _____ _____    ______ ____
ROOT
ATOM      1  N   UNL     1       3.209   5.731  20.036  0.00  0.00    +0.000 N 
ATOM      2  C   UNL     1       2.016   6.195  20.576  0.00  0.00    +0.000 C 
ATOM      3  O   UNL     1       1.119   5.447  20.947  0.00  0.00    +0.000 OA
ATOM      4  H   UNL     1       3.898   6.403  19.722  0.00  0.00    +0.000 HD
ENDROOT
BRANCH   2   5
ATOM      5  C   UNL     1       1.732   7.665  20.392  0.00  0.00    +0.000 A 
ATOM      6  C   UNL     1       1.203   8.213  21.568  0.00  0.00    +0.000 A 
ATOM      7  C   UNL     1       0.267   9.233  21.484  0.00  0.00    +0.000 A 
ATOM      8  C   UNL     1       0.052   9.807  20.238  0.00  0.00    +0.000 A 
ATOM      9  N   UNL     1      -1.012  10.513  19.748  0.00  0.00    +0.000 NA
ATOM     10  C   UNL     1      -0.609  10.992  18.586  0.00  0.00    +0.000 A 
ATOM     11  N   UNL     1       0.787  10.794  18.491  0.00  0.00    +0.000 N 
ATOM     12  C   UNL     1       1.021   9.649  19.251  0.00  0.00    +0.000 A 
ATOM     13  C   UNL     1       1.766   8.440  19.183  0.00  0.00    +0.000 A 
ATOM     14  C   UNL     1       1.338  12.181  18.736  0.00  0.00    +0.000 C 
ATOM     15  C   UNL     1       0.084  13.106  18.884  0.00  0.00    +0.000 C 
ATOM     16  C   UNL     1      -0.985  12.345  18.095  0.00  0.00    +0.000 C 
ENDBRANCH   2   5
BRANCH   1  21
ATOM     17  N   UNL     1       4.147   4.297  17.308  0.00  0.00    +0.000 N 
ATOM     18  C   UNL     1       2.819   3.864  16.854  0.00  0.00    +0.000 C 
ATOM     19  C   UNL     1       1.722   4.035  17.899  0.00  0.00    +0.000 C 
ATOM     20  C   UNL     1       2.196   3.531  19.252  0.00  0.00    +0.000 C 
ATOM     21  C   UNL     1       3.441   4.300  19.714  0.00  0.00    +0.000 C 
ATOM     22  C   UNL     1       4.545   4.175  18.655  0.00  0.00    +0.000 C 
ATOM     23  O   UNL     1       5.722   4.103  19.021  0.00  0.00    +0.000 OA
BRANCH  17  28
ATOM     24  C   UNL     1       7.975   5.154  13.102  0.00  0.00    +0.000 C 
ATOM     25  C   UNL     1       7.026   4.948  14.236  0.00  0.00    +0.000 A 
ATOM     26  C   UNL     1       7.031   5.764  15.379  0.00  0.00    +0.000 A 
ATOM     27  C   UNL     1       6.112   5.547  16.421  0.00  0.00    +0.000 A 
ATOM     28  C   UNL     1       5.157   4.537  16.313  0.00  0.00    +0.000 A 
ATOM     29  C   UNL     1       5.180   3.710  15.184  0.00  0.00    +0.000 A 
ATOM     30  C   UNL     1       6.110   3.900  14.165  0.00  0.00    +0.000 A 
ENDBRANCH  17  28
ENDBRANCH   1  21
TORSDOF 3
ENDMDL
MODEL 3
REMARK VINA RESULT:      -8.2      1.871      2.370
REMARK  Name = 
REMARK  4 active torsions:
REMARK  status: ('A' for Active; 'I' for Inactive)
REMARK    1  A    between atoms: C_1  and  C_2
REMARK    2  A    between atoms: C_5  and  N_6
REMARK    3  A    between atoms: C_10  and  N_11
REMARK    4  A    between atoms: C_12  and  C_14
REMARK                            x       y       z     vdW  Elec       q    Type
REMARK                         _______ _______ _______ _____ _____    ______ ____
ROOT
ATOM      1  N   UNL     1       1.341   9.657  19.426  0.00  0.00    +0.000 N 
ATOM      2  C   UNL     1       1.492   8.405  20.009  0.00  0.00    +0.000 C 
ATOM      3  O   UNL     1       1.247   8.187  21.190  0.00  0.00    +0.000 OA
ATOM      4  H   UNL     1       1.590   9.777  18.452  0.00  0.00    +0.000 HD
ENDROOT
BRANCH   2   5
ATOM      5  C   UNL     1       2.279   7.394  19.214  0.00  0.00    +0.000 A 
ATOM      6  C   UNL     1       2.249   6.143  19.844  0.00  0.00    +0.000 A 
ATOM      7  C   UNL     1       3.354   5.309  19.759  0.00  0.00    +0.000 A 
ATOM      8  C   UNL     1       4.364   5.668  18.875  0.00  0.00    +0.000 A 
ATOM      9  N   UNL     1       5.684   5.316  18.832  0.00  0.00    +0.000 NA
ATOM     10  C   UNL     1       6.132   5.777  17.679  0.00  0.00    +0.000 A 
ATOM     11  N   UNL     1       5.019   6.181  16.908  0.00  0.00    +0.000 N 
ATOM     12  C   UNL     1       4.071   6.567  17.853  0.00  0.00    +0.000 A 
ATOM     13  C   UNL     1       3.137   7.614  18.081  0.00  0.00    +0.000 A 
ATOM     14  C   UNL     1       4.896   5.066  15.892  0.00  0.00    +0.000 C 
ATOM     15  C   UNL     1       6.099   4.108  16.179  0.00  0.00    +0.000 C 
ATOM     16  C   UNL     1       7.116   5.040  16.841  0.00  0.00    +0.000 C 
ENDBRANCH   2   5
BRANCH   1  21
ATOM     17  N   UNL     1      -1.059  11.790  19.150  0.00  0.00    +0.000 N 
ATOM     18  C   UNL     1      -0.309  12.828  18.431  0.00  0.00    +0.000 C 
ATOM     19  C   UNL     1       1.194  12.577  18.371  0.00  0.00    +0.000 C 
ATOM     20  C   UNL     1       1.715  12.156  19.736  0.00  0.00    +0.000 C 
ATOM     21  C   UNL     1       1.020  10.875  20.214  0.00  0.00    +0.000 C 
ATOM     22  C   UNL     1      -0.500  11.094  20.241  0.00  0.00    +0.000 C 
ATOM     23  O   UNL     1      -1.167  10.556  21.129  0.00  0.00    +0.000 OA
BRANCH  17  28
ATOM     24  C   UNL     1      -6.708  11.198  18.248  0.00  0.00    +0.000 C 
ATOM     25  C   UNL     1      -5.251  11.412  18.495  0.00  0.00    +0.000 A 
ATOM     26  C   UNL     1      -4.777  12.286  19.486  0.00  0.00    +0.000 A 
ATOM     27  C   UNL     1      -3.397  12.452  19.699  0.00  0.00    +0.000 A 
ATOM     28  C   UNL     1      -2.480  11.719  18.947  0.00  0.00    +0.000 A 
ATOM     29  C   UNL     1      -2.962  10.874  17.941  0.00  0.00    +0.000 A 
ATOM     30  C   UNL     1      -4.327  10.732  17.704  0.00  0.00    +0.000 A 
ENDBRANCH  17  28
ENDBRANCH   1  21
TORSDOF 3
ENDMDL
MODEL 4
REMARK VINA RESULT:      -8.2      2.879      9.372
REMARK  Name = 
REMARK  4 active torsions:
REMARK  status: ('A' for Active; 'I' for Inactive)
REMARK    1  A    between atoms: C_1  and  C_2
REMARK    2  A    between atoms: C_5  and  N_6
REMARK    3  A    between atoms: C_10  and  N_11
REMARK    4  A    between atoms: C_12  and  C_14
REMARK                            x       y       z     vdW  Elec       q    Type
REMARK                         _______ _______ _______ _____ _____    ______ ____
ROOT
ATOM      1  N   UNL     1       2.905   6.809  19.845  0.00  0.00    +0.000 N 
ATOM      2  C   UNL     1       1.815   7.357  20.510  0.00  0.00    +0.000 C 
ATOM      3  O   UNL     1       1.155   6.733  21.333  0.00  0.00    +0.000 OA
ATOM      4  H   UNL     1       3.389   7.368  19.155  0.00  0.00    +0.000 HD
ENDROOT
BRANCH   2   5
ATOM      5  C   UNL     1       1.273   8.646  19.944  0.00  0.00    +0.000 A 
ATOM      6  C   UNL     1       1.522   8.721  18.568  0.00  0.00    +0.000 A 
ATOM      7  C   UNL     1       1.776   9.954  17.986  0.00  0.00    +0.000 A 
ATOM      8  C   UNL     1       1.564  11.086  18.762  0.00  0.00    +0.000 A 
ATOM      9  N   UNL     1       2.061  12.355  18.650  0.00  0.00    +0.000 NA
ATOM     10  C   UNL     1       1.381  13.075  19.522  0.00  0.00    +0.000 A 
ATOM     11  N   UNL     1       0.293  12.298  19.978  0.00  0.00    +0.000 N 
ATOM     12  C   UNL     1       0.752  10.985  19.888  0.00  0.00    +0.000 A 
ATOM     13  C   UNL     1       0.747   9.783  20.647  0.00  0.00    +0.000 A 
ATOM     14  C   UNL     1      -0.882  12.908  19.248  0.00  0.00    +0.000 C 
ATOM     15  C   UNL     1      -0.291  14.114  18.444  0.00  0.00    +0.000 C 
ATOM     16  C   UNL     1       0.954  14.476  19.256  0.00  0.00    +0.000 C 
ENDBRANCH   2   5
BRANCH   1  21
ATOM     17  N   UNL     1       3.864   4.691  17.615  0.00  0.00    +0.000 N 
ATOM     18  C   UNL     1       2.570   4.026  17.414  0.00  0.00    +0.000 C 
ATOM     19  C   UNL     1       1.509   4.414  18.438  0.00  0.00    +0.000 C 
ATOM     20  C   UNL     1       2.095   4.395  19.841  0.00  0.00    +0.000 C 
ATOM     21  C   UNL     1       3.271   5.373  19.954  0.00  0.00    +0.000 C 
ATOM     22  C   UNL     1       4.334   5.025  18.902  0.00  0.00    +0.000 C 
ATOM     23  O   UNL     1       5.526   5.171  19.183  0.00  0.00    +0.000 OA
BRANCH  17  28
ATOM     24  C   UNL     1       7.694   5.021  13.337  0.00  0.00    +0.000 C 
ATOM     25  C   UNL     1       6.680   4.880  14.424  0.00  0.00    +0.000 A 
ATOM     26  C   UNL     1       6.351   3.638  14.990  0.00  0.00    +0.000 A 
ATOM     27  C   UNL     1       5.401   3.546  16.021  0.00  0.00    +0.000 A 
ATOM     28  C   UNL     1       4.797   4.699  16.522  0.00  0.00    +0.000 A 
ATOM     29  C   UNL     1       5.109   5.929  15.930  0.00  0.00    +0.000 A 
ATOM     30  C   UNL     1       6.025   6.020  14.885  0.00  0.00    +0.000 A 
ENDBRANCH  17  28
ENDBRANCH   1  21
TORSDOF 3
ENDMDL
MODEL 5
REMARK VINA RESULT:      -8.2      2.055      2.718
REMARK  Name = 
REMARK  4 active torsions:
REMARK  status: ('A' for Active; 'I' for Inactive)
REMARK    1  A    between atoms: C_1  and  C_2
REMARK    2  A    between atoms: C_5  and  N_6
REMARK    3  A    between atoms: C_10  and  N_11
REMARK    4  A    between atoms: C_12  and  C_14
REMARK                            x       y       z     vdW  Elec       q    Type
REMARK                         _______ _______ _______ _____ _____    ______ ____
ROOT
ATOM      1  N   UNL     1       1.447   9.570  18.946  0.00  0.00    +0.000 N 
ATOM      2  C   UNL     1       1.661   8.267  19.378  0.00  0.00    +0.000 C 
ATOM      3  O   UNL     1       1.461   7.909  20.533  0.00  0.00    +0.000 OA
ATOM      4  H   UNL     1       1.660   9.808  17.985  0.00  0.00    +0.000 HD
ENDROOT
BRANCH   2   5
ATOM      5  C   UNL     1       2.457   7.383  18.452  0.00  0.00    +0.000 A 
ATOM      6  C   UNL     1       1.988   6.064  18.510  0.00  0.00    +0.000 A 
ATOM      7  C   UNL     1       2.882   5.015  18.358  0.00  0.00    +0.000 A 
ATOM      8  C   UNL     1       4.172   5.324  17.946  0.00  0.00    +0.000 A 
ATOM      9  N   UNL     1       5.344   4.630  18.072  0.00  0.00    +0.000 NA
ATOM     10  C   UNL     1       6.219   5.285  17.333  0.00  0.00    +0.000 A 
ATOM     11  N   UNL     1       5.514   6.227  16.551  0.00  0.00    +0.000 N 
ATOM     12  C   UNL     1       4.402   6.549  17.327  0.00  0.00    +0.000 A 
ATOM     13  C   UNL     1       3.660   7.693  17.730  0.00  0.00    +0.000 A 
ATOM     14  C   UNL     1       5.518   5.591  15.179  0.00  0.00    +0.000 C 
ATOM     15  C   UNL     1       6.359   4.280  15.331  0.00  0.00    +0.000 C 
ATOM     16  C   UNL     1       7.264   4.602  16.522  0.00  0.00    +0.000 C 
ENDBRANCH   2   5
BRANCH   1  21
ATOM     17  N   UNL     1      -1.027  11.634  18.974  0.00  0.00    +0.000 N 
ATOM     18  C   UNL     1      -0.332  12.773  18.360  0.00  0.00    +0.000 C 
ATOM     19  C   UNL     1       1.175  12.584  18.235  0.00  0.00    +0.000 C 
ATOM     20  C   UNL     1       1.749  12.030  19.530  0.00  0.00    +0.000 C 
ATOM     21  C   UNL     1       1.110  10.679  19.875  0.00  0.00    +0.000 C 
ATOM     22  C   UNL     1      -0.415  10.839  19.965  0.00  0.00    +0.000 C 
ATOM     23  O   UNL     1      -1.039  10.180  20.801  0.00  0.00    +0.000 OA
BRANCH  17  28
ATOM     24  C   UNL     1      -6.745  11.561  18.353  0.00  0.00    +0.000 C 
ATOM     25  C   UNL     1      -5.260  11.518  18.504  0.00  0.00    +0.000 A 
ATOM     26  C   UNL     1      -4.450  10.673  17.728  0.00  0.00    +0.000 A 
ATOM     27  C   UNL     1      -3.053  10.670  17.888  0.00  0.00    +0.000 A 
ATOM     28  C   UNL     1      -2.451  11.536  18.800  0.00  0.00    +0.000 A 
ATOM     29  C   UNL     1      -3.270  12.352  19.590  0.00  0.00    +0.000 A 
ATOM     30  C   UNL     1      -4.656  12.334  19.457  0.00  0.00    +0.000 A 
ENDBRANCH  17  28
ENDBRANCH   1  21
TORSDOF 3
ENDMDL
MODEL 6
REMARK VINA RESULT:      -7.4      2.234      3.261
REMARK  Name = 
REMARK  4 active torsions:
REMARK  status: ('A' for Active; 'I' for Inactive)
REMARK    1  A    between atoms: C_1  and  C_2
REMARK    2  A    between atoms: C_5  and  N_6
REMARK    3  A    between atoms: C_10  and  N_11
REMARK    4  A    between atoms: C_12  and  C_14
REMARK                            x       y       z     vdW  Elec       q    Type
REMARK                         _______ _______ _______ _____ _____    ______ ____
ROOT
ATOM      1  N   UNL     1       0.602  10.037  18.890  0.00  0.00    +0.000 N 
ATOM      2  C   UNL     1       1.773   9.476  18.398  0.00  0.00    +0.000 C 
ATOM      3  O   UNL     1       2.352   9.905  17.407  0.00  0.00    +0.000 OA
ATOM      4  H   UNL     1       0.157   9.616  19.696  0.00  0.00    +0.000 HD
ENDROOT
BRANCH   2   5
ATOM      5  C   UNL     1       2.134   8.115  18.939  0.00  0.00    +0.000 A 
ATOM      6  C   UNL     1       3.001   7.452  18.060  0.00  0.00    +0.000 A 
ATOM      7  C   UNL     1       2.922   6.073  17.934  0.00  0.00    +0.000 A 
ATOM      8  C   UNL     1       2.126   5.390  18.845  0.00  0.00    +0.000 A 
ATOM      9  N   UNL     1       1.541   4.155  18.774  0.00  0.00    +0.000 NA
ATOM     10  C   UNL     1       1.071   3.922  19.985  0.00  0.00    +0.000 A 
ATOM     11  N   UNL     1       1.599   4.900  20.856  0.00  0.00    +0.000 N 
ATOM     12  C   UNL     1       1.788   6.015  20.042  0.00  0.00    +0.000 A 
ATOM     13  C   UNL     1       1.577   7.420  20.067  0.00  0.00    +0.000 A 
ATOM     14  C   UNL     1       2.659   4.133  21.617  0.00  0.00    +0.000 C 
ATOM     15  C   UNL     1       2.557   2.660  21.099  0.00  0.00    +0.000 C 
ATOM     16  C   UNL     1       1.106   2.576  20.620  0.00  0.00    +0.000 C 
ENDBRANCH   2   5
BRANCH   1  21
ATOM     17  N   UNL     1      -1.941  11.811  19.766  0.00  0.00    +0.000 N 
ATOM     18  C   UNL     1      -2.966  11.045  19.044  0.00  0.00    +0.000 C 
ATOM     19  C   UNL     1      -2.399  10.008  18.081  0.00  0.00    +0.000 C 
ATOM     20  C   UNL     1      -1.269  10.610  17.261  0.00  0.00    +0.000 C 
ATOM     21  C   UNL     1      -0.139  11.106  18.172  0.00  0.00    +0.000 C 
ATOM     22  C   UNL     1      -0.698  12.121  19.179  0.00  0.00    +0.000 C 
ATOM     23  O   UNL     1       0.004  13.077  19.519  0.00  0.00    +0.000 OA
BRANCH  17  28
ATOM     24  C   UNL     1      -3.245  14.597  24.626  0.00  0.00    +0.000 C 
ATOM     25  C   UNL     1      -2.965  13.887  23.343  0.00  0.00    +0.000 A 
ATOM     26  C   UNL     1      -3.478  14.326  22.112  0.00  0.00    +0.000 A 
ATOM     27  C   UNL     1      -3.181  13.638  20.922  0.00  0.00    +0.000 A 
ATOM     28  C   UNL     1      -2.339  12.527  20.948  0.00  0.00    +0.000 A 
ATOM     29  C   UNL     1      -1.858  12.079  22.184  0.00  0.00    +0.000 A 
ATOM     30  C   UNL     1      -2.177  12.738  23.369  0.00  0.00    +0.000 A 
ENDBRANCH  17  28
ENDBRANCH   1  21
TORSDOF 3
ENDMDL
MODEL 7
REMARK VINA RESULT:      -7.3      2.740      5.079
REMARK  Name = 
REMARK  4 active torsions:
REMARK  status: ('A' for Active; 'I' for Inactive)
REMARK    1  A    between atoms: C_1  and  C_2
REMARK    2  A    between atoms: C_5  and  N_6
REMARK    3  A    between atoms: C_10  and  N_11
REMARK    4  A    between atoms: C_12  and  C_14
REMARK                            x       y       z     vdW  Elec       q    Type
REMARK                         _______ _______ _______ _____ _____    ______ ____
ROOT
ATOM      1  N   UNL     1       1.054  10.204  19.347  0.00  0.00    +0.000 N 
ATOM      2  C   UNL     1       1.838   9.424  18.506  0.00  0.00    +0.000 C 
ATOM      3  O   UNL     1       2.023   9.698  17.326  0.00  0.00    +0.000 OA
ATOM      4  H   UNL     1       0.917   9.905  20.305  0.00  0.00    +0.000 HD
ENDROOT
BRANCH   2   5
ATOM      5  C   UNL     1       2.191   8.049  19.014  0.00  0.00    +0.000 A 
ATOM      6  C   UNL     1       3.016   7.384  18.098  0.00  0.00    +0.000 A 
ATOM      7  C   UNL     1       2.907   6.009  17.955  0.00  0.00    +0.000 A 
ATOM      8  C   UNL     1       2.130   5.326  18.881  0.00  0.00    +0.000 A 
ATOM      9  N   UNL     1       1.520   4.104  18.812  0.00  0.00    +0.000 NA
ATOM     10  C   UNL     1       1.086   3.860  20.034  0.00  0.00    +0.000 A 
ATOM     11  N   UNL     1       1.660   4.816  20.902  0.00  0.00    +0.000 N 
ATOM     12  C   UNL     1       1.843   5.939  20.097  0.00  0.00    +0.000 A 
ATOM     13  C   UNL     1       1.659   7.348  20.150  0.00  0.00    +0.000 A 
ATOM     14  C   UNL     1       2.730   4.018  21.615  0.00  0.00    +0.000 C 
ATOM     15  C   UNL     1       2.584   2.555  21.079  0.00  0.00    +0.000 C 
ATOM     16  C   UNL     1       1.117   2.504  20.648  0.00  0.00    +0.000 C 
ENDBRANCH   2   5
BRANCH   1  21
ATOM     17  N   UNL     1       1.024  13.306  20.219  0.00  0.00    +0.000 N 
ATOM     18  C   UNL     1      -0.156  13.247  21.092  0.00  0.00    +0.000 C 
ATOM     19  C   UNL     1      -0.927  11.934  21.003  0.00  0.00    +0.000 C 
ATOM     20  C   UNL     1      -1.112  11.527  19.550  0.00  0.00    +0.000 C 
ATOM     21  C   UNL     1       0.245  11.349  18.857  0.00  0.00    +0.000 C 
ATOM     22  C   UNL     1       1.056  12.648  18.972  0.00  0.00    +0.000 C 
ATOM     23  O   UNL     1       1.784  12.986  18.034  0.00  0.00    +0.000 OA
BRANCH  17  28
ATOM     24  C   UNL     1       5.229  17.092  21.248  0.00  0.00    +0.000 C 
ATOM     25  C   UNL     1       4.096  16.153  20.997  0.00  0.00    +0.000 A 
ATOM     26  C   UNL     1       2.871  16.580  20.458  0.00  0.00    +0.000 A 
ATOM     27  C   UNL     1       1.830  15.663  20.223  0.00  0.00    +0.000 A 
ATOM     28  C   UNL     1       2.018  14.308  20.491  0.00  0.00    +0.000 A 
ATOM     29  C   UNL     1       3.231  13.898  21.056  0.00  0.00    +0.000 A 
ATOM     30  C   UNL     1       4.252  14.807  21.321  0.00  0.00    +0.000 A 
ENDBRANCH  17  28
ENDBRANCH   1  21
TORSDOF 3
ENDMDL
MODEL 8
REMARK VINA RESULT:      -7.1      2.401      3.672
REMARK  Name = 
REMARK  4 active torsions:
REMARK  status: ('A' for Active; 'I' for Inactive)
REMARK    1  A    between atoms: C_1  and  C_2
REMARK    2  A    between atoms: C_5  and  N_6
REMARK    3  A    between atoms: C_10  and  N_11
REMARK    4  A    between atoms: C_12  and  C_14
REMARK                            x       y       z     vdW  Elec       q    Type
REMARK                         _______ _______ _______ _____ _____    ______ ____
ROOT
ATOM      1  N   UNL     1      -0.129  10.466  18.700  0.00  0.00    +0.000 N 
ATOM      2  C   UNL     1       1.213  10.122  18.597  0.00  0.00    +0.000 C 
ATOM      3  O   UNL     1       2.077  10.915  18.241  0.00  0.00    +0.000 OA
ATOM      4  H   UNL     1      -0.798   9.755  18.971  0.00  0.00    +0.000 HD
ENDROOT
BRANCH   2   5
ATOM      5  C   UNL     1       1.524   8.646  18.627  0.00  0.00    +0.000 A 
ATOM      6  C   UNL     1       1.286   8.121  19.904  0.00  0.00    +0.000 A 
ATOM      7  C   UNL     1       2.087   7.093  20.379  0.00  0.00    +0.000 A 
ATOM      8  C   UNL     1       2.956   6.489  19.480  0.00  0.00    +0.000 A 
ATOM      9  N   UNL     1       4.098   5.764  19.687  0.00  0.00    +0.000 NA
ATOM     10  C   UNL     1       4.411   5.262  18.508  0.00  0.00    +0.000 A 
ATOM     11  N   UNL     1       3.316   5.467  17.639  0.00  0.00    +0.000 N 
ATOM     12  C   UNL     1       2.717   6.631  18.117  0.00  0.00    +0.000 A 
ATOM     13  C   UNL     1       2.163   7.843  17.622  0.00  0.00    +0.000 A 
ATOM     14  C   UNL     1       2.697   4.090  17.551  0.00  0.00    +0.000 C 
ATOM     15  C   UNL     1       3.631   3.160  18.395  0.00  0.00    +0.000 C 
ATOM     16  C   UNL     1       4.972   3.894  18.335  0.00  0.00    +0.000 C 
ENDBRANCH   2   5
BRANCH   1  21
ATOM     17  N   UNL     1      -2.165  12.537  20.094  0.00  0.00    +0.000 N 
ATOM     18  C   UNL     1      -3.374  12.140  19.361  0.00  0.00    +0.000 C 
ATOM     19  C   UNL     1      -3.107  11.198  18.191  0.00  0.00    +0.000 C 
ATOM     20  C   UNL     1      -1.924  11.692  17.374  0.00  0.00    +0.000 C 
ATOM     21  C   UNL     1      -0.660  11.775  18.239  0.00  0.00    +0.000 C 
ATOM     22  C   UNL     1      -0.921  12.686  19.447  0.00  0.00    +0.000 C 
ATOM     23  O   UNL     1      -0.008  13.401  19.868  0.00  0.00    +0.000 OA
BRANCH  17  28
ATOM     24  C   UNL     1      -3.060  14.943  25.241  0.00  0.00    +0.000 C 
ATOM     25  C   UNL     1      -2.777  14.290  23.928  0.00  0.00    +0.000 A 
ATOM     26  C   UNL     1      -2.244  12.994  23.832  0.00  0.00    +0.000 A 
ATOM     27  C   UNL     1      -2.003  12.408  22.578  0.00  0.00    +0.000 A 
ATOM     28  C   UNL     1      -2.325  13.096  21.409  0.00  0.00    +0.000 A 
ATOM     29  C   UNL     1      -2.827  14.399  21.515  0.00  0.00    +0.000 A 
ATOM     30  C   UNL     1      -3.036  14.997  22.756  0.00  0.00    +0.000 A 
ENDBRANCH  17  28
ENDBRANCH   1  21
TORSDOF 3
ENDMDL
MODEL 9
REMARK VINA RESULT:      -7.1      2.668      4.769
REMARK  Name = 
REMARK  4 active torsions:
REMARK  status: ('A' for Active; 'I' for Inactive)
REMARK    1  A    between atoms: C_1  and  C_2
REMARK    2  A    between atoms: C_5  and  N_6
REMARK    3  A    between atoms: C_10  and  N_11
REMARK    4  A    between atoms: C_12  and  C_14
REMARK                            x       y       z     vdW  Elec       q    Type
REMARK                         _______ _______ _______ _____ _____    ______ ____
ROOT
ATOM      1  N   UNL     1       1.239   9.504  19.268  0.00  0.00    +0.000 N 
ATOM      2  C   UNL     1       1.962   8.922  18.234  0.00  0.00    +0.000 C 
ATOM      3  O   UNL     1       1.898   9.313  17.075  0.00  0.00    +0.000 OA
ATOM      4  H   UNL     1       1.314   9.114  20.199  0.00  0.00    +0.000 HD
ENDROOT
BRANCH   2   5
ATOM      5  C   UNL     1       2.583   7.580  18.533  0.00  0.00    +0.000 A 
ATOM      6  C   UNL     1       3.776   7.421  17.815  0.00  0.00    +0.000 A 
ATOM      7  C   UNL     1       4.137   6.160  17.364  0.00  0.00    +0.000 A 
ATOM      8  C   UNL     1       3.401   5.077  17.827  0.00  0.00    +0.000 A 
ATOM      9  N   UNL     1       3.237   3.820  17.313  0.00  0.00    +0.000 NA
ATOM     10  C   UNL     1       2.607   3.139  18.251  0.00  0.00    +0.000 A 
ATOM     11  N   UNL     1       2.620   3.909  19.436  0.00  0.00    +0.000 N 
ATOM     12  C   UNL     1       2.643   5.227  18.984  0.00  0.00    +0.000 A 
ATOM     13  C   UNL     1       2.025   6.476  19.265  0.00  0.00    +0.000 A 
ATOM     14  C   UNL     1       3.668   3.211  20.275  0.00  0.00    +0.000 C 
ATOM     15  C   UNL     1       4.121   1.974  19.430  0.00  0.00    +0.000 C 
ATOM     16  C   UNL     1       2.899   1.710  18.547  0.00  0.00    +0.000 C 
ENDBRANCH   2   5
BRANCH   1  21
ATOM     17  N   UNL     1       0.910  12.466  20.492  0.00  0.00    +0.000 N 
ATOM     18  C   UNL     1      -0.095  12.140  21.513  0.00  0.00    +0.000 C 
ATOM     19  C   UNL     1      -0.677  10.736  21.382  0.00  0.00    +0.000 C 
ATOM     20  C   UNL     1      -1.032  10.444  19.933  0.00  0.00    +0.000 C 
ATOM     21  C   UNL     1       0.208  10.549  19.036  0.00  0.00    +0.000 C 
ATOM     22  C   UNL     1       0.835  11.943  19.186  0.00  0.00    +0.000 C 
ATOM     23  O   UNL     1       1.348  12.478  18.200  0.00  0.00    +0.000 OA
BRANCH  17  28
ATOM     24  C   UNL     1       4.150  17.085  21.610  0.00  0.00    +0.000 C 
ATOM     25  C   UNL     1       3.357  15.861  21.289  0.00  0.00    +0.000 A 
ATOM     26  C   UNL     1       3.935  14.582  21.240  0.00  0.00    +0.000 A 
ATOM     27  C   UNL     1       3.153  13.450  20.947  0.00  0.00    +0.000 A 
ATOM     28  C   UNL     1       1.782  13.583  20.735  0.00  0.00    +0.000 A 
ATOM     29  C   UNL     1       1.221  14.865  20.755  0.00  0.00    +0.000 A 
ATOM     30  C   UNL     1       1.998  15.993  21.012  0.00  0.00    +0.000 A 
ENDBRANCH  17  28
ENDBRANCH   1  21
TORSDOF 3
ENDMDL
