MODEL 1
REMARK VINA RESULT:      -8.9      0.000      0.000
REMARK  Name = 
REMARK  7 active torsions:
REMARK  status: ('A' for Active; 'I' for Inactive)
REMARK    1  A    between atoms: C_2  and  C_3
REMARK    2  A    between atoms: C_3  and  C_4
REMARK    3  A    between atoms: C_4  and  C_5
REMARK    4  A    between atoms: C_7  and  C_8
REMARK    5  A    between atoms: N_16  and  C_17
REMARK    6  A    between atoms: N_24  and  C_25
REMARK    7  A    between atoms: C_25  and  C_26
REMARK                            x       y       z     vdW  Elec       q    Type
REMARK                         _______ _______ _______ _____ _____    ______ ____
ROOT
ATOM      1  O   UNL     1       0.749   4.420  20.051  0.00  0.00    +0.000 OA
ATOM      2  C   UNL     1       1.796   4.548  20.680  0.00  0.00    +0.000 C 
ATOM      3  N   UNL     1       2.758   5.528  20.483  0.00  0.00    +0.000 N 
ATOM      4  H   UNL     1       3.640   5.406  20.961  0.00  0.00    +0.000 HD
ENDROOT
BRANCH   3   5
ATOM      5  C   UNL     1       2.679   6.601  19.567  0.00  0.00    +0.000 A 
ATOM      6  C   UNL     1       3.417   6.642  18.376  0.00  0.00    +0.000 A 
ATOM      7  C   UNL     1       3.300   7.711  17.476  0.00  0.00    +0.000 A 
ATOM      8  C   UNL     1       2.426   8.762  17.735  0.00  0.00    +0.000 A 
ATOM      9  C   UNL     1       1.699   8.726  18.910  0.00  0.00    +0.000 A 
ATOM     10  C   UNL     1       1.825   7.673  19.821  0.00  0.00    +0.000 A 
ATOM     11  C   UNL     1       1.010   7.993  21.033  0.00  0.00    +0.000 C 
ATOM     12  N   UNL     1       0.233   9.218  20.711  0.00  0.00    +0.000 NA
ATOM     13  C   UNL     1       0.746   9.752  19.428  0.00  0.00    +0.000 C 
BRANCH  12  14
ATOM     14  C   UNL     1       0.315  10.224  21.798  0.00  0.00    +0.000 C 
BRANCH  14  15
ATOM     15  C   UNL     1      -0.382   9.915  23.144  0.00  0.00    +0.000 C 
ATOM     16  F   UNL     1      -1.258   8.890  23.068  0.00  0.00    +0.000 F 
ATOM     17  F   UNL     1       0.525   9.608  24.100  0.00  0.00    +0.000 F 
ATOM     18  F   UNL     1      -1.071  10.998  23.579  0.00  0.00    +0.000 F 
ENDBRANCH  14  15
ENDBRANCH  12  14
ENDBRANCH   3   5
BRANCH   2  19
ATOM     19  C   UNL     1       2.116   3.614  21.835  0.00  0.00    +0.000 C 
BRANCH  19  20
ATOM     20  C   UNL     1       2.788   2.336  21.333  0.00  0.00    +0.000 C 
BRANCH  20  21
ATOM     21  C   UNL     1       3.373   2.523  19.984  0.00  0.00    +0.000 A 
ATOM     22  N   UNL     1       4.382   3.265  19.607  0.00  0.00    +0.000 NA
ATOM     23  C   UNL     1       4.393   3.096  18.235  0.00  0.00    +0.000 A 
ATOM     24  N   UNL     1       3.467   2.218  17.799  0.00  0.00    +0.000 NA
ATOM     25  O   UNL     1       2.785   1.847  18.957  0.00  0.00    +0.000 OA
BRANCH  23  26
ATOM     26  C   UNL     1       5.315   3.821  17.354  0.00  0.00    +0.000 A 
ATOM     27  C   UNL     1       4.990   4.067  16.021  0.00  0.00    +0.000 A 
ATOM     28  C   UNL     1       5.885   4.782  15.227  0.00  0.00    +0.000 A 
ATOM     29  C   UNL     1       7.074   5.236  15.783  0.00  0.00    +0.000 A 
ATOM     30  C   UNL     1       7.325   4.951  17.114  0.00  0.00    +0.000 A 
ATOM     31  N   UNL     1       6.483   4.253  17.907  0.00  0.00    +0.000 NA
ENDBRANCH  23  26
ENDBRANCH  20  21
ENDBRANCH  19  20
ENDBRANCH   2  19
TORSDOF 7
ENDMDL
MODEL 2
REMARK VINA RESULT:      -8.7      6.572      8.678
REMARK  Name = 
REMARK  7 active torsions:
REMARK  status: ('A' for Active; 'I' for Inactive)
REMARK    1  A    between atoms: C_2  and  C_3
REMARK    2  A    between atoms: C_3  and  C_4
REMARK    3  A    between atoms: C_4  and  C_5
REMARK    4  A    between atoms: C_7  and  C_8
REMARK    5  A    between atoms: N_16  and  C_17
REMARK    6  A    between atoms: N_24  and  C_25
REMARK    7  A    between atoms: C_25  and  C_26
REMARK                            x       y       z     vdW  Elec       q    Type
REMARK                         _______ _______ _______ _____ _____    ______ ____
ROOT
ATOM      1  O   UNL     1       8.272   6.968  18.567  0.00  0.00    +0.000 OA
ATOM      2  C   UNL     1       7.751   7.727  17.753  0.00  0.00    +0.000 C 
ATOM      3  N   UNL     1       6.893   7.364  16.725  0.00  0.00    +0.000 N 
ATOM      4  H   UNL     1       6.679   8.073  16.035  0.00  0.00    +0.000 HD
ENDROOT
BRANCH   3   5
ATOM      5  C   UNL     1       6.404   6.064  16.465  0.00  0.00    +0.000 A 
ATOM      6  C   UNL     1       6.881   5.266  15.416  0.00  0.00    +0.000 A 
ATOM      7  C   UNL     1       6.392   3.970  15.198  0.00  0.00    +0.000 A 
ATOM      8  C   UNL     1       5.423   3.428  16.037  0.00  0.00    +0.000 A 
ATOM      9  C   UNL     1       4.950   4.214  17.072  0.00  0.00    +0.000 A 
ATOM     10  C   UNL     1       5.418   5.513  17.283  0.00  0.00    +0.000 A 
ATOM     11  C   UNL     1       4.623   6.132  18.388  0.00  0.00    +0.000 C 
ATOM     12  N   UNL     1       3.775   5.053  18.956  0.00  0.00    +0.000 NA
ATOM     13  C   UNL     1       3.884   3.876  18.062  0.00  0.00    +0.000 C 
BRANCH  12  14
ATOM     14  C   UNL     1       2.366   5.488  19.121  0.00  0.00    +0.000 C 
BRANCH  14  15
ATOM     15  C   UNL     1       1.682   5.267  20.491  0.00  0.00    +0.000 C 
ATOM     16  F   UNL     1       0.620   4.434  20.428  0.00  0.00    +0.000 F 
ATOM     17  F   UNL     1       2.551   4.752  21.391  0.00  0.00    +0.000 F 
ATOM     18  F   UNL     1       1.236   6.444  20.992  0.00  0.00    +0.000 F 
ENDBRANCH  14  15
ENDBRANCH  12  14
ENDBRANCH   3   5
BRANCH   2  19
ATOM     19  C   UNL     1       7.978   9.225  17.846  0.00  0.00    +0.000 C 
BRANCH  19  20
ATOM     20  C   UNL     1       8.912   9.565  19.008  0.00  0.00    +0.000 C 
BRANCH  20  21
ATOM     21  C   UNL     1       9.595  10.863  18.795  0.00  0.00    +0.000 A 
ATOM     22  N   UNL     1       9.090  12.031  18.492  0.00  0.00    +0.000 NA
ATOM     23  C   UNL     1      10.213  12.823  18.341  0.00  0.00    +0.000 A 
ATOM     24  N   UNL     1      11.362  12.174  18.618  0.00  0.00    +0.000 NA
ATOM     25  O   UNL     1      10.952  10.874  18.908  0.00  0.00    +0.000 OA
BRANCH  23  26
ATOM     26  C   UNL     1      10.145  14.222  17.905  0.00  0.00    +0.000 A 
ATOM     27  C   UNL     1       9.038  15.014  18.206  0.00  0.00    +0.000 A 
ATOM     28  C   UNL     1       9.026  16.345  17.794  0.00  0.00    +0.000 A 
ATOM     29  C   UNL     1      10.118  16.851  17.100  0.00  0.00    +0.000 A 
ATOM     30  C   UNL     1      11.179  16.002  16.839  0.00  0.00    +0.000 A 
ATOM     31  N   UNL     1      11.216  14.706  17.216  0.00  0.00    +0.000 NA
ENDBRANCH  23  26
ENDBRANCH  20  21
ENDBRANCH  19  20
ENDBRANCH   2  19
TORSDOF 7
ENDMDL
MODEL 3
REMARK VINA RESULT:      -8.5      0.877      1.119
REMARK  Name = 
REMARK  7 active torsions:
REMARK  status: ('A' for Active; 'I' for Inactive)
REMARK    1  A    between atoms: C_2  and  C_3
REMARK    2  A    between atoms: C_3  and  C_4
REMARK    3  A    between atoms: C_4  and  C_5
REMARK    4  A    between atoms: C_7  and  C_8
REMARK    5  A    between atoms: N_16  and  C_17
REMARK    6  A    between atoms: N_24  and  C_25
REMARK    7  A    between atoms: C_25  and  C_26
REMARK                            x       y       z     vdW  Elec       q    Type
REMARK                         _______ _______ _______ _____ _____    ______ ____
ROOT
ATOM      1  O   UNL     1       0.893   4.187  19.532  0.00  0.00    +0.000 OA
ATOM      2  C   UNL     1       1.639   4.474  20.464  0.00  0.00    +0.000 C 
ATOM      3  N   UNL     1       2.380   5.641  20.593  0.00  0.00    +0.000 N 
ATOM      4  H   UNL     1       3.075   5.662  21.328  0.00  0.00    +0.000 HD
ENDROOT
BRANCH   3   5
ATOM      5  C   UNL     1       2.361   6.743  19.710  0.00  0.00    +0.000 A 
ATOM      6  C   UNL     1       3.071   6.764  18.502  0.00  0.00    +0.000 A 
ATOM      7  C   UNL     1       3.013   7.865  17.635  0.00  0.00    +0.000 A 
ATOM      8  C   UNL     1       2.228   8.970  17.946  0.00  0.00    +0.000 A 
ATOM      9  C   UNL     1       1.527   8.953  19.138  0.00  0.00    +0.000 A 
ATOM     10  C   UNL     1       1.596   7.868  20.015  0.00  0.00    +0.000 A 
ATOM     11  C   UNL     1       0.836   8.212  21.257  0.00  0.00    +0.000 C 
ATOM     12  N   UNL     1       0.146   9.500  20.989  0.00  0.00    +0.000 NA
ATOM     13  C   UNL     1       0.667  10.032  19.708  0.00  0.00    +0.000 C 
BRANCH  12  14
ATOM     14  C   UNL     1       0.330  10.465  22.100  0.00  0.00    +0.000 C 
BRANCH  14  15
ATOM     15  C   UNL     1      -0.601  11.700  22.167  0.00  0.00    +0.000 C 
ATOM     16  F   UNL     1      -1.167  11.875  23.381  0.00  0.00    +0.000 F 
ATOM     17  F   UNL     1       0.074  12.833  21.863  0.00  0.00    +0.000 F 
ATOM     18  F   UNL     1      -1.609  11.580  21.269  0.00  0.00    +0.000 F 
ENDBRANCH  14  15
ENDBRANCH  12  14
ENDBRANCH   3   5
BRANCH   2  19
ATOM     19  C   UNL     1       1.778   3.539  21.652  0.00  0.00    +0.000 C 
BRANCH  19  20
ATOM     20  C   UNL     1       2.874   2.502  21.406  0.00  0.00    +0.000 C 
BRANCH  20  21
ATOM     21  C   UNL     1       3.472   2.652  20.057  0.00  0.00    +0.000 A 
ATOM     22  N   UNL     1       4.399   3.477  19.643  0.00  0.00    +0.000 NA
ATOM     23  C   UNL     1       4.469   3.207  18.289  0.00  0.00    +0.000 A 
ATOM     24  N   UNL     1       3.663   2.197  17.906  0.00  0.00    +0.000 NA
ATOM     25  O   UNL     1       2.995   1.838  19.075  0.00  0.00    +0.000 OA
BRANCH  23  26
ATOM     26  C   UNL     1       5.328   3.965  17.373  0.00  0.00    +0.000 A 
ATOM     27  C   UNL     1       4.857   4.381  16.129  0.00  0.00    +0.000 A 
ATOM     28  C   UNL     1       5.699   5.122  15.300  0.00  0.00    +0.000 A 
ATOM     29  C   UNL     1       6.981   5.432  15.736  0.00  0.00    +0.000 A 
ATOM     30  C   UNL     1       7.374   4.983  16.984  0.00  0.00    +0.000 A 
ATOM     31  N   UNL     1       6.586   4.256  17.806  0.00  0.00    +0.000 NA
ENDBRANCH  23  26
ENDBRANCH  20  21
ENDBRANCH  19  20
ENDBRANCH   2  19
TORSDOF 7
ENDMDL
MODEL 4
REMARK VINA RESULT:      -8.2      1.088      1.494
REMARK  Name = 
REMARK  7 active torsions:
REMARK  status: ('A' for Active; 'I' for Inactive)
REMARK    1  A    between atoms: C_2  and  C_3
REMARK    2  A    between atoms: C_3  and  C_4
REMARK    3  A    between atoms: C_4  and  C_5
REMARK    4  A    between atoms: C_7  and  C_8
REMARK    5  A    between atoms: N_16  and  C_17
REMARK    6  A    between atoms: N_24  and  C_25
REMARK    7  A    between atoms: C_25  and  C_26
REMARK                            x       y       z     vdW  Elec       q    Type
REMARK                         _______ _______ _______ _____ _____    ______ ____
ROOT
ATOM      1  O   UNL     1       0.798   4.393  19.589  0.00  0.00    +0.000 OA
ATOM      2  C   UNL     1       1.565   4.691  20.500  0.00  0.00    +0.000 C 
ATOM      3  N   UNL     1       2.283   5.873  20.616  0.00  0.00    +0.000 N 
ATOM      4  H   UNL     1       2.998   5.906  21.330  0.00  0.00    +0.000 HD
ENDROOT
BRANCH   3   5
ATOM      5  C   UNL     1       2.212   6.980  19.741  0.00  0.00    +0.000 A 
ATOM      6  C   UNL     1       2.905   7.035  18.524  0.00  0.00    +0.000 A 
ATOM      7  C   UNL     1       2.796   8.140  17.666  0.00  0.00    +0.000 A 
ATOM      8  C   UNL     1       1.976   9.214  17.996  0.00  0.00    +0.000 A 
ATOM      9  C   UNL     1       1.293   9.163  19.197  0.00  0.00    +0.000 A 
ATOM     10  C   UNL     1       1.411   8.075  20.065  0.00  0.00    +0.000 A 
ATOM     11  C   UNL     1       0.657   8.382  21.319  0.00  0.00    +0.000 C 
ATOM     12  N   UNL     1      -0.082   9.647  21.070  0.00  0.00    +0.000 NA
ATOM     13  C   UNL     1       0.402  10.207  19.786  0.00  0.00    +0.000 C 
BRANCH  12  14
ATOM     14  C   UNL     1       0.081  10.610  22.186  0.00  0.00    +0.000 C 
BRANCH  14  15
ATOM     15  C   UNL     1      -1.143  11.451  22.621  0.00  0.00    +0.000 C 
ATOM     16  F   UNL     1      -1.970  11.756  21.597  0.00  0.00    +0.000 F 
ATOM     17  F   UNL     1      -1.873  10.799  23.555  0.00  0.00    +0.000 F 
ATOM     18  F   UNL     1      -0.740  12.622  23.171  0.00  0.00    +0.000 F 
ENDBRANCH  14  15
ENDBRANCH  12  14
ENDBRANCH   3   5
BRANCH   2  19
ATOM     19  C   UNL     1       1.761   3.752  21.677  0.00  0.00    +0.000 C 
BRANCH  19  20
ATOM     20  C   UNL     1       2.654   2.573  21.292  0.00  0.00    +0.000 C 
BRANCH  20  21
ATOM     21  C   UNL     1       3.532   2.907  20.146  0.00  0.00    +0.000 A 
ATOM     22  N   UNL     1       4.379   3.894  20.003  0.00  0.00    +0.000 NA
ATOM     23  C   UNL     1       4.826   3.731  18.705  0.00  0.00    +0.000 A 
ATOM     24  N   UNL     1       4.323   2.635  18.103  0.00  0.00    +0.000 NA
ATOM     25  O   UNL     1       3.458   2.096  19.054  0.00  0.00    +0.000 OA
BRANCH  23  26
ATOM     26  C   UNL     1       5.742   4.677  18.057  0.00  0.00    +0.000 A 
ATOM     27  C   UNL     1       6.673   5.397  18.803  0.00  0.00    +0.000 A 
ATOM     28  C   UNL     1       7.541   6.266  18.143  0.00  0.00    +0.000 A 
ATOM     29  C   UNL     1       7.461   6.388  16.762  0.00  0.00    +0.000 A 
ATOM     30  C   UNL     1       6.509   5.639  16.093  0.00  0.00    +0.000 A 
ATOM     31  N   UNL     1       5.648   4.796  16.703  0.00  0.00    +0.000 NA
ENDBRANCH  23  26
ENDBRANCH  20  21
ENDBRANCH  19  20
ENDBRANCH   2  19
TORSDOF 7
ENDMDL
MODEL 5
REMARK VINA RESULT:      -8.2      6.673      8.754
REMARK  Name = 
REMARK  7 active torsions:
REMARK  status: ('A' for Active; 'I' for Inactive)
REMARK    1  A    between atoms: C_2  and  C_3
REMARK    2  A    between atoms: C_3  and  C_4
REMARK    3  A    between atoms: C_4  and  C_5
REMARK    4  A    between atoms: C_7  and  C_8
REMARK    5  A    between atoms: N_16  and  C_17
REMARK    6  A    between atoms: N_24  and  C_25
REMARK    7  A    between atoms: C_25  and  C_26
REMARK                            x       y       z     vdW  Elec       q    Type
REMARK                         _______ _______ _______ _____ _____    ______ ____
ROOT
ATOM      1  O   UNL     1       8.132   6.817  18.635  0.00  0.00    +0.000 OA
ATOM      2  C   UNL     1       7.708   7.597  17.786  0.00  0.00    +0.000 C 
ATOM      3  N   UNL     1       6.877   7.279  16.721  0.00  0.00    +0.000 N 
ATOM      4  H   UNL     1       6.750   7.989  16.012  0.00  0.00    +0.000 HD
ENDROOT
BRANCH   3   5
ATOM      5  C   UNL     1       6.310   6.013  16.455  0.00  0.00    +0.000 A 
ATOM      6  C   UNL     1       6.704   5.213  15.374  0.00  0.00    +0.000 A 
ATOM      7  C   UNL     1       6.137   3.949  15.150  0.00  0.00    +0.000 A 
ATOM      8  C   UNL     1       5.172   3.444  16.014  0.00  0.00    +0.000 A 
ATOM      9  C   UNL     1       4.779   4.231  17.080  0.00  0.00    +0.000 A 
ATOM     10  C   UNL     1       5.325   5.499  17.298  0.00  0.00    +0.000 A 
ATOM     11  C   UNL     1       4.606   6.136  18.444  0.00  0.00    +0.000 C 
ATOM     12  N   UNL     1       3.721   5.092  19.023  0.00  0.00    +0.000 NA
ATOM     13  C   UNL     1       3.734   3.930  18.103  0.00  0.00    +0.000 C 
BRANCH  12  14
ATOM     14  C   UNL     1       2.346   5.599  19.249  0.00  0.00    +0.000 C 
BRANCH  14  15
ATOM     15  C   UNL     1       1.589   5.137  20.518  0.00  0.00    +0.000 C 
ATOM     16  F   UNL     1       0.752   4.101  20.292  0.00  0.00    +0.000 F 
ATOM     17  F   UNL     1       2.453   4.760  21.488  0.00  0.00    +0.000 F 
ATOM     18  F   UNL     1       0.842   6.152  21.017  0.00  0.00    +0.000 F 
ENDBRANCH  14  15
ENDBRANCH  12  14
ENDBRANCH   3   5
BRANCH   2  19
ATOM     19  C   UNL     1       8.038   9.077  17.870  0.00  0.00    +0.000 C 
BRANCH  19  20
ATOM     20  C   UNL     1       9.048   9.349  18.984  0.00  0.00    +0.000 C 
BRANCH  20  21
ATOM     21  C   UNL     1       9.401  10.787  19.059  0.00  0.00    +0.000 A 
ATOM     22  N   UNL     1       9.759  11.505  20.092  0.00  0.00    +0.000 NA
ATOM     23  C   UNL     1       9.869  12.777  19.560  0.00  0.00    +0.000 A 
ATOM     24  N   UNL     1       9.659  12.816  18.229  0.00  0.00    +0.000 NA
ATOM     25  O   UNL     1       9.339  11.500  17.901  0.00  0.00    +0.000 OA
BRANCH  23  26
ATOM     26  C   UNL     1      10.168  13.956  20.380  0.00  0.00    +0.000 A 
ATOM     27  C   UNL     1       9.614  14.106  21.650  0.00  0.00    +0.000 A 
ATOM     28  C   UNL     1       9.945  15.230  22.404  0.00  0.00    +0.000 A 
ATOM     29  C   UNL     1      10.822  16.168  21.876  0.00  0.00    +0.000 A 
ATOM     30  C   UNL     1      11.330  15.949  20.608  0.00  0.00    +0.000 A 
ATOM     31  N   UNL     1      11.021  14.875  19.849  0.00  0.00    +0.000 NA
ENDBRANCH  23  26
ENDBRANCH  20  21
ENDBRANCH  19  20
ENDBRANCH   2  19
TORSDOF 7
ENDMDL
MODEL 6
REMARK VINA RESULT:      -8.1      6.691      8.946
REMARK  Name = 
REMARK  7 active torsions:
REMARK  status: ('A' for Active; 'I' for Inactive)
REMARK    1  A    between atoms: C_2  and  C_3
REMARK    2  A    between atoms: C_3  and  C_4
REMARK    3  A    between atoms: C_4  and  C_5
REMARK    4  A    between atoms: C_7  and  C_8
REMARK    5  A    between atoms: N_16  and  C_17
REMARK    6  A    between atoms: N_24  and  C_25
REMARK    7  A    between atoms: C_25  and  C_26
REMARK                            x       y       z     vdW  Elec       q    Type
REMARK                         _______ _______ _______ _____ _____    ______ ____
ROOT
ATOM      1  O   UNL     1       8.260   6.996  18.510  0.00  0.00    +0.000 OA
ATOM      2  C   UNL     1       7.686   7.748  17.726  0.00  0.00    +0.000 C 
ATOM      3  N   UNL     1       6.820   7.368  16.710  0.00  0.00    +0.000 N 
ATOM      4  H   UNL     1       6.559   8.081  16.041  0.00  0.00    +0.000 HD
ENDROOT
BRANCH   3   5
ATOM      5  C   UNL     1       6.384   6.053  16.433  0.00  0.00    +0.000 A 
ATOM      6  C   UNL     1       6.864   5.304  15.350  0.00  0.00    +0.000 A 
ATOM      7  C   UNL     1       6.428   3.991  15.116  0.00  0.00    +0.000 A 
ATOM      8  C   UNL     1       5.513   3.385  15.970  0.00  0.00    +0.000 A 
ATOM      9  C   UNL     1       5.037   4.123  17.038  0.00  0.00    +0.000 A 
ATOM     10  C   UNL     1       5.452   5.438  17.267  0.00  0.00    +0.000 A 
ATOM     11  C   UNL     1       4.664   5.993  18.411  0.00  0.00    +0.000 C 
ATOM     12  N   UNL     1       3.885   4.862  18.978  0.00  0.00    +0.000 NA
ATOM     13  C   UNL     1       4.020   3.713  18.052  0.00  0.00    +0.000 C 
BRANCH  12  14
ATOM     14  C   UNL     1       2.464   5.227  19.198  0.00  0.00    +0.000 C 
BRANCH  14  15
ATOM     15  C   UNL     1       1.557   4.234  19.964  0.00  0.00    +0.000 C 
ATOM     16  F   UNL     1       2.236   3.457  20.836  0.00  0.00    +0.000 F 
ATOM     17  F   UNL     1       0.599   4.889  20.659  0.00  0.00    +0.000 F 
ATOM     18  F   UNL     1       0.928   3.405  19.096  0.00  0.00    +0.000 F 
ENDBRANCH  14  15
ENDBRANCH  12  14
ENDBRANCH   3   5
BRANCH   2  19
ATOM     19  C   UNL     1       7.849   9.253  17.846  0.00  0.00    +0.000 C 
BRANCH  19  20
ATOM     20  C   UNL     1       8.956   9.605  18.839  0.00  0.00    +0.000 C 
BRANCH  20  21
ATOM     21  C   UNL     1       9.502  10.960  18.587  0.00  0.00    +0.000 A 
ATOM     22  N   UNL     1       9.192  12.101  19.145  0.00  0.00    +0.000 NA
ATOM     23  C   UNL     1       9.963  13.008  18.442  0.00  0.00    +0.000 A 
ATOM     24  N   UNL     1      10.774  12.426  17.535  0.00  0.00    +0.000 NA
ATOM     25  O   UNL     1      10.460  11.071  17.625  0.00  0.00    +0.000 OA
BRANCH  23  26
ATOM     26  C   UNL     1       9.882  14.456  18.661  0.00  0.00    +0.000 A 
ATOM     27  C   UNL     1      10.913  15.302  18.256  0.00  0.00    +0.000 A 
ATOM     28  C   UNL     1      10.782  16.674  18.462  0.00  0.00    +0.000 A 
ATOM     29  C   UNL     1       9.628  17.166  19.058  0.00  0.00    +0.000 A 
ATOM     30  C   UNL     1       8.649  16.262  19.433  0.00  0.00    +0.000 A 
ATOM     31  N   UNL     1       8.750  14.926  19.256  0.00  0.00    +0.000 NA
ENDBRANCH  23  26
ENDBRANCH  20  21
ENDBRANCH  19  20
ENDBRANCH   2  19
TORSDOF 7
ENDMDL
MODEL 7
REMARK VINA RESULT:      -8.0      6.280      8.400
REMARK  Name = 
REMARK  7 active torsions:
REMARK  status: ('A' for Active; 'I' for Inactive)
REMARK    1  A    between atoms: C_2  and  C_3
REMARK    2  A    between atoms: C_3  and  C_4
REMARK    3  A    between atoms: C_4  and  C_5
REMARK    4  A    between atoms: C_7  and  C_8
REMARK    5  A    between atoms: N_16  and  C_17
REMARK    6  A    between atoms: N_24  and  C_25
REMARK    7  A    between atoms: C_25  and  C_26
REMARK                            x       y       z     vdW  Elec       q    Type
REMARK                         _______ _______ _______ _____ _____    ______ ____
ROOT
ATOM      1  O   UNL     1       8.085   5.339  19.133  0.00  0.00    +0.000 OA
ATOM      2  C   UNL     1       7.941   6.394  18.520  0.00  0.00    +0.000 C 
ATOM      3  N   UNL     1       7.231   6.568  17.341  0.00  0.00    +0.000 N 
ATOM      4  H   UNL     1       7.341   7.454  16.867  0.00  0.00    +0.000 HD
ENDROOT
BRANCH   3   5
ATOM      5  C   UNL     1       6.486   5.578  16.662  0.00  0.00    +0.000 A 
ATOM      6  C   UNL     1       6.808   5.133  15.373  0.00  0.00    +0.000 A 
ATOM      7  C   UNL     1       6.061   4.131  14.734  0.00  0.00    +0.000 A 
ATOM      8  C   UNL     1       4.981   3.535  15.376  0.00  0.00    +0.000 A 
ATOM      9  C   UNL     1       4.660   3.974  16.648  0.00  0.00    +0.000 A 
ATOM     10  C   UNL     1       5.387   4.985  17.282  0.00  0.00    +0.000 A 
ATOM     11  C   UNL     1       4.715   5.313  18.577  0.00  0.00    +0.000 C 
ATOM     12  N   UNL     1       3.645   4.300  18.768  0.00  0.00    +0.000 NA
ATOM     13  C   UNL     1       3.525   3.528  17.509  0.00  0.00    +0.000 C 
BRANCH  12  14
ATOM     14  C   UNL     1       2.357   4.924  19.156  0.00  0.00    +0.000 C 
BRANCH  14  15
ATOM     15  C   UNL     1       1.514   4.251  20.265  0.00  0.00    +0.000 C 
ATOM     16  F   UNL     1       2.253   3.831  21.315  0.00  0.00    +0.000 F 
ATOM     17  F   UNL     1       0.573   5.099  20.742  0.00  0.00    +0.000 F 
ATOM     18  F   UNL     1       0.866   3.168  19.773  0.00  0.00    +0.000 F 
ENDBRANCH  14  15
ENDBRANCH  12  14
ENDBRANCH   3   5
BRANCH   2  19
ATOM     19  C   UNL     1       8.521   7.685  19.069  0.00  0.00    +0.000 C 
BRANCH  19  20
ATOM     20  C   UNL     1       8.347   8.830  18.071  0.00  0.00    +0.000 C 
BRANCH  20  21
ATOM     21  C   UNL     1       8.976  10.079  18.561  0.00  0.00    +0.000 A 
ATOM     22  N   UNL     1       9.397  11.120  17.890  0.00  0.00    +0.000 NA
ATOM     23  C   UNL     1       9.959  11.913  18.873  0.00  0.00    +0.000 A 
ATOM     24  N   UNL     1       9.816  11.405  20.113  0.00  0.00    +0.000 NA
ATOM     25  O   UNL     1       9.175  10.186  19.905  0.00  0.00    +0.000 OA
BRANCH  23  26
ATOM     26  C   UNL     1      10.654  13.171  18.576  0.00  0.00    +0.000 A 
ATOM     27  C   UNL     1      11.348  13.859  19.569  0.00  0.00    +0.000 A 
ATOM     28  C   UNL     1      12.015  15.037  19.237  0.00  0.00    +0.000 A 
ATOM     29  C   UNL     1      11.977  15.492  17.925  0.00  0.00    +0.000 A 
ATOM     30  C   UNL     1      11.267  14.753  16.996  0.00  0.00    +0.000 A 
ATOM     31  N   UNL     1      10.602  13.614  17.288  0.00  0.00    +0.000 NA
ENDBRANCH  23  26
ENDBRANCH  20  21
ENDBRANCH  19  20
ENDBRANCH   2  19
TORSDOF 7
ENDMDL
MODEL 8
REMARK VINA RESULT:      -7.9      6.467      8.901
REMARK  Name = 
REMARK  7 active torsions:
REMARK  status: ('A' for Active; 'I' for Inactive)
REMARK    1  A    between atoms: C_2  and  C_3
REMARK    2  A    between atoms: C_3  and  C_4
REMARK    3  A    between atoms: C_4  and  C_5
REMARK    4  A    between atoms: C_7  and  C_8
REMARK    5  A    between atoms: N_16  and  C_17
REMARK    6  A    between atoms: N_24  and  C_25
REMARK    7  A    between atoms: C_25  and  C_26
REMARK                            x       y       z     vdW  Elec       q    Type
REMARK                         _______ _______ _______ _____ _____    ______ ____
ROOT
ATOM      1  O   UNL     1       7.026   8.463  17.035  0.00  0.00    +0.000 OA
ATOM      2  C   UNL     1       7.671   7.803  17.846  0.00  0.00    +0.000 C 
ATOM      3  N   UNL     1       7.641   6.423  17.991  0.00  0.00    +0.000 N 
ATOM      4  H   UNL     1       8.095   6.039  18.809  0.00  0.00    +0.000 HD
ENDROOT
BRANCH   3   5
ATOM      5  C   UNL     1       6.914   5.516  17.188  0.00  0.00    +0.000 A 
ATOM      6  C   UNL     1       7.281   5.198  15.874  0.00  0.00    +0.000 A 
ATOM      7  C   UNL     1       6.552   4.275  15.110  0.00  0.00    +0.000 A 
ATOM      8  C   UNL     1       5.443   3.630  15.648  0.00  0.00    +0.000 A 
ATOM      9  C   UNL     1       5.077   3.943  16.945  0.00  0.00    +0.000 A 
ATOM     10  C   UNL     1       5.788   4.875  17.704  0.00  0.00    +0.000 A 
ATOM     11  C   UNL     1       5.070   5.079  19.000  0.00  0.00    +0.000 C 
ATOM     12  N   UNL     1       3.986   4.065  19.049  0.00  0.00    +0.000 NA
ATOM     13  C   UNL     1       3.907   3.426  17.714  0.00  0.00    +0.000 C 
BRANCH  12  14
ATOM     14  C   UNL     1       2.689   4.663  19.449  0.00  0.00    +0.000 C 
BRANCH  14  15
ATOM     15  C   UNL     1       1.492   3.719  19.718  0.00  0.00    +0.000 C 
ATOM     16  F   UNL     1       0.864   3.321  18.590  0.00  0.00    +0.000 F 
ATOM     17  F   UNL     1       1.890   2.606  20.378  0.00  0.00    +0.000 F 
ATOM     18  F   UNL     1       0.569   4.336  20.493  0.00  0.00    +0.000 F 
ENDBRANCH  14  15
ENDBRANCH  12  14
ENDBRANCH   3   5
BRANCH   2  19
ATOM     19  C   UNL     1       8.657   8.484  18.779  0.00  0.00    +0.000 C 
BRANCH  19  20
ATOM     20  C   UNL     1       9.049   9.862  18.247  0.00  0.00    +0.000 C 
BRANCH  20  21
ATOM     21  C   UNL     1       9.481  10.764  19.341  0.00  0.00    +0.000 A 
ATOM     22  N   UNL     1       8.781  11.299  20.308  0.00  0.00    +0.000 NA
ATOM     23  C   UNL     1       9.704  12.104  20.949  0.00  0.00    +0.000 A 
ATOM     24  N   UNL     1      10.946  12.003  20.434  0.00  0.00    +0.000 NA
ATOM     25  O   UNL     1      10.795  11.125  19.363  0.00  0.00    +0.000 OA
BRANCH  23  26
ATOM     26  C   UNL     1       9.347  12.986  22.066  0.00  0.00    +0.000 A 
ATOM     27  C   UNL     1       8.643  12.500  23.166  0.00  0.00    +0.000 A 
ATOM     28  C   UNL     1       8.347  13.368  24.216  0.00  0.00    +0.000 A 
ATOM     29  C   UNL     1       8.764  14.691  24.143  0.00  0.00    +0.000 A 
ATOM     30  C   UNL     1       9.458  15.097  23.017  0.00  0.00    +0.000 A 
ATOM     31  N   UNL     1       9.752  14.284  21.979  0.00  0.00    +0.000 NA
ENDBRANCH  23  26
ENDBRANCH  20  21
ENDBRANCH  19  20
ENDBRANCH   2  19
TORSDOF 7
ENDMDL
MODEL 9
REMARK VINA RESULT:      -7.8      3.174      8.544
REMARK  Name = 
REMARK  7 active torsions:
REMARK  status: ('A' for Active; 'I' for Inactive)
REMARK    1  A    between atoms: C_2  and  C_3
REMARK    2  A    between atoms: C_3  and  C_4
REMARK    3  A    between atoms: C_4  and  C_5
REMARK    4  A    between atoms: C_7  and  C_8
REMARK    5  A    between atoms: N_16  and  C_17
REMARK    6  A    between atoms: N_24  and  C_25
REMARK    7  A    between atoms: C_25  and  C_26
REMARK                            x       y       z     vdW  Elec       q    Type
REMARK                         _______ _______ _______ _____ _____    ______ ____
ROOT
ATOM      1  O   UNL     1       1.440   7.510  17.447  0.00  0.00    +0.000 OA
ATOM      2  C   UNL     1       2.380   8.209  17.814  0.00  0.00    +0.000 C 
ATOM      3  N   UNL     1       3.724   7.862  17.781  0.00  0.00    +0.000 N 
ATOM      4  H   UNL     1       4.366   8.471  18.271  0.00  0.00    +0.000 HD
ENDROOT
BRANCH   3   5
ATOM      5  C   UNL     1       4.264   6.667  17.256  0.00  0.00    +0.000 A 
ATOM      6  C   UNL     1       4.938   6.611  16.028  0.00  0.00    +0.000 A 
ATOM      7  C   UNL     1       5.484   5.412  15.545  0.00  0.00    +0.000 A 
ATOM      8  C   UNL     1       5.384   4.239  16.286  0.00  0.00    +0.000 A 
ATOM      9  C   UNL     1       4.717   4.291  17.496  0.00  0.00    +0.000 A 
ATOM     10  C   UNL     1       4.155   5.478  17.975  0.00  0.00    +0.000 A 
ATOM     11  C   UNL     1       3.403   5.174  19.232  0.00  0.00    +0.000 C 
ATOM     12  N   UNL     1       3.711   3.763  19.580  0.00  0.00    +0.000 NA
ATOM     13  C   UNL     1       4.438   3.165  18.436  0.00  0.00    +0.000 C 
BRANCH  12  14
ATOM     14  C   UNL     1       2.486   2.997  19.913  0.00  0.00    +0.000 C 
BRANCH  14  15
ATOM     15  C   UNL     1       1.579   3.514  21.056  0.00  0.00    +0.000 C 
ATOM     16  F   UNL     1       0.981   2.523  21.751  0.00  0.00    +0.000 F 
ATOM     17  F   UNL     1       2.286   4.262  21.935  0.00  0.00    +0.000 F 
ATOM     18  F   UNL     1       0.596   4.303  20.558  0.00  0.00    +0.000 F 
ENDBRANCH  14  15
ENDBRANCH  12  14
ENDBRANCH   3   5
BRANCH   2  19
ATOM     19  C   UNL     1       2.137   9.621  18.317  0.00  0.00    +0.000 C 
BRANCH  19  20
ATOM     20  C   UNL     1       0.640   9.902  18.453  0.00  0.00    +0.000 C 
BRANCH  20  21
ATOM     21  C   UNL     1       0.301  10.398  19.808  0.00  0.00    +0.000 A 
ATOM     22  N   UNL     1      -0.568  11.306  20.171  0.00  0.00    +0.000 NA
ATOM     23  C   UNL     1      -0.370  11.394  21.536  0.00  0.00    +0.000 A 
ATOM     24  N   UNL     1       0.538  10.512  22.000  0.00  0.00    +0.000 NA
ATOM     25  O   UNL     1       0.989   9.860  20.853  0.00  0.00    +0.000 OA
BRANCH  23  26
ATOM     26  C   UNL     1      -1.073  12.368  22.378  0.00  0.00    +0.000 A 
ATOM     27  C   UNL     1      -2.272  12.039  23.008  0.00  0.00    +0.000 A 
ATOM     28  C   UNL     1      -2.893  12.987  23.819  0.00  0.00    +0.000 A 
ATOM     29  C   UNL     1      -2.300  14.232  23.985  0.00  0.00    +0.000 A 
ATOM     30  C   UNL     1      -1.110  14.483  23.327  0.00  0.00    +0.000 A 
ATOM     31  N   UNL     1      -0.488  13.590  22.526  0.00  0.00    +0.000 NA
ENDBRANCH  23  26
ENDBRANCH  20  21
ENDBRANCH  19  20
ENDBRANCH   2  19
TORSDOF 7
ENDMDL
