MODEL 1
REMARK VINA RESULT:      -9.5      0.000      0.000
REMARK  Name = 
REMARK  4 active torsions:
REMARK  status: ('A' for Active; 'I' for Inactive)
REMARK    1  A    between atoms: C_2  and  C_3
REMARK    2  A    between atoms: C_3  and  N_4
REMARK    3  A    between atoms: C_7  and  C_8
REMARK    4  A    between atoms: C_19  and  C_20
REMARK                            x       y       z     vdW  Elec       q    Type
REMARK                         _______ _______ _______ _____ _____    ______ ____
ROOT
ATOM      1  O   UNL     1       4.833   7.296  16.776  0.00  0.00    +0.000 OA
ATOM      2  C   UNL     1       5.098   6.281  17.447  0.00  0.00    +0.000 C 
ATOM      3  N   UNL     1       4.112   5.706  18.254  0.00  0.00    +0.000 N 
ATOM      4  C   UNL     1       4.228   4.429  18.941  0.00  0.00    +0.000 C 
ATOM      5  C   UNL     1       2.963   3.693  18.540  0.00  0.00    +0.000 C 
ATOM      6  C   UNL     1       1.923   4.807  18.539  0.00  0.00    +0.000 C 
ATOM      7  C   UNL     1       2.698   6.042  18.022  0.00  0.00    +0.000 C 
ENDROOT
BRANCH   7   8
ATOM      8  C   UNL     1       2.177   7.340  18.596  0.00  0.00    +0.000 A 
ATOM      9  C   UNL     1       1.954   8.500  17.867  0.00  0.00    +0.000 A 
ATOM     10  C   UNL     1       1.397   9.644  18.481  0.00  0.00    +0.000 A 
ATOM     11  C   UNL     1       1.060   9.687  19.836  0.00  0.00    +0.000 A 
ATOM     12  C   UNL     1       1.354   8.567  20.568  0.00  0.00    +0.000 A 
ATOM     13  C   UNL     1       1.886   7.406  19.958  0.00  0.00    +0.000 A 
ATOM     14  O   UNL     1       1.244   8.381  21.875  0.00  0.00    +0.000 OA
ATOM     15  C   UNL     1       0.535   9.258  22.681  0.00  0.00    +0.000 C 
ATOM     16  C   UNL     1      -0.306  10.485  22.560  0.00  0.00    +0.000 C 
ATOM     17  C   UNL     1      -0.136  11.303  21.333  0.00  0.00    +0.000 C 
ATOM     18  O   UNL     1       0.628  10.903  20.219  0.00  0.00    +0.000 OA
ENDBRANCH   7   8
BRANCH   2  19
ATOM     19  C   UNL     1       6.444   5.593  17.371  0.00  0.00    +0.000 C 
BRANCH  19  20
ATOM     20  N   UNL     1       6.748   5.125  16.030  0.00  0.00    +0.000 N 
ATOM     21  N   UNL     1       7.700   5.739  15.291  0.00  0.00    +0.000 NA
ATOM     22  N   UNL     1       7.572   5.231  14.112  0.00  0.00    +0.000 NA
ATOM     23  C   UNL     1       6.475   4.377  14.134  0.00  0.00    +0.000 A 
ATOM     24  N   UNL     1       5.897   4.360  15.350  0.00  0.00    +0.000 NA
BRANCH  23  25
ATOM     25  C   UNL     1       6.012   3.622  12.960  0.00  0.00    +0.000 A 
ATOM     26  C   UNL     1       6.922   2.797  12.265  0.00  0.00    +0.000 A 
ATOM     27  C   UNL     1       6.494   2.054  11.172  0.00  0.00    +0.000 A 
ATOM     28  C   UNL     1       5.162   2.119  10.750  0.00  0.00    +0.000 A 
ATOM     29  C   UNL     1       4.262   2.947  11.435  0.00  0.00    +0.000 A 
ATOM     30  C   UNL     1       4.689   3.689  12.530  0.00  0.00    +0.000 A 
ENDBRANCH  23  25
ENDBRANCH  19  20
ENDBRANCH   2  19
TORSDOF 4
ENDMDL
MODEL 2
REMARK VINA RESULT:      -9.3      0.870      1.629
REMARK  Name = 
REMARK  4 active torsions:
REMARK  status: ('A' for Active; 'I' for Inactive)
REMARK    1  A    between atoms: C_2  and  C_3
REMARK    2  A    between atoms: C_3  and  N_4
REMARK    3  A    between atoms: C_7  and  C_8
REMARK    4  A    between atoms: C_19  and  C_20
REMARK                            x       y       z     vdW  Elec       q    Type
REMARK                         _______ _______ _______ _____ _____    ______ ____
ROOT
ATOM      1  O   UNL     1       5.036   7.053  17.279  0.00  0.00    +0.000 OA
ATOM      2  C   UNL     1       5.189   5.862  17.608  0.00  0.00    +0.000 C 
ATOM      3  N   UNL     1       4.103   5.134  18.102  0.00  0.00    +0.000 N 
ATOM      4  C   UNL     1       4.095   3.700  18.350  0.00  0.00    +0.000 C 
ATOM      5  C   UNL     1       2.850   3.221  17.629  0.00  0.00    +0.000 C 
ATOM      6  C   UNL     1       1.862   4.350  17.898  0.00  0.00    +0.000 C 
ATOM      7  C   UNL     1       2.735   5.626  17.872  0.00  0.00    +0.000 C 
ENDROOT
BRANCH   7   8
ATOM      8  C   UNL     1       2.212   6.710  18.786  0.00  0.00    +0.000 A 
ATOM      9  C   UNL     1       1.965   6.557  20.144  0.00  0.00    +0.000 A 
ATOM     10  C   UNL     1       1.543   7.651  20.931  0.00  0.00    +0.000 A 
ATOM     11  C   UNL     1       1.333   8.927  20.402  0.00  0.00    +0.000 A 
ATOM     12  C   UNL     1       1.502   9.055  19.048  0.00  0.00    +0.000 A 
ATOM     13  C   UNL     1       1.951   7.972  18.255  0.00  0.00    +0.000 A 
ATOM     14  O   UNL     1       1.264  10.109  18.281  0.00  0.00    +0.000 OA
ATOM     15  C   UNL     1       1.045  11.368  18.817  0.00  0.00    +0.000 C 
ATOM     16  C   UNL     1       1.031  12.052  20.144  0.00  0.00    +0.000 C 
ATOM     17  C   UNL     1       0.842  11.197  21.343  0.00  0.00    +0.000 C 
ATOM     18  O   UNL     1       0.851   9.789  21.316  0.00  0.00    +0.000 OA
ENDBRANCH   7   8
BRANCH   2  19
ATOM     19  C   UNL     1       6.507   5.139  17.429  0.00  0.00    +0.000 C 
BRANCH  19  20
ATOM     20  N   UNL     1       6.768   4.808  16.039  0.00  0.00    +0.000 N 
ATOM     21  N   UNL     1       7.622   5.558  15.306  0.00  0.00    +0.000 NA
ATOM     22  N   UNL     1       7.467   5.136  14.096  0.00  0.00    +0.000 NA
ATOM     23  C   UNL     1       6.444   4.194  14.103  0.00  0.00    +0.000 A 
ATOM     24  N   UNL     1       5.942   4.030  15.342  0.00  0.00    +0.000 NA
BRANCH  23  25
ATOM     25  C   UNL     1       5.975   3.498  12.895  0.00  0.00    +0.000 A 
ATOM     26  C   UNL     1       6.835   2.589  12.243  0.00  0.00    +0.000 A 
ATOM     27  C   UNL     1       6.397   1.901  11.117  0.00  0.00    +0.000 A 
ATOM     28  C   UNL     1       5.106   2.107  10.621  0.00  0.00    +0.000 A 
ATOM     29  C   UNL     1       4.258   3.019  11.264  0.00  0.00    +0.000 A 
ATOM     30  C   UNL     1       4.694   3.705  12.390  0.00  0.00    +0.000 A 
ENDBRANCH  23  25
ENDBRANCH  19  20
ENDBRANCH   2  19
TORSDOF 4
ENDMDL
MODEL 3
REMARK VINA RESULT:      -9.2      3.323      5.606
REMARK  Name = 
REMARK  4 active torsions:
REMARK  status: ('A' for Active; 'I' for Inactive)
REMARK    1  A    between atoms: C_2  and  C_3
REMARK    2  A    between atoms: C_3  and  N_4
REMARK    3  A    between atoms: C_7  and  C_8
REMARK    4  A    between atoms: C_19  and  C_20
REMARK                            x       y       z     vdW  Elec       q    Type
REMARK                         _______ _______ _______ _____ _____    ______ ____
ROOT
ATOM      1  O   UNL     1       4.338   7.436  16.348  0.00  0.00    +0.000 OA
ATOM      2  C   UNL     1       4.965   6.639  17.071  0.00  0.00    +0.000 C 
ATOM      3  N   UNL     1       4.336   6.063  18.178  0.00  0.00    +0.000 N 
ATOM      4  C   UNL     1       4.885   4.990  18.993  0.00  0.00    +0.000 C 
ATOM      5  C   UNL     1       3.764   3.969  19.040  0.00  0.00    +0.000 C 
ATOM      6  C   UNL     1       2.524   4.850  19.140  0.00  0.00    +0.000 C 
ATOM      7  C   UNL     1       2.867   6.080  18.267  0.00  0.00    +0.000 C 
ENDROOT
BRANCH   7   8
ATOM      8  C   UNL     1       2.204   7.346  18.757  0.00  0.00    +0.000 A 
ATOM      9  C   UNL     1       1.794   8.396  17.946  0.00  0.00    +0.000 A 
ATOM     10  C   UNL     1       1.118   9.510  18.491  0.00  0.00    +0.000 A 
ATOM     11  C   UNL     1       0.839   9.634  19.854  0.00  0.00    +0.000 A 
ATOM     12  C   UNL     1       1.313   8.633  20.661  0.00  0.00    +0.000 A 
ATOM     13  C   UNL     1       1.968   7.499  20.123  0.00  0.00    +0.000 A 
ATOM     14  O   UNL     1       1.288   8.555  21.983  0.00  0.00    +0.000 OA
ATOM     15  C   UNL     1       0.506   9.403  22.751  0.00  0.00    +0.000 C 
ATOM     16  C   UNL     1      -0.497  10.495  22.574  0.00  0.00    +0.000 C 
ATOM     17  C   UNL     1      -0.493  11.211  21.274  0.00  0.00    +0.000 C 
ATOM     18  O   UNL     1       0.266  10.813  20.157  0.00  0.00    +0.000 OA
ENDBRANCH   7   8
BRANCH   2  19
ATOM     19  C   UNL     1       6.383   6.210  16.757  0.00  0.00    +0.000 C 
BRANCH  19  20
ATOM     20  N   UNL     1       7.369   7.011  17.460  0.00  0.00    +0.000 N 
ATOM     21  N   UNL     1       7.997   6.520  18.553  0.00  0.00    +0.000 NA
ATOM     22  N   UNL     1       8.629   7.531  19.046  0.00  0.00    +0.000 NA
ATOM     23  C   UNL     1       8.294   8.650  18.290  0.00  0.00    +0.000 A 
ATOM     24  N   UNL     1       7.427   8.333  17.310  0.00  0.00    +0.000 NA
BRANCH  23  25
ATOM     25  C   UNL     1       8.816   9.998  18.564  0.00  0.00    +0.000 A 
ATOM     26  C   UNL     1       9.477  10.249  19.785  0.00  0.00    +0.000 A 
ATOM     27  C   UNL     1      10.002  11.509  20.047  0.00  0.00    +0.000 A 
ATOM     28  C   UNL     1       9.878  12.536  19.105  0.00  0.00    +0.000 A 
ATOM     29  C   UNL     1       9.211  12.287  17.898  0.00  0.00    +0.000 A 
ATOM     30  C   UNL     1       8.688  11.027  17.635  0.00  0.00    +0.000 A 
ENDBRANCH  23  25
ENDBRANCH  19  20
ENDBRANCH   2  19
TORSDOF 4
ENDMDL
MODEL 4
REMARK VINA RESULT:      -9.1      0.494      1.007
REMARK  Name = 
REMARK  4 active torsions:
REMARK  status: ('A' for Active; 'I' for Inactive)
REMARK    1  A    between atoms: C_2  and  C_3
REMARK    2  A    between atoms: C_3  and  N_4
REMARK    3  A    between atoms: C_7  and  C_8
REMARK    4  A    between atoms: C_19  and  C_20
REMARK                            x       y       z     vdW  Elec       q    Type
REMARK                         _______ _______ _______ _____ _____    ______ ____
ROOT
ATOM      1  O   UNL     1       4.538   7.023  17.042  0.00  0.00    +0.000 OA
ATOM      2  C   UNL     1       4.880   6.125  17.835  0.00  0.00    +0.000 C 
ATOM      3  N   UNL     1       3.975   5.668  18.797  0.00  0.00    +0.000 N 
ATOM      4  C   UNL     1       4.176   4.512  19.657  0.00  0.00    +0.000 C 
ATOM      5  C   UNL     1       2.902   3.708  19.476  0.00  0.00    +0.000 C 
ATOM      6  C   UNL     1       1.838   4.795  19.392  0.00  0.00    +0.000 C 
ATOM      7  C   UNL     1       2.539   5.947  18.633  0.00  0.00    +0.000 C 
ENDROOT
BRANCH   7   8
ATOM      8  C   UNL     1       2.033   7.310  19.044  0.00  0.00    +0.000 A 
ATOM      9  C   UNL     1       1.987   8.425  18.219  0.00  0.00    +0.000 A 
ATOM     10  C   UNL     1       1.430   9.641  18.674  0.00  0.00    +0.000 A 
ATOM     11  C   UNL     1       0.917   9.801  19.964  0.00  0.00    +0.000 A 
ATOM     12  C   UNL     1       1.035   8.722  20.800  0.00  0.00    +0.000 A 
ATOM     13  C   UNL     1       1.566   7.491  20.345  0.00  0.00    +0.000 A 
ATOM     14  O   UNL     1       0.737   8.638  22.088  0.00  0.00    +0.000 OA
ATOM     15  C   UNL     1      -0.014   9.610  22.730  0.00  0.00    +0.000 C 
ATOM     16  C   UNL     1      -0.747  10.871  22.415  0.00  0.00    +0.000 C 
ATOM     17  C   UNL     1      -0.360  11.586  21.173  0.00  0.00    +0.000 C 
ATOM     18  O   UNL     1       0.519  11.064  20.204  0.00  0.00    +0.000 OA
ENDBRANCH   7   8
BRANCH   2  19
ATOM     19  C   UNL     1       6.232   5.450  17.754  0.00  0.00    +0.000 C 
BRANCH  19  20
ATOM     20  N   UNL     1       6.598   5.111  16.390  0.00  0.00    +0.000 N 
ATOM     21  N   UNL     1       7.482   5.875  15.709  0.00  0.00    +0.000 NA
ATOM     22  N   UNL     1       7.422   5.437  14.496  0.00  0.00    +0.000 NA
ATOM     23  C   UNL     1       6.425   4.468  14.445  0.00  0.00    +0.000 A 
ATOM     24  N   UNL     1       5.842   4.305  15.647  0.00  0.00    +0.000 NA
BRANCH  23  25
ATOM     25  C   UNL     1       6.059   3.748  13.215  0.00  0.00    +0.000 A 
ATOM     26  C   UNL     1       4.703   3.685  12.828  0.00  0.00    +0.000 A 
ATOM     27  C   UNL     1       4.343   3.035  11.654  0.00  0.00    +0.000 A 
ATOM     28  C   UNL     1       5.318   2.436  10.850  0.00  0.00    +0.000 A 
ATOM     29  C   UNL     1       6.663   2.490  11.242  0.00  0.00    +0.000 A 
ATOM     30  C   UNL     1       7.024   3.142  12.415  0.00  0.00    +0.000 A 
ENDBRANCH  23  25
ENDBRANCH  19  20
ENDBRANCH   2  19
TORSDOF 4
ENDMDL
MODEL 5
REMARK VINA RESULT:      -8.6      0.951      1.903
REMARK  Name = 
REMARK  4 active torsions:
REMARK  status: ('A' for Active; 'I' for Inactive)
REMARK    1  A    between atoms: C_2  and  C_3
REMARK    2  A    between atoms: C_3  and  N_4
REMARK    3  A    between atoms: C_7  and  C_8
REMARK    4  A    between atoms: C_19  and  C_20
REMARK                            x       y       z     vdW  Elec       q    Type
REMARK                         _______ _______ _______ _____ _____    ______ ____
ROOT
ATOM      1  O   UNL     1       4.753   7.106  17.605  0.00  0.00    +0.000 OA
ATOM      2  C   UNL     1       4.987   6.001  18.128  0.00  0.00    +0.000 C 
ATOM      3  N   UNL     1       3.961   5.309  18.778  0.00  0.00    +0.000 N 
ATOM      4  C   UNL     1       4.049   3.942  19.268  0.00  0.00    +0.000 C 
ATOM      5  C   UNL     1       2.817   3.275  18.686  0.00  0.00    +0.000 C 
ATOM      6  C   UNL     1       1.768   4.375  18.793  0.00  0.00    +0.000 C 
ATOM      7  C   UNL     1       2.560   5.675  18.517  0.00  0.00    +0.000 C 
ENDROOT
BRANCH   7   8
ATOM      8  C   UNL     1       1.994   6.870  19.249  0.00  0.00    +0.000 A 
ATOM      9  C   UNL     1       1.577   6.868  20.574  0.00  0.00    +0.000 A 
ATOM     10  C   UNL     1       1.127   8.055  21.193  0.00  0.00    +0.000 A 
ATOM     11  C   UNL     1       1.057   9.278  20.521  0.00  0.00    +0.000 A 
ATOM     12  C   UNL     1       1.397   9.260  19.194  0.00  0.00    +0.000 A 
ATOM     13  C   UNL     1       1.874   8.082  18.571  0.00  0.00    +0.000 A 
ATOM     14  O   UNL     1       1.316  10.240  18.306  0.00  0.00    +0.000 OA
ATOM     15  C   UNL     1       1.107  11.556  18.687  0.00  0.00    +0.000 C 
ATOM     16  C   UNL     1       0.973  12.372  19.930  0.00  0.00    +0.000 C 
ATOM     17  C   UNL     1       0.590  11.653  21.171  0.00  0.00    +0.000 C 
ATOM     18  O   UNL     1       0.520  10.251  21.281  0.00  0.00    +0.000 OA
ENDBRANCH   7   8
BRANCH   2  19
ATOM     19  C   UNL     1       6.342   5.333  18.029  0.00  0.00    +0.000 C 
BRANCH  19  20
ATOM     20  N   UNL     1       6.718   5.054  16.654  0.00  0.00    +0.000 N 
ATOM     21  N   UNL     1       7.624   5.834  16.021  0.00  0.00    +0.000 NA
ATOM     22  N   UNL     1       7.571   5.457  14.788  0.00  0.00    +0.000 NA
ATOM     23  C   UNL     1       6.558   4.510  14.677  0.00  0.00    +0.000 A 
ATOM     24  N   UNL     1       5.958   4.299  15.863  0.00  0.00    +0.000 NA
BRANCH  23  25
ATOM     25  C   UNL     1       6.195   3.858  13.410  0.00  0.00    +0.000 A 
ATOM     26  C   UNL     1       4.834   3.633  13.113  0.00  0.00    +0.000 A 
ATOM     27  C   UNL     1       4.471   3.046  11.907  0.00  0.00    +0.000 A 
ATOM     28  C   UNL     1       5.449   2.670  10.981  0.00  0.00    +0.000 A 
ATOM     29  C   UNL     1       6.801   2.885  11.282  0.00  0.00    +0.000 A 
ATOM     30  C   UNL     1       7.164   3.474  12.487  0.00  0.00    +0.000 A 
ENDBRANCH  23  25
ENDBRANCH  19  20
ENDBRANCH   2  19
TORSDOF 4
ENDMDL
MODEL 6
REMARK VINA RESULT:      -8.6      1.536      2.114
REMARK  Name = 
REMARK  4 active torsions:
REMARK  status: ('A' for Active; 'I' for Inactive)
REMARK    1  A    between atoms: C_2  and  C_3
REMARK    2  A    between atoms: C_3  and  N_4
REMARK    3  A    between atoms: C_7  and  C_8
REMARK    4  A    between atoms: C_19  and  C_20
REMARK                            x       y       z     vdW  Elec       q    Type
REMARK                         _______ _______ _______ _____ _____    ______ ____
ROOT
ATOM      1  O   UNL     1       4.208   6.123  18.273  0.00  0.00    +0.000 OA
ATOM      2  C   UNL     1       4.266   5.246  19.155  0.00  0.00    +0.000 C 
ATOM      3  N   UNL     1       3.183   5.056  20.017  0.00  0.00    +0.000 N 
ATOM      4  C   UNL     1       3.044   3.960  20.964  0.00  0.00    +0.000 C 
ATOM      5  C   UNL     1       1.664   3.406  20.668  0.00  0.00    +0.000 C 
ATOM      6  C   UNL     1       0.859   4.668  20.381  0.00  0.00    +0.000 C 
ATOM      7  C   UNL     1       1.862   5.593  19.652  0.00  0.00    +0.000 C 
ENDROOT
BRANCH   7   8
ATOM      8  C   UNL     1       1.599   7.058  19.911  0.00  0.00    +0.000 A 
ATOM      9  C   UNL     1       1.887   8.089  19.026  0.00  0.00    +0.000 A 
ATOM     10  C   UNL     1       1.538   9.423  19.330  0.00  0.00    +0.000 A 
ATOM     11  C   UNL     1       0.912   9.788  20.525  0.00  0.00    +0.000 A 
ATOM     12  C   UNL     1       0.701   8.780  21.428  0.00  0.00    +0.000 A 
ATOM     13  C   UNL     1       1.021   7.435  21.122  0.00  0.00    +0.000 A 
ATOM     14  O   UNL     1       0.234   8.863  22.666  0.00  0.00    +0.000 OA
ATOM     15  C   UNL     1      -0.376  10.013  23.141  0.00  0.00    +0.000 C 
ATOM     16  C   UNL     1      -0.790  11.363  22.657  0.00  0.00    +0.000 C 
ATOM     17  C   UNL     1      -0.112  11.883  21.443  0.00  0.00    +0.000 C 
ATOM     18  O   UNL     1       0.755  11.120  20.636  0.00  0.00    +0.000 OA
ENDBRANCH   7   8
BRANCH   2  19
ATOM     19  C   UNL     1       5.454   4.317  19.292  0.00  0.00    +0.000 C 
BRANCH  19  20
ATOM     20  N   UNL     1       6.272   4.290  18.093  0.00  0.00    +0.000 N 
ATOM     21  N   UNL     1       7.548   4.740  18.124  0.00  0.00    +0.000 NA
ATOM     22  N   UNL     1       7.909   4.775  16.886  0.00  0.00    +0.000 NA
ATOM     23  C   UNL     1       6.806   4.432  16.112  0.00  0.00    +0.000 A 
ATOM     24  N   UNL     1       5.729   4.187  16.882  0.00  0.00    +0.000 NA
BRANCH  23  25
ATOM     25  C   UNL     1       6.834   4.375  14.642  0.00  0.00    +0.000 A 
ATOM     26  C   UNL     1       5.922   3.538  13.965  0.00  0.00    +0.000 A 
ATOM     27  C   UNL     1       5.914   3.495  12.576  0.00  0.00    +0.000 A 
ATOM     28  C   UNL     1       6.810   4.277  11.840  0.00  0.00    +0.000 A 
ATOM     29  C   UNL     1       7.723   5.099  12.515  0.00  0.00    +0.000 A 
ATOM     30  C   UNL     1       7.729   5.144  13.903  0.00  0.00    +0.000 A 
ENDBRANCH  23  25
ENDBRANCH  19  20
ENDBRANCH   2  19
TORSDOF 4
ENDMDL
MODEL 7
REMARK VINA RESULT:      -8.5      3.412      5.809
REMARK  Name = 
REMARK  4 active torsions:
REMARK  status: ('A' for Active; 'I' for Inactive)
REMARK    1  A    between atoms: C_2  and  C_3
REMARK    2  A    between atoms: C_3  and  N_4
REMARK    3  A    between atoms: C_7  and  C_8
REMARK    4  A    between atoms: C_19  and  C_20
REMARK                            x       y       z     vdW  Elec       q    Type
REMARK                         _______ _______ _______ _____ _____    ______ ____
ROOT
ATOM      1  O   UNL     1       4.291   7.629  16.702  0.00  0.00    +0.000 OA
ATOM      2  C   UNL     1       4.898   6.648  17.171  0.00  0.00    +0.000 C 
ATOM      3  N   UNL     1       4.254   5.803  18.079  0.00  0.00    +0.000 N 
ATOM      4  C   UNL     1       4.775   4.533  18.560  0.00  0.00    +0.000 C 
ATOM      5  C   UNL     1       3.629   3.567  18.330  0.00  0.00    +0.000 C 
ATOM      6  C   UNL     1       2.412   4.415  18.680  0.00  0.00    +0.000 C 
ATOM      7  C   UNL     1       2.786   5.830  18.180  0.00  0.00    +0.000 C 
ENDROOT
BRANCH   7   8
ATOM      8  C   UNL     1       2.155   6.927  19.007  0.00  0.00    +0.000 A 
ATOM      9  C   UNL     1       1.846   6.828  20.357  0.00  0.00    +0.000 A 
ATOM     10  C   UNL     1       1.322   7.935  21.062  0.00  0.00    +0.000 A 
ATOM     11  C   UNL     1       1.070   9.167  20.455  0.00  0.00    +0.000 A 
ATOM     12  C   UNL     1       1.303   9.237  19.107  0.00  0.00    +0.000 A 
ATOM     13  C   UNL     1       1.854   8.143  18.397  0.00  0.00    +0.000 A 
ATOM     14  O   UNL     1       1.048  10.235  18.274  0.00  0.00    +0.000 OA
ATOM     15  C   UNL     1       0.731  11.504  18.730  0.00  0.00    +0.000 C 
ATOM     16  C   UNL     1       0.609  12.253  20.016  0.00  0.00    +0.000 C 
ATOM     17  C   UNL     1       0.404  11.450  21.248  0.00  0.00    +0.000 C 
ATOM     18  O   UNL     1       0.493  10.045  21.297  0.00  0.00    +0.000 OA
ENDBRANCH   7   8
BRANCH   2  19
ATOM     19  C   UNL     1       6.304   6.289  16.740  0.00  0.00    +0.000 C 
BRANCH  19  20
ATOM     20  N   UNL     1       7.309   7.077  17.430  0.00  0.00    +0.000 N 
ATOM     21  N   UNL     1       7.930   6.585  18.527  0.00  0.00    +0.000 NA
ATOM     22  N   UNL     1       8.585   7.588  19.006  0.00  0.00    +0.000 NA
ATOM     23  C   UNL     1       8.273   8.704  18.237  0.00  0.00    +0.000 A 
ATOM     24  N   UNL     1       7.396   8.395  17.263  0.00  0.00    +0.000 NA
BRANCH  23  25
ATOM     25  C   UNL     1       8.826  10.044  18.492  0.00  0.00    +0.000 A 
ATOM     26  C   UNL     1       9.611  10.260  19.644  0.00  0.00    +0.000 A 
ATOM     27  C   UNL     1      10.166  11.511  19.885  0.00  0.00    +0.000 A 
ATOM     28  C   UNL     1       9.947  12.565  18.991  0.00  0.00    +0.000 A 
ATOM     29  C   UNL     1       9.158  12.351  17.853  0.00  0.00    +0.000 A 
ATOM     30  C   UNL     1       8.605  11.099  17.611  0.00  0.00    +0.000 A 
ENDBRANCH  23  25
ENDBRANCH  19  20
ENDBRANCH   2  19
TORSDOF 4
ENDMDL
MODEL 8
REMARK VINA RESULT:      -8.5      2.959      9.384
REMARK  Name = 
REMARK  4 active torsions:
REMARK  status: ('A' for Active; 'I' for Inactive)
REMARK    1  A    between atoms: C_2  and  C_3
REMARK    2  A    between atoms: C_3  and  N_4
REMARK    3  A    between atoms: C_7  and  C_8
REMARK    4  A    between atoms: C_19  and  C_20
REMARK                            x       y       z     vdW  Elec       q    Type
REMARK                         _______ _______ _______ _____ _____    ______ ____
ROOT
ATOM      1  O   UNL     1       4.578   5.403  19.889  0.00  0.00    +0.000 OA
ATOM      2  C   UNL     1       3.399   5.057  19.690  0.00  0.00    +0.000 C 
ATOM      3  N   UNL     1       3.105   4.152  18.666  0.00  0.00    +0.000 N 
ATOM      4  C   UNL     1       1.809   3.529  18.441  0.00  0.00    +0.000 C 
ATOM      5  C   UNL     1       2.138   2.052  18.338  0.00  0.00    +0.000 C 
ATOM      6  C   UNL     1       3.457   2.064  17.574  0.00  0.00    +0.000 C 
ATOM      7  C   UNL     1       4.181   3.326  18.096  0.00  0.00    +0.000 C 
ENDROOT
BRANCH   7   8
ATOM      8  C   UNL     1       5.080   3.956  17.057  0.00  0.00    +0.000 A 
ATOM      9  C   UNL     1       6.099   4.860  17.328  0.00  0.00    +0.000 A 
ATOM     10  C   UNL     1       6.933   5.340  16.294  0.00  0.00    +0.000 A 
ATOM     11  C   UNL     1       6.779   4.959  14.959  0.00  0.00    +0.000 A 
ATOM     12  C   UNL     1       5.725   4.128  14.685  0.00  0.00    +0.000 A 
ATOM     13  C   UNL     1       4.900   3.619  15.717  0.00  0.00    +0.000 A 
ATOM     14  O   UNL     1       5.288   3.707  13.508  0.00  0.00    +0.000 OA
ATOM     15  C   UNL     1       6.040   3.855  12.353  0.00  0.00    +0.000 C 
ATOM     16  C   UNL     1       7.382   4.351  11.927  0.00  0.00    +0.000 C 
ATOM     17  C   UNL     1       8.074   5.295  12.840  0.00  0.00    +0.000 C 
ATOM     18  O   UNL     1       7.628   5.606  14.139  0.00  0.00    +0.000 OA
ENDBRANCH   7   8
BRANCH   2  19
ATOM     19  C   UNL     1       2.260   5.531  20.568  0.00  0.00    +0.000 C 
BRANCH  19  20
ATOM     20  N   UNL     1       1.779   6.846  20.183  0.00  0.00    +0.000 N 
ATOM     21  N   UNL     1       2.324   7.491  19.126  0.00  0.00    +0.000 NA
ATOM     22  N   UNL     1       1.835   8.684  19.187  0.00  0.00    +0.000 NA
ATOM     23  C   UNL     1       1.067   8.769  20.344  0.00  0.00    +0.000 A 
ATOM     24  N   UNL     1       1.086   7.608  21.026  0.00  0.00    +0.000 NA
BRANCH  23  25
ATOM     25  C   UNL     1       0.357   9.989  20.757  0.00  0.00    +0.000 A 
ATOM     26  C   UNL     1      -0.032  10.928  19.779  0.00  0.00    +0.000 A 
ATOM     27  C   UNL     1      -0.730  12.072  20.149  0.00  0.00    +0.000 A 
ATOM     28  C   UNL     1      -1.048  12.302  21.491  0.00  0.00    +0.000 A 
ATOM     29  C   UNL     1      -0.651  11.373  22.463  0.00  0.00    +0.000 A 
ATOM     30  C   UNL     1       0.044  10.229  22.093  0.00  0.00    +0.000 A 
ENDBRANCH  23  25
ENDBRANCH  19  20
ENDBRANCH   2  19
TORSDOF 4
ENDMDL
MODEL 9
REMARK VINA RESULT:      -8.3      1.216      1.577
REMARK  Name = 
REMARK  4 active torsions:
REMARK  status: ('A' for Active; 'I' for Inactive)
REMARK    1  A    between atoms: C_2  and  C_3
REMARK    2  A    between atoms: C_3  and  N_4
REMARK    3  A    between atoms: C_7  and  C_8
REMARK    4  A    between atoms: C_19  and  C_20
REMARK                            x       y       z     vdW  Elec       q    Type
REMARK                         _______ _______ _______ _____ _____    ______ ____
ROOT
ATOM      1  O   UNL     1       5.043   7.373  18.300  0.00  0.00    +0.000 OA
ATOM      2  C   UNL     1       4.819   6.225  18.726  0.00  0.00    +0.000 C 
ATOM      3  N   UNL     1       3.501   5.789  18.888  0.00  0.00    +0.000 N 
ATOM      4  C   UNL     1       3.100   4.426  19.200  0.00  0.00    +0.000 C 
ATOM      5  C   UNL     1       2.053   4.113  18.148  0.00  0.00    +0.000 C 
ATOM      6  C   UNL     1       1.308   5.437  18.025  0.00  0.00    +0.000 C 
ATOM      7  C   UNL     1       2.411   6.506  18.207  0.00  0.00    +0.000 C 
ENDROOT
BRANCH   7   8
ATOM      8  C   UNL     1       1.895   7.775  18.845  0.00  0.00    +0.000 A 
ATOM      9  C   UNL     1       1.722   8.985  18.185  0.00  0.00    +0.000 A 
ATOM     10  C   UNL     1       1.166  10.099  18.851  0.00  0.00    +0.000 A 
ATOM     11  C   UNL     1       0.777  10.062  20.193  0.00  0.00    +0.000 A 
ATOM     12  C   UNL     1       1.020   8.890  20.860  0.00  0.00    +0.000 A 
ATOM     13  C   UNL     1       1.552   7.760  20.196  0.00  0.00    +0.000 A 
ATOM     14  O   UNL     1       0.856   8.623  22.147  0.00  0.00    +0.000 OA
ATOM     15  C   UNL     1       0.134   9.462  22.982  0.00  0.00    +0.000 C 
ATOM     16  C   UNL     1      -0.677  10.713  22.911  0.00  0.00    +0.000 C 
ATOM     17  C   UNL     1      -0.443  11.604  21.746  0.00  0.00    +0.000 C 
ATOM     18  O   UNL     1       0.355  11.260  20.638  0.00  0.00    +0.000 OA
ENDBRANCH   7   8
BRANCH   2  19
ATOM     19  C   UNL     1       5.934   5.242  19.017  0.00  0.00    +0.000 C 
BRANCH  19  20
ATOM     20  N   UNL     1       6.548   4.733  17.804  0.00  0.00    +0.000 N 
ATOM     21  N   UNL     1       7.871   4.453  17.773  0.00  0.00    +0.000 NA
ATOM     22  N   UNL     1       8.127   4.233  16.527  0.00  0.00    +0.000 NA
ATOM     23  C   UNL     1       6.963   4.477  15.806  0.00  0.00    +0.000 A 
ATOM     24  N   UNL     1       5.961   4.868  16.616  0.00  0.00    +0.000 NA
BRANCH  23  25
ATOM     25  C   UNL     1       6.872   4.341  14.344  0.00  0.00    +0.000 A 
ATOM     26  C   UNL     1       7.711   5.125  13.523  0.00  0.00    +0.000 A 
ATOM     27  C   UNL     1       7.660   4.988  12.141  0.00  0.00    +0.000 A 
ATOM     28  C   UNL     1       6.776   4.077  11.554  0.00  0.00    +0.000 A 
ATOM     29  C   UNL     1       5.937   3.307  12.370  0.00  0.00    +0.000 A 
ATOM     30  C   UNL     1       5.989   3.442  13.752  0.00  0.00    +0.000 A 
ENDBRANCH  23  25
ENDBRANCH  19  20
ENDBRANCH   2  19
TORSDOF 4
ENDMDL
