MODEL 1
REMARK VINA RESULT:      -9.3      0.000      0.000
REMARK  Name = 
REMARK  8 active torsions:
REMARK  status: ('A' for Active; 'I' for Inactive)
REMARK    1  A    between atoms: C_1  and  C_2
REMARK    2  A    between atoms: C_2  and  N_3
REMARK    3  A    between atoms: N_3  and  C_4
REMARK    4  A    between atoms: C_4  and  C_5
REMARK    5  A    between atoms: N_7  and  C_8
REMARK    6  A    between atoms: C_18  and  C_20
REMARK    7  A    between atoms: N_28  and  C_29
REMARK    8  A    between atoms: C_29  and  C_30
REMARK                            x       y       z     vdW  Elec       q    Type
REMARK                         _______ _______ _______ _____ _____    ______ ____
ROOT
ATOM      1  N   UNL     1       6.467   5.295  17.377  0.00  0.00    +0.000 N 
ATOM      2  C   UNL     1       5.073   5.160  17.191  0.00  0.00    +0.000 C 
ATOM      3  O   UNL     1       4.596   4.360  16.384  0.00  0.00    +0.000 OA
ENDROOT
BRANCH   2   4
ATOM      4  C   UNL     1       4.074   5.942  17.982  0.00  0.00    +0.000 A 
ATOM      5  C   UNL     1       3.655   5.416  19.236  0.00  0.00    +0.000 A 
ATOM      6  C   UNL     1       2.733   6.092  20.056  0.00  0.00    +0.000 A 
ATOM      7  C   UNL     1       2.275   7.311  19.607  0.00  0.00    +0.000 A 
ATOM      8  C   UNL     1       2.674   7.817  18.388  0.00  0.00    +0.000 A 
ATOM      9  C   UNL     1       3.511   7.137  17.525  0.00  0.00    +0.000 A 
ATOM     10  C   UNL     1       2.120   9.160  18.252  0.00  0.00    +0.000 C 
ATOM     11  O   UNL     1       2.432   9.916  17.353  0.00  0.00    +0.000 OA
ATOM     12  N   UNL     1       1.335   9.359  19.347  0.00  0.00    +0.000 N 
ATOM     13  C   UNL     1       1.392   8.303  20.215  0.00  0.00    +0.000 C 
ATOM     14  O   UNL     1       0.864   8.183  21.307  0.00  0.00    +0.000 OA
BRANCH  12  15
ATOM     15  C   UNL     1       0.627  10.600  19.602  0.00  0.00    +0.000 C 
BRANCH  15  16
ATOM     16  C   UNL     1      -0.687  10.662  18.865  0.00  0.00    +0.000 A 
ATOM     17  C   UNL     1      -1.701  11.528  19.298  0.00  0.00    +0.000 A 
ATOM     18  C   UNL     1      -2.924  11.581  18.625  0.00  0.00    +0.000 A 
ATOM     19  C   UNL     1      -3.146  10.766  17.516  0.00  0.00    +0.000 A 
ATOM     20  C   UNL     1      -2.148   9.896  17.080  0.00  0.00    +0.000 A 
ATOM     21  C   UNL     1      -0.927   9.840  17.753  0.00  0.00    +0.000 A 
ENDBRANCH  15  16
ENDBRANCH  12  15
ENDBRANCH   2   4
BRANCH   1  23
ATOM     22  C   UNL     1       7.352   4.875  15.059  0.00  0.00    +0.000 C 
ATOM     23  C   UNL     1       7.302   4.444  16.517  0.00  0.00    +0.000 C 
ENDBRANCH   1  23
BRANCH   1  24
ATOM     24  C   UNL     1       7.122   6.266  18.285  0.00  0.00    +0.000 C 
BRANCH  24  25
ATOM     25  C   UNL     1       7.471   7.705  17.880  0.00  0.00    +0.000 C 
ATOM     26  O   UNL     1       7.151   8.214  16.807  0.00  0.00    +0.000 OA
ATOM     27  N   UNL     1       8.294   8.348  18.813  0.00  0.00    +0.000 N 
ATOM     28  H   UNL     1       8.858   7.747  19.405  0.00  0.00    +0.000 HD
BRANCH  27  29
ATOM     29  C   UNL     1       8.757   9.669  18.638  0.00  0.00    +0.000 A 
ATOM     30  C   UNL     1       8.104  10.563  17.782  0.00  0.00    +0.000 A 
ATOM     31  C   UNL     1       8.595  11.860  17.610  0.00  0.00    +0.000 A 
ATOM     32  C   UNL     1       9.760  12.251  18.266  0.00  0.00    +0.000 A 
ATOM     33  C   UNL     1      10.396  11.369  19.144  0.00  0.00    +0.000 A 
ATOM     34  C   UNL     1       9.881  10.087  19.349  0.00  0.00    +0.000 A 
ATOM     35  O   UNL     1      11.552  11.679  19.814  0.00  0.00    +0.000 OA
ATOM     36  C   UNL     1      11.827  13.084  19.773  0.00  0.00    +0.000 C 
ATOM     37  C   UNL     1      11.596  13.652  18.381  0.00  0.00    +0.000 C 
ATOM     38  O   UNL     1      10.223  13.514  18.001  0.00  0.00    +0.000 OA
ENDBRANCH  27  29
ENDBRANCH  24  25
ENDBRANCH   1  24
TORSDOF 7
ENDMDL
MODEL 2
REMARK VINA RESULT:      -9.2      1.549      2.455
REMARK  Name = 
REMARK  8 active torsions:
REMARK  status: ('A' for Active; 'I' for Inactive)
REMARK    1  A    between atoms: C_1  and  C_2
REMARK    2  A    between atoms: C_2  and  N_3
REMARK    3  A    between atoms: N_3  and  C_4
REMARK    4  A    between atoms: C_4  and  C_5
REMARK    5  A    between atoms: N_7  and  C_8
REMARK    6  A    between atoms: C_18  and  C_20
REMARK    7  A    between atoms: N_28  and  C_29
REMARK    8  A    between atoms: C_29  and  C_30
REMARK                            x       y       z     vdW  Elec       q    Type
REMARK                         _______ _______ _______ _____ _____    ______ ____
ROOT
ATOM      1  N   UNL     1       6.141   5.754  17.294  0.00  0.00    +0.000 N 
ATOM      2  C   UNL     1       4.935   5.228  17.808  0.00  0.00    +0.000 C 
ATOM      3  O   UNL     1       4.696   4.019  17.807  0.00  0.00    +0.000 OA
ENDROOT
BRANCH   2   4
ATOM      4  C   UNL     1       3.878   6.088  18.425  0.00  0.00    +0.000 A 
ATOM      5  C   UNL     1       3.401   5.734  19.718  0.00  0.00    +0.000 A 
ATOM      6  C   UNL     1       2.422   6.495  20.384  0.00  0.00    +0.000 A 
ATOM      7  C   UNL     1       1.965   7.624  19.741  0.00  0.00    +0.000 A 
ATOM      8  C   UNL     1       2.420   7.961  18.484  0.00  0.00    +0.000 A 
ATOM      9  C   UNL     1       3.317   7.189  17.772  0.00  0.00    +0.000 A 
ATOM     10  C   UNL     1       1.848   9.256  18.128  0.00  0.00    +0.000 C 
ATOM     11  O   UNL     1       2.194   9.884  17.146  0.00  0.00    +0.000 OA
ATOM     12  N   UNL     1       1.000   9.588  19.140  0.00  0.00    +0.000 N 
ATOM     13  C   UNL     1       1.030   8.668  20.153  0.00  0.00    +0.000 C 
ATOM     14  O   UNL     1       0.445   8.690  21.222  0.00  0.00    +0.000 OA
BRANCH  12  15
ATOM     15  C   UNL     1       0.254  10.831  19.177  0.00  0.00    +0.000 C 
BRANCH  15  16
ATOM     16  C   UNL     1       1.153  12.023  19.389  0.00  0.00    +0.000 A 
ATOM     17  C   UNL     1       1.617  12.340  20.673  0.00  0.00    +0.000 A 
ATOM     18  C   UNL     1       2.441  13.450  20.876  0.00  0.00    +0.000 A 
ATOM     19  C   UNL     1       2.805  14.255  19.798  0.00  0.00    +0.000 A 
ATOM     20  C   UNL     1       2.345  13.954  18.518  0.00  0.00    +0.000 A 
ATOM     21  C   UNL     1       1.519  12.847  18.314  0.00  0.00    +0.000 A 
ENDBRANCH  15  16
ENDBRANCH  12  15
ENDBRANCH   2   4
BRANCH   1  23
ATOM     22  C   UNL     1       6.969   4.594  15.221  0.00  0.00    +0.000 C 
ATOM     23  C   UNL     1       7.069   4.764  16.730  0.00  0.00    +0.000 C 
ENDBRANCH   1  23
BRANCH   1  24
ATOM     24  C   UNL     1       6.484   7.193  17.210  0.00  0.00    +0.000 C 
BRANCH  24  25
ATOM     25  C   UNL     1       7.669   7.828  17.950  0.00  0.00    +0.000 C 
ATOM     26  O   UNL     1       8.416   7.211  18.708  0.00  0.00    +0.000 OA
ATOM     27  N   UNL     1       7.749   9.213  17.761  0.00  0.00    +0.000 N 
ATOM     28  H   UNL     1       6.885   9.684  17.517  0.00  0.00    +0.000 HD
BRANCH  27  29
ATOM     29  C   UNL     1       8.747  10.008  18.363  0.00  0.00    +0.000 A 
ATOM     30  C   UNL     1       8.950   9.997  19.749  0.00  0.00    +0.000 A 
ATOM     31  C   UNL     1       9.932  10.809  20.322  0.00  0.00    +0.000 A 
ATOM     32  C   UNL     1      10.686  11.659  19.517  0.00  0.00    +0.000 A 
ATOM     33  C   UNL     1      10.503  11.649  18.131  0.00  0.00    +0.000 A 
ATOM     34  C   UNL     1       9.552  10.806  17.552  0.00  0.00    +0.000 A 
ATOM     35  O   UNL     1      11.199  12.465  17.276  0.00  0.00    +0.000 OA
ATOM     36  C   UNL     1      12.333  13.060  17.916  0.00  0.00    +0.000 C 
ATOM     37  C   UNL     1      11.982  13.562  19.308  0.00  0.00    +0.000 C 
ATOM     38  O   UNL     1      11.584  12.476  20.152  0.00  0.00    +0.000 OA
ENDBRANCH  27  29
ENDBRANCH  24  25
ENDBRANCH   1  24
TORSDOF 7
ENDMDL
MODEL 3
REMARK VINA RESULT:      -9.1      0.988      1.425
REMARK  Name = 
REMARK  8 active torsions:
REMARK  status: ('A' for Active; 'I' for Inactive)
REMARK    1  A    between atoms: C_1  and  C_2
REMARK    2  A    between atoms: C_2  and  N_3
REMARK    3  A    between atoms: N_3  and  C_4
REMARK    4  A    between atoms: C_4  and  C_5
REMARK    5  A    between atoms: N_7  and  C_8
REMARK    6  A    between atoms: C_18  and  C_20
REMARK    7  A    between atoms: N_28  and  C_29
REMARK    8  A    between atoms: C_29  and  C_30
REMARK                            x       y       z     vdW  Elec       q    Type
REMARK                         _______ _______ _______ _____ _____    ______ ____
ROOT
ATOM      1  N   UNL     1       5.917   5.979  17.140  0.00  0.00    +0.000 N 
ATOM      2  C   UNL     1       4.688   5.490  17.635  0.00  0.00    +0.000 C 
ATOM      3  O   UNL     1       4.400   4.292  17.602  0.00  0.00    +0.000 OA
ENDROOT
BRANCH   2   4
ATOM      4  C   UNL     1       3.664   6.375  18.270  0.00  0.00    +0.000 A 
ATOM      5  C   UNL     1       3.082   5.950  19.497  0.00  0.00    +0.000 A 
ATOM      6  C   UNL     1       2.125   6.727  20.175  0.00  0.00    +0.000 A 
ATOM      7  C   UNL     1       1.797   7.942  19.616  0.00  0.00    +0.000 A 
ATOM      8  C   UNL     1       2.354   8.350  18.422  0.00  0.00    +0.000 A 
ATOM      9  C   UNL     1       3.231   7.573  17.692  0.00  0.00    +0.000 A 
ATOM     10  C   UNL     1       1.907   9.714  18.157  0.00  0.00    +0.000 C 
ATOM     11  O   UNL     1       2.361  10.396  17.258  0.00  0.00    +0.000 OA
ATOM     12  N   UNL     1       1.025  10.024  19.147  0.00  0.00    +0.000 N 
ATOM     13  C   UNL     1       0.921   9.019  20.071  0.00  0.00    +0.000 C 
ATOM     14  O   UNL     1       0.274   8.995  21.103  0.00  0.00    +0.000 OA
BRANCH  12  15
ATOM     15  C   UNL     1       0.377  11.317  19.258  0.00  0.00    +0.000 C 
BRANCH  15  16
ATOM     16  C   UNL     1      -1.064  11.267  18.814  0.00  0.00    +0.000 A 
ATOM     17  C   UNL     1      -2.058  11.908  19.565  0.00  0.00    +0.000 A 
ATOM     18  C   UNL     1      -3.395  11.854  19.164  0.00  0.00    +0.000 A 
ATOM     19  C   UNL     1      -3.751  11.156  18.010  0.00  0.00    +0.000 A 
ATOM     20  C   UNL     1      -2.771  10.510  17.259  0.00  0.00    +0.000 A 
ATOM     21  C   UNL     1      -1.435  10.559  17.661  0.00  0.00    +0.000 A 
ENDBRANCH  15  16
ENDBRANCH  12  15
ENDBRANCH   2   4
BRANCH   1  23
ATOM     22  C   UNL     1       7.866   4.430  17.505  0.00  0.00    +0.000 C 
ATOM     23  C   UNL     1       6.807   4.966  16.553  0.00  0.00    +0.000 C 
ENDBRANCH   1  23
BRANCH   1  24
ATOM     24  C   UNL     1       6.319   7.404  17.094  0.00  0.00    +0.000 C 
BRANCH  24  25
ATOM     25  C   UNL     1       7.532   7.968  17.846  0.00  0.00    +0.000 C 
ATOM     26  O   UNL     1       8.252   7.301  18.588  0.00  0.00    +0.000 OA
ATOM     27  N   UNL     1       7.673   9.353  17.690  0.00  0.00    +0.000 N 
ATOM     28  H   UNL     1       6.830   9.867  17.459  0.00  0.00    +0.000 HD
BRANCH  27  29
ATOM     29  C   UNL     1       8.706  10.088  18.309  0.00  0.00    +0.000 A 
ATOM     30  C   UNL     1       8.956   9.980  19.682  0.00  0.00    +0.000 A 
ATOM     31  C   UNL     1       9.972  10.735  20.274  0.00  0.00    +0.000 A 
ATOM     32  C   UNL     1      10.713  11.625  19.501  0.00  0.00    +0.000 A 
ATOM     33  C   UNL     1      10.484  11.712  18.125  0.00  0.00    +0.000 A 
ATOM     34  C   UNL     1       9.497  10.926  17.525  0.00  0.00    +0.000 A 
ATOM     35  O   UNL     1      11.165  12.573  17.302  0.00  0.00    +0.000 OA
ATOM     36  C   UNL     1      12.331  13.104  17.941  0.00  0.00    +0.000 C 
ATOM     37  C   UNL     1      12.038  13.516  19.375  0.00  0.00    +0.000 C 
ATOM     38  O   UNL     1      11.648  12.383  20.157  0.00  0.00    +0.000 OA
ENDBRANCH  27  29
ENDBRANCH  24  25
ENDBRANCH   1  24
TORSDOF 7
ENDMDL
MODEL 4
REMARK VINA RESULT:      -9.1      0.712      1.096
REMARK  Name = 
REMARK  8 active torsions:
REMARK  status: ('A' for Active; 'I' for Inactive)
REMARK    1  A    between atoms: C_1  and  C_2
REMARK    2  A    between atoms: C_2  and  N_3
REMARK    3  A    between atoms: N_3  and  C_4
REMARK    4  A    between atoms: C_4  and  C_5
REMARK    5  A    between atoms: N_7  and  C_8
REMARK    6  A    between atoms: C_18  and  C_20
REMARK    7  A    between atoms: N_28  and  C_29
REMARK    8  A    between atoms: C_29  and  C_30
REMARK                            x       y       z     vdW  Elec       q    Type
REMARK                         _______ _______ _______ _____ _____    ______ ____
ROOT
ATOM      1  N   UNL     1       6.566   5.389  17.185  0.00  0.00    +0.000 N 
ATOM      2  C   UNL     1       5.177   5.310  16.942  0.00  0.00    +0.000 C 
ATOM      3  O   UNL     1       4.710   4.612  16.041  0.00  0.00    +0.000 OA
ENDROOT
BRANCH   2   4
ATOM      4  C   UNL     1       4.170   6.030  17.780  0.00  0.00    +0.000 A 
ATOM      5  C   UNL     1       3.773   5.432  19.009  0.00  0.00    +0.000 A 
ATOM      6  C   UNL     1       2.846   6.047  19.870  0.00  0.00    +0.000 A 
ATOM      7  C   UNL     1       2.359   7.277  19.488  0.00  0.00    +0.000 A 
ATOM      8  C   UNL     1       2.735   7.852  18.293  0.00  0.00    +0.000 A 
ATOM      9  C   UNL     1       3.578   7.235  17.390  0.00  0.00    +0.000 A 
ATOM     10  C   UNL     1       2.153   9.189  18.231  0.00  0.00    +0.000 C 
ATOM     11  O   UNL     1       2.441   9.996  17.368  0.00  0.00    +0.000 OA
ATOM     12  N   UNL     1       1.374   9.316  19.340  0.00  0.00    +0.000 N 
ATOM     13  C   UNL     1       1.461   8.218  20.154  0.00  0.00    +0.000 C 
ATOM     14  O   UNL     1       0.945   8.032  21.241  0.00  0.00    +0.000 OA
BRANCH  12  15
ATOM     15  C   UNL     1       0.643  10.526  19.664  0.00  0.00    +0.000 C 
BRANCH  15  16
ATOM     16  C   UNL     1      -0.662  10.616  18.915  0.00  0.00    +0.000 A 
ATOM     17  C   UNL     1      -0.886   9.815  17.787  0.00  0.00    +0.000 A 
ATOM     18  C   UNL     1      -2.089   9.903  17.082  0.00  0.00    +0.000 A 
ATOM     19  C   UNL     1      -3.077  10.795  17.497  0.00  0.00    +0.000 A 
ATOM     20  C   UNL     1      -2.863  11.601  18.613  0.00  0.00    +0.000 A 
ATOM     21  C   UNL     1      -1.660  11.517  19.316  0.00  0.00    +0.000 A 
ENDBRANCH  15  16
ENDBRANCH  12  15
ENDBRANCH   2   4
BRANCH   1  23
ATOM     22  C   UNL     1       7.294   5.018  14.805  0.00  0.00    +0.000 C 
ATOM     23  C   UNL     1       7.411   4.611  16.266  0.00  0.00    +0.000 C 
ENDBRANCH   1  23
BRANCH   1  24
ATOM     24  C   UNL     1       7.213   6.241  18.210  0.00  0.00    +0.000 C 
BRANCH  24  25
ATOM     25  C   UNL     1       7.527   7.729  18.002  0.00  0.00    +0.000 C 
ATOM     26  O   UNL     1       7.074   8.405  17.079  0.00  0.00    +0.000 OA
ATOM     27  N   UNL     1       8.476   8.216  18.910  0.00  0.00    +0.000 N 
ATOM     28  H   UNL     1       9.104   7.531  19.315  0.00  0.00    +0.000 HD
BRANCH  27  29
ATOM     29  C   UNL     1       8.932   9.551  18.892  0.00  0.00    +0.000 A 
ATOM     30  C   UNL     1       9.166  10.225  17.687  0.00  0.00    +0.000 A 
ATOM     31  C   UNL     1       9.637  11.540  17.697  0.00  0.00    +0.000 A 
ATOM     32  C   UNL     1       9.911  12.169  18.910  0.00  0.00    +0.000 A 
ATOM     33  C   UNL     1       9.650  11.507  20.112  0.00  0.00    +0.000 A 
ATOM     34  C   UNL     1       9.138  10.208  20.104  0.00  0.00    +0.000 A 
ATOM     35  O   UNL     1       9.906  12.057  21.343  0.00  0.00    +0.000 OA
ATOM     36  C   UNL     1      10.139  13.466  21.256  0.00  0.00    +0.000 C 
ATOM     37  C   UNL     1      11.048  13.805  20.084  0.00  0.00    +0.000 C 
ATOM     38  O   UNL     1      10.434  13.434  18.845  0.00  0.00    +0.000 OA
ENDBRANCH  27  29
ENDBRANCH  24  25
ENDBRANCH   1  24
TORSDOF 7
ENDMDL
MODEL 5
REMARK VINA RESULT:      -8.9      3.165      7.247
REMARK  Name = 
REMARK  8 active torsions:
REMARK  status: ('A' for Active; 'I' for Inactive)
REMARK    1  A    between atoms: C_1  and  C_2
REMARK    2  A    between atoms: C_2  and  N_3
REMARK    3  A    between atoms: N_3  and  C_4
REMARK    4  A    between atoms: C_4  and  C_5
REMARK    5  A    between atoms: N_7  and  C_8
REMARK    6  A    between atoms: C_18  and  C_20
REMARK    7  A    between atoms: N_28  and  C_29
REMARK    8  A    between atoms: C_29  and  C_30
REMARK                            x       y       z     vdW  Elec       q    Type
REMARK                         _______ _______ _______ _____ _____    ______ ____
ROOT
ATOM      1  N   UNL     1       0.047  12.974  19.388  0.00  0.00    +0.000 N 
ATOM      2  C   UNL     1      -0.383  11.868  20.155  0.00  0.00    +0.000 C 
ATOM      3  O   UNL     1      -1.389  11.917  20.864  0.00  0.00    +0.000 OA
ENDROOT
BRANCH   2   4
ATOM      4  C   UNL     1       0.322  10.550  20.134  0.00  0.00    +0.000 A 
ATOM      5  C   UNL     1       0.151   9.684  21.251  0.00  0.00    +0.000 A 
ATOM      6  C   UNL     1       0.760   8.417  21.309  0.00  0.00    +0.000 A 
ATOM      7  C   UNL     1       1.506   8.032  20.218  0.00  0.00    +0.000 A 
ATOM      8  C   UNL     1       1.680   8.874  19.140  0.00  0.00    +0.000 A 
ATOM      9  C   UNL     1       1.164  10.154  19.091  0.00  0.00    +0.000 A 
ATOM     10  C   UNL     1       2.407   8.144  18.107  0.00  0.00    +0.000 C 
ATOM     11  O   UNL     1       2.567   8.574  16.981  0.00  0.00    +0.000 OA
ATOM     12  N   UNL     1       2.725   6.936  18.649  0.00  0.00    +0.000 N 
ATOM     13  C   UNL     1       2.203   6.786  19.906  0.00  0.00    +0.000 C 
ATOM     14  O   UNL     1       2.247   5.815  20.640  0.00  0.00    +0.000 OA
BRANCH  12  15
ATOM     15  C   UNL     1       3.429   5.898  17.920  0.00  0.00    +0.000 C 
BRANCH  15  16
ATOM     16  C   UNL     1       4.925   6.010  18.080  0.00  0.00    +0.000 A 
ATOM     17  C   UNL     1       5.572   5.369  19.144  0.00  0.00    +0.000 A 
ATOM     18  C   UNL     1       6.956   5.480  19.303  0.00  0.00    +0.000 A 
ATOM     19  C   UNL     1       7.704   6.236  18.401  0.00  0.00    +0.000 A 
ATOM     20  C   UNL     1       7.069   6.883  17.343  0.00  0.00    +0.000 A 
ATOM     21  C   UNL     1       5.687   6.776  17.185  0.00  0.00    +0.000 A 
ENDBRANCH  15  16
ENDBRANCH  12  15
ENDBRANCH   2   4
BRANCH   1  23
ATOM     22  C   UNL     1      -0.284  15.156  20.597  0.00  0.00    +0.000 C 
ATOM     23  C   UNL     1      -0.768  14.191  19.525  0.00  0.00    +0.000 C 
ENDBRANCH   1  23
BRANCH   1  24
ATOM     24  C   UNL     1       1.270  13.017  18.552  0.00  0.00    +0.000 C 
BRANCH  24  25
ATOM     25  C   UNL     1       2.592  13.644  19.014  0.00  0.00    +0.000 C 
ATOM     26  O   UNL     1       2.996  13.619  20.176  0.00  0.00    +0.000 OA
ATOM     27  N   UNL     1       3.245  14.349  17.995  0.00  0.00    +0.000 N 
ATOM     28  H   UNL     1       2.661  14.692  17.240  0.00  0.00    +0.000 HD
BRANCH  27  29
ATOM     29  C   UNL     1       4.467  15.024  18.198  0.00  0.00    +0.000 A 
ATOM     30  C   UNL     1       4.503  16.337  18.682  0.00  0.00    +0.000 A 
ATOM     31  C   UNL     1       5.726  16.990  18.855  0.00  0.00    +0.000 A 
ATOM     32  C   UNL     1       6.911  16.345  18.509  0.00  0.00    +0.000 A 
ATOM     33  C   UNL     1       6.877  15.024  18.053  0.00  0.00    +0.000 A 
ATOM     34  C   UNL     1       5.659  14.356  17.921  0.00  0.00    +0.000 A 
ATOM     35  O   UNL     1       8.001  14.329  17.682  0.00  0.00    +0.000 OA
ATOM     36  C   UNL     1       9.197  14.978  18.128  0.00  0.00    +0.000 C 
ATOM     37  C   UNL     1       9.134  16.479  17.887  0.00  0.00    +0.000 C 
ATOM     38  O   UNL     1       8.068  17.067  18.640  0.00  0.00    +0.000 OA
ENDBRANCH  27  29
ENDBRANCH  24  25
ENDBRANCH   1  24
TORSDOF 7
ENDMDL
MODEL 6
REMARK VINA RESULT:      -8.7      4.129      8.185
REMARK  Name = 
REMARK  8 active torsions:
REMARK  status: ('A' for Active; 'I' for Inactive)
REMARK    1  A    between atoms: C_1  and  C_2
REMARK    2  A    between atoms: C_2  and  N_3
REMARK    3  A    between atoms: N_3  and  C_4
REMARK    4  A    between atoms: C_4  and  C_5
REMARK    5  A    between atoms: N_7  and  C_8
REMARK    6  A    between atoms: C_18  and  C_20
REMARK    7  A    between atoms: N_28  and  C_29
REMARK    8  A    between atoms: C_29  and  C_30
REMARK                            x       y       z     vdW  Elec       q    Type
REMARK                         _______ _______ _______ _____ _____    ______ ____
ROOT
ATOM      1  N   UNL     1      -1.807  13.346  21.614  0.00  0.00    +0.000 N 
ATOM      2  C   UNL     1      -2.152  12.475  20.557  0.00  0.00    +0.000 C 
ATOM      3  O   UNL     1      -3.272  12.482  20.044  0.00  0.00    +0.000 OA
ENDROOT
BRANCH   2   4
ATOM      4  C   UNL     1      -1.180  11.510  19.957  0.00  0.00    +0.000 A 
ATOM      5  C   UNL     1      -0.742  11.745  18.624  0.00  0.00    +0.000 A 
ATOM      6  C   UNL     1       0.185  10.901  17.985  0.00  0.00    +0.000 A 
ATOM      7  C   UNL     1       0.681   9.849  18.721  0.00  0.00    +0.000 A 
ATOM      8  C   UNL     1       0.250   9.615  20.010  0.00  0.00    +0.000 A 
ATOM      9  C   UNL     1      -0.719  10.376  20.633  0.00  0.00    +0.000 A 
ATOM     10  C   UNL     1       1.040   8.517  20.559  0.00  0.00    +0.000 C 
ATOM     11  O   UNL     1       0.996   8.192  21.730  0.00  0.00    +0.000 OA
ATOM     12  N   UNL     1       1.835   8.077  19.545  0.00  0.00    +0.000 N 
ATOM     13  C   UNL     1       1.691   8.838  18.416  0.00  0.00    +0.000 C 
ATOM     14  O   UNL     1       2.291   8.756  17.359  0.00  0.00    +0.000 OA
BRANCH  12  15
ATOM     15  C   UNL     1       2.800   7.005  19.700  0.00  0.00    +0.000 C 
BRANCH  15  16
ATOM     16  C   UNL     1       2.193   5.653  19.422  0.00  0.00    +0.000 A 
ATOM     17  C   UNL     1       1.637   4.900  20.464  0.00  0.00    +0.000 A 
ATOM     18  C   UNL     1       1.084   3.642  20.214  0.00  0.00    +0.000 A 
ATOM     19  C   UNL     1       1.085   3.124  18.920  0.00  0.00    +0.000 A 
ATOM     20  C   UNL     1       1.641   3.861  17.876  0.00  0.00    +0.000 A 
ATOM     21  C   UNL     1       2.197   5.117  18.125  0.00  0.00    +0.000 A 
ENDBRANCH  15  16
ENDBRANCH  12  15
ENDBRANCH   2   4
BRANCH   1  23
ATOM     22  C   UNL     1      -3.542  13.799  23.379  0.00  0.00    +0.000 C 
ATOM     23  C   UNL     1      -2.885  14.232  22.077  0.00  0.00    +0.000 C 
ENDBRANCH   1  23
BRANCH   1  24
ATOM     24  C   UNL     1      -0.504  13.367  22.320  0.00  0.00    +0.000 C 
BRANCH  24  25
ATOM     25  C   UNL     1       0.626  14.350  21.986  0.00  0.00    +0.000 C 
ATOM     26  O   UNL     1       0.945  15.300  22.699  0.00  0.00    +0.000 OA
ATOM     27  N   UNL     1       1.189  14.121  20.724  0.00  0.00    +0.000 N 
ATOM     28  H   UNL     1       0.601  13.645  20.048  0.00  0.00    +0.000 HD
BRANCH  27  29
ATOM     29  C   UNL     1       2.230  14.916  20.198  0.00  0.00    +0.000 A 
ATOM     30  C   UNL     1       1.964  15.998  19.350  0.00  0.00    +0.000 A 
ATOM     31  C   UNL     1       3.015  16.756  18.827  0.00  0.00    +0.000 A 
ATOM     32  C   UNL     1       4.331  16.412  19.122  0.00  0.00    +0.000 A 
ATOM     33  C   UNL     1       4.596  15.350  19.991  0.00  0.00    +0.000 A 
ATOM     34  C   UNL     1       3.546  14.618  20.549  0.00  0.00    +0.000 A 
ATOM     35  O   UNL     1       5.866  14.945  20.318  0.00  0.00    +0.000 OA
ATOM     36  C   UNL     1       6.845  15.921  19.946  0.00  0.00    +0.000 C 
ATOM     37  C   UNL     1       6.573  16.477  18.556  0.00  0.00    +0.000 C 
ATOM     38  O   UNL     1       5.314  17.156  18.521  0.00  0.00    +0.000 OA
ENDBRANCH  27  29
ENDBRANCH  24  25
ENDBRANCH   1  24
TORSDOF 7
ENDMDL
MODEL 7
REMARK VINA RESULT:      -8.6      4.494      6.261
REMARK  Name = 
REMARK  8 active torsions:
REMARK  status: ('A' for Active; 'I' for Inactive)
REMARK    1  A    between atoms: C_1  and  C_2
REMARK    2  A    between atoms: C_2  and  N_3
REMARK    3  A    between atoms: N_3  and  C_4
REMARK    4  A    between atoms: C_4  and  C_5
REMARK    5  A    between atoms: N_7  and  C_8
REMARK    6  A    between atoms: C_18  and  C_20
REMARK    7  A    between atoms: N_28  and  C_29
REMARK    8  A    between atoms: C_29  and  C_30
REMARK                            x       y       z     vdW  Elec       q    Type
REMARK                         _______ _______ _______ _____ _____    ______ ____
ROOT
ATOM      1  N   UNL     1       3.133   4.565  20.120  0.00  0.00    +0.000 N 
ATOM      2  C   UNL     1       1.878   5.211  20.159  0.00  0.00    +0.000 C 
ATOM      3  O   UNL     1       0.832   4.595  20.372  0.00  0.00    +0.000 OA
ENDROOT
BRANCH   2   4
ATOM      4  C   UNL     1       1.725   6.689  19.986  0.00  0.00    +0.000 A 
ATOM      5  C   UNL     1       1.891   7.228  18.679  0.00  0.00    +0.000 A 
ATOM      6  C   UNL     1       1.747   8.604  18.419  0.00  0.00    +0.000 A 
ATOM      7  C   UNL     1       1.402   9.408  19.482  0.00  0.00    +0.000 A 
ATOM      8  C   UNL     1       1.250   8.886  20.750  0.00  0.00    +0.000 A 
ATOM      9  C   UNL     1       1.467   7.556  21.051  0.00  0.00    +0.000 A 
ATOM     10  C   UNL     1       0.771   9.953  21.624  0.00  0.00    +0.000 C 
ATOM     11  O   UNL     1       0.393   9.755  22.762  0.00  0.00    +0.000 OA
ATOM     12  N   UNL     1       0.754  11.085  20.867  0.00  0.00    +0.000 N 
ATOM     13  C   UNL     1       1.101  10.835  19.566  0.00  0.00    +0.000 C 
ATOM     14  O   UNL     1       1.129  11.605  18.623  0.00  0.00    +0.000 OA
BRANCH  12  15
ATOM     15  C   UNL     1       0.302  12.369  21.368  0.00  0.00    +0.000 C 
BRANCH  15  16
ATOM     16  C   UNL     1      -1.202  12.460  21.413  0.00  0.00    +0.000 A 
ATOM     17  C   UNL     1      -1.939  12.587  20.228  0.00  0.00    +0.000 A 
ATOM     18  C   UNL     1      -3.332  12.683  20.265  0.00  0.00    +0.000 A 
ATOM     19  C   UNL     1      -4.001  12.658  21.488  0.00  0.00    +0.000 A 
ATOM     20  C   UNL     1      -3.278  12.539  22.674  0.00  0.00    +0.000 A 
ATOM     21  C   UNL     1      -1.886  12.446  22.638  0.00  0.00    +0.000 A 
ENDBRANCH  15  16
ENDBRANCH  12  15
ENDBRANCH   2   4
BRANCH   1  23
ATOM     22  C   UNL     1       2.898   2.306  19.039  0.00  0.00    +0.000 C 
ATOM     23  C   UNL     1       3.098   3.108  20.315  0.00  0.00    +0.000 C 
ENDBRANCH   1  23
BRANCH   1  24
ATOM     24  C   UNL     1       4.428   5.221  19.820  0.00  0.00    +0.000 C 
BRANCH  24  25
ATOM     25  C   UNL     1       5.348   4.793  18.669  0.00  0.00    +0.000 C 
ATOM     26  O   UNL     1       6.349   4.092  18.813  0.00  0.00    +0.000 OA
ATOM     27  N   UNL     1       4.995   5.376  17.445  0.00  0.00    +0.000 N 
ATOM     28  H   UNL     1       4.477   6.246  17.495  0.00  0.00    +0.000 HD
BRANCH  27  29
ATOM     29  C   UNL     1       5.714   5.142  16.254  0.00  0.00    +0.000 A 
ATOM     30  C   UNL     1       6.998   5.667  16.062  0.00  0.00    +0.000 A 
ATOM     31  C   UNL     1       7.680   5.438  14.865  0.00  0.00    +0.000 A 
ATOM     32  C   UNL     1       7.066   4.715  13.845  0.00  0.00    +0.000 A 
ATOM     33  C   UNL     1       5.797   4.166  14.047  0.00  0.00    +0.000 A 
ATOM     34  C   UNL     1       5.131   4.359  15.259  0.00  0.00    +0.000 A 
ATOM     35  O   UNL     1       5.124   3.455  13.085  0.00  0.00    +0.000 OA
ATOM     36  C   UNL     1       5.990   3.064  12.014  0.00  0.00    +0.000 C 
ATOM     37  C   UNL     1       6.903   4.207  11.595  0.00  0.00    +0.000 C 
ATOM     38  O   UNL     1       7.765   4.585  12.673  0.00  0.00    +0.000 OA
ENDBRANCH  27  29
ENDBRANCH  24  25
ENDBRANCH   1  24
TORSDOF 7
ENDMDL
MODEL 8
REMARK VINA RESULT:      -8.6      3.515      7.395
REMARK  Name = 
REMARK  8 active torsions:
REMARK  status: ('A' for Active; 'I' for Inactive)
REMARK    1  A    between atoms: C_1  and  C_2
REMARK    2  A    between atoms: C_2  and  N_3
REMARK    3  A    between atoms: N_3  and  C_4
REMARK    4  A    between atoms: C_4  and  C_5
REMARK    5  A    between atoms: N_7  and  C_8
REMARK    6  A    between atoms: C_18  and  C_20
REMARK    7  A    between atoms: N_28  and  C_29
REMARK    8  A    between atoms: C_29  and  C_30
REMARK                            x       y       z     vdW  Elec       q    Type
REMARK                         _______ _______ _______ _____ _____    ______ ____
ROOT
ATOM      1  N   UNL     1       0.083  12.762  20.544  0.00  0.00    +0.000 N 
ATOM      2  C   UNL     1      -0.503  11.529  20.181  0.00  0.00    +0.000 C 
ATOM      3  O   UNL     1      -1.684  11.442  19.840  0.00  0.00    +0.000 OA
ENDROOT
BRANCH   2   4
ATOM      4  C   UNL     1       0.269  10.250  20.144  0.00  0.00    +0.000 A 
ATOM      5  C   UNL     1       0.116   9.345  21.231  0.00  0.00    +0.000 A 
ATOM      6  C   UNL     1       0.788   8.110  21.272  0.00  0.00    +0.000 A 
ATOM      7  C   UNL     1       1.580   7.794  20.191  0.00  0.00    +0.000 A 
ATOM      8  C   UNL     1       1.737   8.674  19.142  0.00  0.00    +0.000 A 
ATOM      9  C   UNL     1       1.157   9.927  19.113  0.00  0.00    +0.000 A 
ATOM     10  C   UNL     1       2.527   8.012  18.109  0.00  0.00    +0.000 C 
ATOM     11  O   UNL     1       2.693   8.481  17.000  0.00  0.00    +0.000 OA
ATOM     12  N   UNL     1       2.893   6.806  18.626  0.00  0.00    +0.000 N 
ATOM     13  C   UNL     1       2.348   6.595  19.864  0.00  0.00    +0.000 C 
ATOM     14  O   UNL     1       2.423   5.607  20.572  0.00  0.00    +0.000 OA
BRANCH  12  15
ATOM     15  C   UNL     1       3.669   5.827  17.889  0.00  0.00    +0.000 C 
BRANCH  15  16
ATOM     16  C   UNL     1       5.151   5.993  18.114  0.00  0.00    +0.000 A 
ATOM     17  C   UNL     1       5.910   6.798  17.254  0.00  0.00    +0.000 A 
ATOM     18  C   UNL     1       7.285   6.946  17.452  0.00  0.00    +0.000 A 
ATOM     19  C   UNL     1       7.914   6.288  18.508  0.00  0.00    +0.000 A 
ATOM     20  C   UNL     1       7.169   5.480  19.365  0.00  0.00    +0.000 A 
ATOM     21  C   UNL     1       5.796   5.328  19.167  0.00  0.00    +0.000 A 
ENDBRANCH  15  16
ENDBRANCH  12  15
ENDBRANCH   2   4
BRANCH   1  23
ATOM     22  C   UNL     1      -0.602  14.869  19.351  0.00  0.00    +0.000 C 
ATOM     23  C   UNL     1      -0.823  13.921  20.520  0.00  0.00    +0.000 C 
ENDBRANCH   1  23
BRANCH   1  24
ATOM     24  C   UNL     1       1.476  12.947  21.015  0.00  0.00    +0.000 C 
BRANCH  24  25
ATOM     25  C   UNL     1       2.547  13.706  20.219  0.00  0.00    +0.000 C 
ATOM     26  O   UNL     1       2.822  13.474  19.042  0.00  0.00    +0.000 OA
ATOM     27  N   UNL     1       3.262  14.618  21.004  0.00  0.00    +0.000 N 
ATOM     28  H   UNL     1       3.289  14.430  22.000  0.00  0.00    +0.000 HD
BRANCH  27  29
ATOM     29  C   UNL     1       4.309  15.411  20.488  0.00  0.00    +0.000 A 
ATOM     30  C   UNL     1       4.089  16.733  20.081  0.00  0.00    +0.000 A 
ATOM     31  C   UNL     1       5.138  17.490  19.554  0.00  0.00    +0.000 A 
ATOM     32  C   UNL     1       6.397  16.916  19.399  0.00  0.00    +0.000 A 
ATOM     33  C   UNL     1       6.624  15.607  19.832  0.00  0.00    +0.000 A 
ATOM     34  C   UNL     1       5.587  14.863  20.399  0.00  0.00    +0.000 A 
ATOM     35  O   UNL     1       7.833  14.971  19.701  0.00  0.00    +0.000 OA
ATOM     36  C   UNL     1       8.885  15.892  19.394  0.00  0.00    +0.000 C 
ATOM     37  C   UNL     1       8.451  16.895  18.337  0.00  0.00    +0.000 C 
ATOM     38  O   UNL     1       7.363  17.693  18.813  0.00  0.00    +0.000 OA
ENDBRANCH  27  29
ENDBRANCH  24  25
ENDBRANCH   1  24
TORSDOF 7
ENDMDL
MODEL 9
REMARK VINA RESULT:      -8.5      3.821      9.701
REMARK  Name = 
REMARK  8 active torsions:
REMARK  status: ('A' for Active; 'I' for Inactive)
REMARK    1  A    between atoms: C_1  and  C_2
REMARK    2  A    between atoms: C_2  and  N_3
REMARK    3  A    between atoms: N_3  and  C_4
REMARK    4  A    between atoms: C_4  and  C_5
REMARK    5  A    between atoms: N_7  and  C_8
REMARK    6  A    between atoms: C_18  and  C_20
REMARK    7  A    between atoms: N_28  and  C_29
REMARK    8  A    between atoms: C_29  and  C_30
REMARK                            x       y       z     vdW  Elec       q    Type
REMARK                         _______ _______ _______ _____ _____    ______ ____
ROOT
ATOM      1  N   UNL     1       0.213  11.044  18.858  0.00  0.00    +0.000 N 
ATOM      2  C   UNL     1       0.264  12.394  19.270  0.00  0.00    +0.000 C 
ATOM      3  O   UNL     1      -0.746  13.012  19.611  0.00  0.00    +0.000 OA
ENDROOT
BRANCH   2   4
ATOM      4  C   UNL     1       1.544  13.162  19.360  0.00  0.00    +0.000 A 
ATOM      5  C   UNL     1       2.017  13.812  18.186  0.00  0.00    +0.000 A 
ATOM      6  C   UNL     1       3.201  14.572  18.183  0.00  0.00    +0.000 A 
ATOM      7  C   UNL     1       3.870  14.691  19.380  0.00  0.00    +0.000 A 
ATOM      8  C   UNL     1       3.417  14.053  20.515  0.00  0.00    +0.000 A 
ATOM      9  C   UNL     1       2.306  13.233  20.530  0.00  0.00    +0.000 A 
ATOM     10  C   UNL     1       4.261  14.465  21.633  0.00  0.00    +0.000 C 
ATOM     11  O   UNL     1       4.006  14.192  22.790  0.00  0.00    +0.000 OA
ATOM     12  N   UNL     1       5.240  15.248  21.101  0.00  0.00    +0.000 N 
ATOM     13  C   UNL     1       5.063  15.446  19.758  0.00  0.00    +0.000 C 
ATOM     14  O   UNL     1       5.715  16.136  18.996  0.00  0.00    +0.000 OA
BRANCH  12  15
ATOM     15  C   UNL     1       6.269  15.886  21.900  0.00  0.00    +0.000 C 
BRANCH  15  16
ATOM     16  C   UNL     1       7.601  15.193  21.763  0.00  0.00    +0.000 A 
ATOM     17  C   UNL     1       8.582  15.707  20.904  0.00  0.00    +0.000 A 
ATOM     18  C   UNL     1       9.813  15.062  20.766  0.00  0.00    +0.000 A 
ATOM     19  C   UNL     1      10.074  13.895  21.482  0.00  0.00    +0.000 A 
ATOM     20  C   UNL     1       9.104  13.371  22.335  0.00  0.00    +0.000 A 
ATOM     21  C   UNL     1       7.872  14.012  22.471  0.00  0.00    +0.000 A 
ENDBRANCH  15  16
ENDBRANCH  12  15
ENDBRANCH   2   4
BRANCH   1  23
ATOM     22  C   UNL     1      -1.627  10.071  17.445  0.00  0.00    +0.000 C 
ATOM     23  C   UNL     1      -1.129  10.443  18.834  0.00  0.00    +0.000 C 
ENDBRANCH   1  23
BRANCH   1  24
ATOM     24  C   UNL     1       1.368  10.246  18.384  0.00  0.00    +0.000 C 
BRANCH  24  25
ATOM     25  C   UNL     1       1.699   8.841  18.904  0.00  0.00    +0.000 C 
ATOM     26  O   UNL     1       1.505   8.473  20.062  0.00  0.00    +0.000 OA
ATOM     27  N   UNL     1       2.352   8.048  17.951  0.00  0.00    +0.000 N 
ATOM     28  H   UNL     1       2.857   8.543  17.225  0.00  0.00    +0.000 HD
BRANCH  27  29
ATOM     29  C   UNL     1       2.770   6.727  18.216  0.00  0.00    +0.000 A 
ATOM     30  C   UNL     1       4.049   6.454  18.717  0.00  0.00    +0.000 A 
ATOM     31  C   UNL     1       4.445   5.135  18.952  0.00  0.00    +0.000 A 
ATOM     32  C   UNL     1       3.579   4.087  18.652  0.00  0.00    +0.000 A 
ATOM     33  C   UNL     1       2.292   4.361  18.179  0.00  0.00    +0.000 A 
ATOM     34  C   UNL     1       1.879   5.680  17.985  0.00  0.00    +0.000 A 
ATOM     35  O   UNL     1       1.389   3.382  17.851  0.00  0.00    +0.000 OA
ATOM     36  C   UNL     1       1.786   2.103  18.357  0.00  0.00    +0.000 C 
ATOM     37  C   UNL     1       3.270   1.856  18.132  0.00  0.00    +0.000 C 
ATOM     38  O   UNL     1       4.056   2.816  18.843  0.00  0.00    +0.000 OA
ENDBRANCH  27  29
ENDBRANCH  24  25
ENDBRANCH   1  24
TORSDOF 7
ENDMDL
