MODEL 1
REMARK VINA RESULT:      -9.1      0.000      0.000
REMARK  Name = 
REMARK  4 active torsions:
REMARK  status: ('A' for Active; 'I' for Inactive)
REMARK    1  A    between atoms: C_2  and  C_3
REMARK    2  A    between atoms: N_13  and  C_14
REMARK    3  A    between atoms: N_13  and  C_23
REMARK    4  A    between atoms: C_14  and  C_15
REMARK                            x       y       z     vdW  Elec       q    Type
REMARK                         _______ _______ _______ _____ _____    ______ ____
ROOT
ATOM      1  O   UNL     1       3.195   8.158  17.900  0.00  0.00    +0.000 OA
ATOM      2  C   UNL     1       2.507   7.511  18.693  0.00  0.00    +0.000 C 
ATOM      3  N   UNL     1       2.581   6.097  18.701  0.00  0.00    +0.000 N 
ENDROOT
BRANCH   2   4
ATOM      4  C   UNL     1       1.641   8.291  19.647  0.00  0.00    +0.000 A 
ATOM      5  C   UNL     1       1.516   8.028  20.965  0.00  0.00    +0.000 A 
ATOM      6  C   UNL     1       0.809   8.897  21.886  0.00  0.00    +0.000 A 
ATOM      7  C   UNL     1       0.087   9.918  21.416  0.00  0.00    +0.000 A 
ATOM      8  N   UNL     1       0.016  10.092  20.067  0.00  0.00    +0.000 N 
ATOM      9  C   UNL     1      -0.760  10.987  19.373  0.00  0.00    +0.000 A 
ATOM     10  O   UNL     1      -1.498  11.854  19.811  0.00  0.00    +0.000 OA
ATOM     11  N   UNL     1      -0.536  10.685  18.035  0.00  0.00    +0.000 N 
ATOM     12  N   UNL     1       0.389   9.674  17.911  0.00  0.00    +0.000 NA
ATOM     13  C   UNL     1       0.690   9.350  19.134  0.00  0.00    +0.000 A 
ATOM     14  H   UNL     1      -0.988  11.119  17.241  0.00  0.00    +0.000 HD
ENDBRANCH   2   4
BRANCH   3  15
ATOM     15  C   UNL     1       1.807   5.157  19.547  0.00  0.00    +0.000 C 
ATOM     16  C   UNL     1       2.558   4.671  20.798  0.00  0.00    +0.000 C 
ATOM     17  C   UNL     1       1.843   3.402  21.264  0.00  0.00    +0.000 C 
ATOM     18  C   UNL     1       0.886   3.013  20.145  0.00  0.00    +0.000 C 
ATOM     19  C   UNL     1       1.349   3.819  18.936  0.00  0.00    +0.000 C 
ENDBRANCH   3  15
BRANCH   3  20
ATOM     20  C   UNL     1       3.511   5.528  17.704  0.00  0.00    +0.000 C 
BRANCH  20  21
ATOM     21  C   UNL     1       4.977   5.835  17.935  0.00  0.00    +0.000 A 
ATOM     22  C   UNL     1       5.643   5.493  19.121  0.00  0.00    +0.000 A 
ATOM     23  C   UNL     1       7.021   5.670  19.234  0.00  0.00    +0.000 A 
ATOM     24  F   UNL     1       7.632   5.321  20.372  0.00  0.00    +0.000 F 
ATOM     25  C   UNL     1       7.768   6.176  18.181  0.00  0.00    +0.000 A 
ATOM     26  C   UNL     1       7.128   6.523  16.995  0.00  0.00    +0.000 A 
ATOM     27  C   UNL     1       5.745   6.348  16.879  0.00  0.00    +0.000 A 
ATOM     28  F   UNL     1       5.160   6.666  15.716  0.00  0.00    +0.000 F 
ENDBRANCH  20  21
ENDBRANCH   3  20
TORSDOF 4
ENDMDL
MODEL 2
REMARK VINA RESULT:      -8.9      0.920      1.522
REMARK  Name = 
REMARK  4 active torsions:
REMARK  status: ('A' for Active; 'I' for Inactive)
REMARK    1  A    between atoms: C_2  and  C_3
REMARK    2  A    between atoms: N_13  and  C_14
REMARK    3  A    between atoms: N_13  and  C_23
REMARK    4  A    between atoms: C_14  and  C_15
REMARK                            x       y       z     vdW  Elec       q    Type
REMARK                         _______ _______ _______ _____ _____    ______ ____
ROOT
ATOM      1  O   UNL     1       3.324   8.114  17.813  0.00  0.00    +0.000 OA
ATOM      2  C   UNL     1       2.608   7.464  18.579  0.00  0.00    +0.000 C 
ATOM      3  N   UNL     1       2.661   6.048  18.564  0.00  0.00    +0.000 N 
ENDROOT
BRANCH   2   4
ATOM      4  C   UNL     1       1.732   8.240  19.527  0.00  0.00    +0.000 A 
ATOM      5  C   UNL     1       1.587   7.968  20.841  0.00  0.00    +0.000 A 
ATOM      6  C   UNL     1       0.872   8.832  21.759  0.00  0.00    +0.000 A 
ATOM      7  C   UNL     1       0.160   9.859  21.287  0.00  0.00    +0.000 A 
ATOM      8  N   UNL     1       0.108  10.044  19.938  0.00  0.00    +0.000 N 
ATOM      9  C   UNL     1      -0.655  10.947  19.241  0.00  0.00    +0.000 A 
ATOM     10  O   UNL     1      -1.396  11.814  19.675  0.00  0.00    +0.000 OA
ATOM     11  N   UNL     1      -0.414  10.654  17.903  0.00  0.00    +0.000 N 
ATOM     12  N   UNL     1       0.509   9.641  17.784  0.00  0.00    +0.000 NA
ATOM     13  C   UNL     1       0.792   9.306  19.009  0.00  0.00    +0.000 A 
ATOM     14  H   UNL     1      -0.853  11.096  17.106  0.00  0.00    +0.000 HD
ENDBRANCH   2   4
BRANCH   3  15
ATOM     15  C   UNL     1       1.855   5.106  19.375  0.00  0.00    +0.000 C 
ATOM     16  C   UNL     1       2.446   4.804  20.762  0.00  0.00    +0.000 C 
ATOM     17  C   UNL     1       1.785   3.509  21.239  0.00  0.00    +0.000 C 
ATOM     18  C   UNL     1       1.050   2.934  20.036  0.00  0.00    +0.000 C 
ATOM     19  C   UNL     1       1.618   3.682  18.836  0.00  0.00    +0.000 C 
ENDBRANCH   3  15
BRANCH   3  20
ATOM     20  C   UNL     1       3.605   5.483  17.577  0.00  0.00    +0.000 C 
BRANCH  20  21
ATOM     21  C   UNL     1       5.073   5.687  17.895  0.00  0.00    +0.000 A 
ATOM     22  C   UNL     1       5.847   6.685  17.286  0.00  0.00    +0.000 A 
ATOM     23  C   UNL     1       7.153   6.925  17.711  0.00  0.00    +0.000 A 
ATOM     24  F   UNL     1       7.863   7.893  17.120  0.00  0.00    +0.000 F 
ATOM     25  C   UNL     1       7.716   6.195  18.747  0.00  0.00    +0.000 A 
ATOM     26  C   UNL     1       6.966   5.199  19.366  0.00  0.00    +0.000 A 
ATOM     27  C   UNL     1       5.656   4.955  18.941  0.00  0.00    +0.000 A 
ATOM     28  F   UNL     1       4.949   4.009  19.574  0.00  0.00    +0.000 F 
ENDBRANCH  20  21
ENDBRANCH   3  20
TORSDOF 4
ENDMDL
MODEL 3
REMARK VINA RESULT:      -8.5      3.519      7.205
REMARK  Name = 
REMARK  4 active torsions:
REMARK  status: ('A' for Active; 'I' for Inactive)
REMARK    1  A    between atoms: C_2  and  C_3
REMARK    2  A    between atoms: N_13  and  C_14
REMARK    3  A    between atoms: N_13  and  C_23
REMARK    4  A    between atoms: C_14  and  C_15
REMARK                            x       y       z     vdW  Elec       q    Type
REMARK                         _______ _______ _______ _____ _____    ______ ____
ROOT
ATOM      1  O   UNL     1       2.734   7.325  17.931  0.00  0.00    +0.000 OA
ATOM      2  C   UNL     1       2.272   7.181  19.066  0.00  0.00    +0.000 C 
ATOM      3  N   UNL     1       1.758   8.300  19.766  0.00  0.00    +0.000 N 
ENDROOT
BRANCH   2   4
ATOM      4  C   UNL     1       2.255   5.785  19.629  0.00  0.00    +0.000 A 
ATOM      5  C   UNL     1       1.246   5.259  20.355  0.00  0.00    +0.000 A 
ATOM      6  C   UNL     1       1.184   3.862  20.739  0.00  0.00    +0.000 A 
ATOM      7  C   UNL     1       2.241   3.070  20.535  0.00  0.00    +0.000 A 
ATOM      8  N   UNL     1       3.365   3.618  19.994  0.00  0.00    +0.000 N 
ATOM      9  C   UNL     1       4.590   3.024  19.819  0.00  0.00    +0.000 A 
ATOM     10  O   UNL     1       4.918   1.871  20.048  0.00  0.00    +0.000 OA
ATOM     11  N   UNL     1       5.405   4.037  19.326  0.00  0.00    +0.000 N 
ATOM     12  N   UNL     1       4.689   5.199  19.153  0.00  0.00    +0.000 NA
ATOM     13  C   UNL     1       3.488   4.910  19.561  0.00  0.00    +0.000 A 
ATOM     14  H   UNL     1       6.394   3.965  19.129  0.00  0.00    +0.000 HD
ENDBRANCH   2   4
BRANCH   3  15
ATOM     15  C   UNL     1       1.204   8.329  21.141  0.00  0.00    +0.000 C 
ATOM     16  C   UNL     1      -0.329   8.418  21.201  0.00  0.00    +0.000 C 
ATOM     17  C   UNL     1      -0.677   8.909  22.607  0.00  0.00    +0.000 C 
ATOM     18  C   UNL     1       0.631   9.362  23.240  0.00  0.00    +0.000 C 
ATOM     19  C   UNL     1       1.607   9.486  22.075  0.00  0.00    +0.000 C 
ENDBRANCH   3  15
BRANCH   3  20
ATOM     20  C   UNL     1       1.845   9.576  19.026  0.00  0.00    +0.000 C 
BRANCH  20  21
ATOM     21  C   UNL     1       0.516  10.189  18.633  0.00  0.00    +0.000 A 
ATOM     22  C   UNL     1      -0.380   9.555  17.760  0.00  0.00    +0.000 A 
ATOM     23  C   UNL     1      -1.649  10.089  17.537  0.00  0.00    +0.000 A 
ATOM     24  F   UNL     1      -2.487   9.455  16.710  0.00  0.00    +0.000 F 
ATOM     25  C   UNL     1      -2.060  11.249  18.176  0.00  0.00    +0.000 A 
ATOM     26  C   UNL     1      -1.187  11.896  19.046  0.00  0.00    +0.000 A 
ATOM     27  C   UNL     1       0.086  11.363  19.270  0.00  0.00    +0.000 A 
ATOM     28  F   UNL     1       0.895  11.991  20.134  0.00  0.00    +0.000 F 
ENDBRANCH  20  21
ENDBRANCH   3  20
TORSDOF 4
ENDMDL
MODEL 4
REMARK VINA RESULT:      -8.2      1.913      3.111
REMARK  Name = 
REMARK  4 active torsions:
REMARK  status: ('A' for Active; 'I' for Inactive)
REMARK    1  A    between atoms: C_2  and  C_3
REMARK    2  A    between atoms: N_13  and  C_14
REMARK    3  A    between atoms: N_13  and  C_23
REMARK    4  A    between atoms: C_14  and  C_15
REMARK                            x       y       z     vdW  Elec       q    Type
REMARK                         _______ _______ _______ _____ _____    ______ ____
ROOT
ATOM      1  O   UNL     1       4.915   6.939  18.327  0.00  0.00    +0.000 OA
ATOM      2  C   UNL     1       3.754   6.556  18.493  0.00  0.00    +0.000 C 
ATOM      3  N   UNL     1       3.483   5.175  18.656  0.00  0.00    +0.000 N 
ENDROOT
BRANCH   2   4
ATOM      4  C   UNL     1       2.683   7.612  18.548  0.00  0.00    +0.000 A 
ATOM      5  C   UNL     1       2.358   8.435  17.528  0.00  0.00    +0.000 A 
ATOM      6  C   UNL     1       1.213   9.324  17.555  0.00  0.00    +0.000 A 
ATOM      7  C   UNL     1       0.531   9.494  18.691  0.00  0.00    +0.000 A 
ATOM      8  N   UNL     1       0.959   8.839  19.807  0.00  0.00    +0.000 N 
ATOM      9  C   UNL     1       0.489   8.966  21.090  0.00  0.00    +0.000 A 
ATOM     10  O   UNL     1      -0.445   9.639  21.496  0.00  0.00    +0.000 OA
ATOM     11  N   UNL     1       1.327   8.162  21.854  0.00  0.00    +0.000 N 
ATOM     12  N   UNL     1       2.246   7.519  21.057  0.00  0.00    +0.000 NA
ATOM     13  C   UNL     1       1.996   7.947  19.854  0.00  0.00    +0.000 A 
ATOM     14  H   UNL     1       1.300   8.056  22.860  0.00  0.00    +0.000 HD
ENDBRANCH   2   4
BRANCH   3  15
ATOM     15  C   UNL     1       2.159   4.529  18.825  0.00  0.00    +0.000 C 
ATOM     16  C   UNL     1       1.818   4.164  20.278  0.00  0.00    +0.000 C 
ATOM     17  C   UNL     1       0.701   3.121  20.209  0.00  0.00    +0.000 C 
ATOM     18  C   UNL     1       0.605   2.690  18.752  0.00  0.00    +0.000 C 
ATOM     19  C   UNL     1       1.895   3.189  18.111  0.00  0.00    +0.000 C 
ENDBRANCH   3  15
BRANCH   3  20
ATOM     20  C   UNL     1       4.677   4.306  18.596  0.00  0.00    +0.000 C 
BRANCH  20  21
ATOM     21  C   UNL     1       5.409   4.304  17.270  0.00  0.00    +0.000 A 
ATOM     22  C   UNL     1       4.748   4.164  16.041  0.00  0.00    +0.000 A 
ATOM     23  C   UNL     1       5.445   4.307  14.842  0.00  0.00    +0.000 A 
ATOM     24  F   UNL     1       4.785   4.182  13.685  0.00  0.00    +0.000 F 
ATOM     25  C   UNL     1       6.801   4.600  14.831  0.00  0.00    +0.000 A 
ATOM     26  C   UNL     1       7.477   4.743  16.039  0.00  0.00    +0.000 A 
ATOM     27  C   UNL     1       6.781   4.599  17.243  0.00  0.00    +0.000 A 
ATOM     28  F   UNL     1       7.453   4.768  18.390  0.00  0.00    +0.000 F 
ENDBRANCH  20  21
ENDBRANCH   3  20
TORSDOF 4
ENDMDL
MODEL 5
REMARK VINA RESULT:      -8.1      2.739      4.431
REMARK  Name = 
REMARK  4 active torsions:
REMARK  status: ('A' for Active; 'I' for Inactive)
REMARK    1  A    between atoms: C_2  and  C_3
REMARK    2  A    between atoms: N_13  and  C_14
REMARK    3  A    between atoms: N_13  and  C_23
REMARK    4  A    between atoms: C_14  and  C_15
REMARK                            x       y       z     vdW  Elec       q    Type
REMARK                         _______ _______ _______ _____ _____    ______ ____
ROOT
ATOM      1  O   UNL     1       2.115   8.595  17.452  0.00  0.00    +0.000 OA
ATOM      2  C   UNL     1       1.557   8.872  18.517  0.00  0.00    +0.000 C 
ATOM      3  N   UNL     1       1.884   8.153  19.693  0.00  0.00    +0.000 N 
ENDROOT
BRANCH   2   4
ATOM      4  C   UNL     1       0.568  10.007  18.500  0.00  0.00    +0.000 A 
ATOM      5  C   UNL     1      -0.752   9.876  18.254  0.00  0.00    +0.000 A 
ATOM      6  C   UNL     1      -1.703  10.959  18.411  0.00  0.00    +0.000 A 
ATOM      7  C   UNL     1      -1.265  12.201  18.635  0.00  0.00    +0.000 A 
ATOM      8  N   UNL     1       0.080  12.414  18.681  0.00  0.00    +0.000 N 
ATOM      9  C   UNL     1       0.740  13.614  18.771  0.00  0.00    +0.000 A 
ATOM     10  O   UNL     1       0.270  14.734  18.894  0.00  0.00    +0.000 OA
ATOM     11  N   UNL     1       2.087  13.283  18.678  0.00  0.00    +0.000 N 
ATOM     12  N   UNL     1       2.250  11.920  18.589  0.00  0.00    +0.000 NA
ATOM     13  C   UNL     1       1.040  11.442  18.592  0.00  0.00    +0.000 A 
ATOM     14  H   UNL     1       2.862  13.934  18.659  0.00  0.00    +0.000 HD
ENDBRANCH   2   4
BRANCH   3  15
ATOM     15  C   UNL     1       1.295   8.315  21.044  0.00  0.00    +0.000 C 
ATOM     16  C   UNL     1      -0.222   8.074  21.102  0.00  0.00    +0.000 C 
ATOM     17  C   UNL     1      -0.714   8.729  22.393  0.00  0.00    +0.000 C 
ATOM     18  C   UNL     1       0.444   9.570  22.916  0.00  0.00    +0.000 C 
ATOM     19  C   UNL     1       1.405   9.686  21.739  0.00  0.00    +0.000 C 
ENDBRANCH   3  15
BRANCH   3  20
ATOM     20  C   UNL     1       2.898   7.095  19.501  0.00  0.00    +0.000 C 
BRANCH  20  21
ATOM     21  C   UNL     1       2.359   5.679  19.475  0.00  0.00    +0.000 A 
ATOM     22  C   UNL     1       1.893   5.026  20.625  0.00  0.00    +0.000 A 
ATOM     23  C   UNL     1       1.279   3.778  20.530  0.00  0.00    +0.000 A 
ATOM     24  F   UNL     1       0.832   3.185  21.643  0.00  0.00    +0.000 F 
ATOM     25  C   UNL     1       1.102   3.158  19.303  0.00  0.00    +0.000 A 
ATOM     26  C   UNL     1       1.556   3.787  18.148  0.00  0.00    +0.000 A 
ATOM     27  C   UNL     1       2.175   5.038  18.240  0.00  0.00    +0.000 A 
ATOM     28  F   UNL     1       2.578   5.633  17.109  0.00  0.00    +0.000 F 
ENDBRANCH  20  21
ENDBRANCH   3  20
TORSDOF 4
ENDMDL
MODEL 6
REMARK VINA RESULT:      -8.1      2.590      4.791
REMARK  Name = 
REMARK  4 active torsions:
REMARK  status: ('A' for Active; 'I' for Inactive)
REMARK    1  A    between atoms: C_2  and  C_3
REMARK    2  A    between atoms: N_13  and  C_14
REMARK    3  A    between atoms: N_13  and  C_23
REMARK    4  A    between atoms: C_14  and  C_15
REMARK                            x       y       z     vdW  Elec       q    Type
REMARK                         _______ _______ _______ _____ _____    ______ ____
ROOT
ATOM      1  O   UNL     1       2.703   4.720  17.330  0.00  0.00    +0.000 OA
ATOM      2  C   UNL     1       3.454   5.620  17.715  0.00  0.00    +0.000 C 
ATOM      3  N   UNL     1       4.856   5.421  17.711  0.00  0.00    +0.000 N 
ENDROOT
BRANCH   2   4
ATOM      4  C   UNL     1       2.812   6.915  18.140  0.00  0.00    +0.000 A 
ATOM      5  C   UNL     1       2.834   8.058  17.422  0.00  0.00    +0.000 A 
ATOM      6  C   UNL     1       2.067   9.236  17.776  0.00  0.00    +0.000 A 
ATOM      7  C   UNL     1       1.439   9.290  18.955  0.00  0.00    +0.000 A 
ATOM      8  N   UNL     1       1.568   8.233  19.805  0.00  0.00    +0.000 N 
ATOM      9  C   UNL     1       1.119   8.134  21.099  0.00  0.00    +0.000 A 
ATOM     10  O   UNL     1       0.459   8.936  21.739  0.00  0.00    +0.000 OA
ATOM     11  N   UNL     1       1.595   6.906  21.544  0.00  0.00    +0.000 N 
ATOM     12  N   UNL     1       2.267   6.250  20.539  0.00  0.00    +0.000 NA
ATOM     13  C   UNL     1       2.230   7.068  19.528  0.00  0.00    +0.000 A 
ATOM     14  H   UNL     1       1.492   6.528  22.476  0.00  0.00    +0.000 HD
ENDBRANCH   2   4
BRANCH   3  15
ATOM     15  C   UNL     1       5.903   6.363  18.171  0.00  0.00    +0.000 C 
ATOM     16  C   UNL     1       6.450   7.284  17.068  0.00  0.00    +0.000 C 
ATOM     17  C   UNL     1       7.791   7.817  17.577  0.00  0.00    +0.000 C 
ATOM     18  C   UNL     1       8.137   6.998  18.813  0.00  0.00    +0.000 C 
ATOM     19  C   UNL     1       7.209   5.790  18.754  0.00  0.00    +0.000 C 
ENDBRANCH   3  15
BRANCH   3  20
ATOM     20  C   UNL     1       5.282   4.089  17.233  0.00  0.00    +0.000 C 
BRANCH  20  21
ATOM     21  C   UNL     1       5.715   4.030  15.781  0.00  0.00    +0.000 A 
ATOM     22  C   UNL     1       4.806   3.853  14.728  0.00  0.00    +0.000 A 
ATOM     23  C   UNL     1       5.232   3.944  13.403  0.00  0.00    +0.000 A 
ATOM     24  F   UNL     1       4.339   3.784  12.420  0.00  0.00    +0.000 F 
ATOM     25  C   UNL     1       6.554   4.223  13.093  0.00  0.00    +0.000 A 
ATOM     26  C   UNL     1       7.473   4.403  14.122  0.00  0.00    +0.000 A 
ATOM     27  C   UNL     1       7.050   4.310  15.452  0.00  0.00    +0.000 A 
ATOM     28  F   UNL     1       7.951   4.514  16.422  0.00  0.00    +0.000 F 
ENDBRANCH  20  21
ENDBRANCH   3  20
TORSDOF 4
ENDMDL
MODEL 7
REMARK VINA RESULT:      -7.9      1.290      1.969
REMARK  Name = 
REMARK  4 active torsions:
REMARK  status: ('A' for Active; 'I' for Inactive)
REMARK    1  A    between atoms: C_2  and  C_3
REMARK    2  A    between atoms: N_13  and  C_14
REMARK    3  A    between atoms: N_13  and  C_23
REMARK    4  A    between atoms: C_14  and  C_15
REMARK                            x       y       z     vdW  Elec       q    Type
REMARK                         _______ _______ _______ _____ _____    ______ ____
ROOT
ATOM      1  O   UNL     1       3.361   8.114  17.098  0.00  0.00    +0.000 OA
ATOM      2  C   UNL     1       2.581   7.586  17.894  0.00  0.00    +0.000 C 
ATOM      3  N   UNL     1       2.703   6.208  18.194  0.00  0.00    +0.000 N 
ENDROOT
BRANCH   2   4
ATOM      4  C   UNL     1       1.547   8.475  18.534  0.00  0.00    +0.000 A 
ATOM      5  C   UNL     1       0.741   9.326  17.865  0.00  0.00    +0.000 A 
ATOM      6  C   UNL     1      -0.355  10.041  18.489  0.00  0.00    +0.000 A 
ATOM      7  C   UNL     1      -0.493  10.018  19.817  0.00  0.00    +0.000 A 
ATOM      8  N   UNL     1       0.431   9.337  20.552  0.00  0.00    +0.000 N 
ATOM      9  C   UNL     1       0.551   9.290  21.918  0.00  0.00    +0.000 A 
ATOM     10  O   UNL     1      -0.173   9.789  22.764  0.00  0.00    +0.000 OA
ATOM     11  N   UNL     1       1.706   8.549  22.145  0.00  0.00    +0.000 N 
ATOM     12  N   UNL     1       2.245   8.110  20.958  0.00  0.00    +0.000 NA
ATOM     13  C   UNL     1       1.463   8.599  20.040  0.00  0.00    +0.000 A 
ATOM     14  H   UNL     1       2.124   8.357  23.045  0.00  0.00    +0.000 HD
ENDBRANCH   2   4
BRANCH   3  15
ATOM     15  C   UNL     1       1.840   5.398  19.087  0.00  0.00    +0.000 C 
ATOM     16  C   UNL     1       2.490   5.036  20.432  0.00  0.00    +0.000 C 
ATOM     17  C   UNL     1       1.696   3.853  20.989  0.00  0.00    +0.000 C 
ATOM     18  C   UNL     1       0.798   3.368  19.859  0.00  0.00    +0.000 C 
ATOM     19  C   UNL     1       1.369   4.013  18.601  0.00  0.00    +0.000 C 
ENDBRANCH   3  15
BRANCH   3  20
ATOM     20  C   UNL     1       3.799   5.521  17.479  0.00  0.00    +0.000 C 
BRANCH  20  21
ATOM     21  C   UNL     1       5.198   5.923  17.899  0.00  0.00    +0.000 A 
ATOM     22  C   UNL     1       5.772   5.510  19.110  0.00  0.00    +0.000 A 
ATOM     23  C   UNL     1       7.110   5.788  19.391  0.00  0.00    +0.000 A 
ATOM     24  F   UNL     1       7.633   5.368  20.548  0.00  0.00    +0.000 F 
ATOM     25  C   UNL     1       7.906   6.468  18.482  0.00  0.00    +0.000 A 
ATOM     26  C   UNL     1       7.358   6.888  17.274  0.00  0.00    +0.000 A 
ATOM     27  C   UNL     1       6.017   6.612  16.991  0.00  0.00    +0.000 A 
ATOM     28  F   UNL     1       5.523   7.005  15.808  0.00  0.00    +0.000 F 
ENDBRANCH  20  21
ENDBRANCH   3  20
TORSDOF 4
ENDMDL
MODEL 8
REMARK VINA RESULT:      -7.9      2.802      4.610
REMARK  Name = 
REMARK  4 active torsions:
REMARK  status: ('A' for Active; 'I' for Inactive)
REMARK    1  A    between atoms: C_2  and  C_3
REMARK    2  A    between atoms: N_13  and  C_14
REMARK    3  A    between atoms: N_13  and  C_23
REMARK    4  A    between atoms: C_14  and  C_15
REMARK                            x       y       z     vdW  Elec       q    Type
REMARK                         _______ _______ _______ _____ _____    ______ ____
ROOT
ATOM      1  O   UNL     1       2.116   8.599  17.393  0.00  0.00    +0.000 OA
ATOM      2  C   UNL     1       1.561   8.891  18.455  0.00  0.00    +0.000 C 
ATOM      3  N   UNL     1       1.880   8.180  19.638  0.00  0.00    +0.000 N 
ENDROOT
BRANCH   2   4
ATOM      4  C   UNL     1       0.583  10.035  18.428  0.00  0.00    +0.000 A 
ATOM      5  C   UNL     1      -0.737   9.915  18.173  0.00  0.00    +0.000 A 
ATOM      6  C   UNL     1      -1.679  11.008  18.320  0.00  0.00    +0.000 A 
ATOM      7  C   UNL     1      -1.231  12.247  18.542  0.00  0.00    +0.000 A 
ATOM      8  N   UNL     1       0.116  12.447  18.595  0.00  0.00    +0.000 N 
ATOM      9  C   UNL     1       0.786  13.641  18.686  0.00  0.00    +0.000 A 
ATOM     10  O   UNL     1       0.327  14.766  18.801  0.00  0.00    +0.000 OA
ATOM     11  N   UNL     1       2.131  13.298  18.603  0.00  0.00    +0.000 N 
ATOM     12  N   UNL     1       2.282  11.933  18.520  0.00  0.00    +0.000 NA
ATOM     13  C   UNL     1       1.067  11.466  18.517  0.00  0.00    +0.000 A 
ATOM     14  H   UNL     1       2.912  13.940  18.587  0.00  0.00    +0.000 HD
ENDBRANCH   2   4
BRANCH   3  15
ATOM     15  C   UNL     1       1.292   8.359  20.986  0.00  0.00    +0.000 C 
ATOM     16  C   UNL     1      -0.216   8.071  21.059  0.00  0.00    +0.000 C 
ATOM     17  C   UNL     1      -0.723   8.745  22.335  0.00  0.00    +0.000 C 
ATOM     18  C   UNL     1       0.409   9.637  22.828  0.00  0.00    +0.000 C 
ATOM     19  C   UNL     1       1.360   9.752  21.643  0.00  0.00    +0.000 C 
ENDBRANCH   3  15
BRANCH   3  20
ATOM     20  C   UNL     1       2.884   7.110  19.455  0.00  0.00    +0.000 C 
BRANCH  20  21
ATOM     21  C   UNL     1       2.319   5.733  19.177  0.00  0.00    +0.000 A 
ATOM     22  C   UNL     1       2.397   5.124  17.916  0.00  0.00    +0.000 A 
ATOM     23  C   UNL     1       1.988   3.802  17.742  0.00  0.00    +0.000 A 
ATOM     24  F   UNL     1       2.088   3.243  16.530  0.00  0.00    +0.000 F 
ATOM     25  C   UNL     1       1.506   3.055  18.806  0.00  0.00    +0.000 A 
ATOM     26  C   UNL     1       1.419   3.639  20.066  0.00  0.00    +0.000 A 
ATOM     27  C   UNL     1       1.827   4.964  20.243  0.00  0.00    +0.000 A 
ATOM     28  F   UNL     1       1.757   5.492  21.473  0.00  0.00    +0.000 F 
ENDBRANCH  20  21
ENDBRANCH   3  20
TORSDOF 4
ENDMDL
MODEL 9
REMARK VINA RESULT:      -7.9      3.272      7.161
REMARK  Name = 
REMARK  4 active torsions:
REMARK  status: ('A' for Active; 'I' for Inactive)
REMARK    1  A    between atoms: C_2  and  C_3
REMARK    2  A    between atoms: N_13  and  C_14
REMARK    3  A    between atoms: N_13  and  C_23
REMARK    4  A    between atoms: C_14  and  C_15
REMARK                            x       y       z     vdW  Elec       q    Type
REMARK                         _______ _______ _______ _____ _____    ______ ____
ROOT
ATOM      1  O   UNL     1       2.701   7.391  18.004  0.00  0.00    +0.000 OA
ATOM      2  C   UNL     1       2.248   7.233  19.140  0.00  0.00    +0.000 C 
ATOM      3  N   UNL     1       1.709   8.337  19.845  0.00  0.00    +0.000 N 
ENDROOT
BRANCH   2   4
ATOM      4  C   UNL     1       2.266   5.835  19.699  0.00  0.00    +0.000 A 
ATOM      5  C   UNL     1       1.280   5.290  20.443  0.00  0.00    +0.000 A 
ATOM      6  C   UNL     1       1.251   3.891  20.823  0.00  0.00    +0.000 A 
ATOM      7  C   UNL     1       2.317   3.118  20.598  0.00  0.00    +0.000 A 
ATOM      8  N   UNL     1       3.421   3.687  20.036  0.00  0.00    +0.000 N 
ATOM      9  C   UNL     1       4.652   3.116  19.835  0.00  0.00    +0.000 A 
ATOM     10  O   UNL     1       5.005   1.968  20.055  0.00  0.00    +0.000 OA
ATOM     11  N   UNL     1       5.440   4.144  19.330  0.00  0.00    +0.000 N 
ATOM     12  N   UNL     1       4.700   5.294  19.174  0.00  0.00    +0.000 NA
ATOM     13  C   UNL     1       3.512   4.983  19.604  0.00  0.00    +0.000 A 
ATOM     14  H   UNL     1       6.426   4.090  19.113  0.00  0.00    +0.000 HD
ENDBRANCH   2   4
BRANCH   3  15
ATOM     15  C   UNL     1       1.160   8.349  21.222  0.00  0.00    +0.000 C 
ATOM     16  C   UNL     1      -0.373   8.449  21.288  0.00  0.00    +0.000 C 
ATOM     17  C   UNL     1      -0.713   8.920  22.703  0.00  0.00    +0.000 C 
ATOM     18  C   UNL     1       0.601   9.354  23.338  0.00  0.00    +0.000 C 
ATOM     19  C   UNL     1       1.574   9.489  22.173  0.00  0.00    +0.000 C 
ENDBRANCH   3  15
BRANCH   3  20
ATOM     20  C   UNL     1       1.762   9.617  19.108  0.00  0.00    +0.000 C 
BRANCH  20  21
ATOM     21  C   UNL     1       0.421  10.273  18.851  0.00  0.00    +0.000 A 
ATOM     22  C   UNL     1       0.023  11.457  19.488  0.00  0.00    +0.000 A 
ATOM     23  C   UNL     1      -1.159  12.098  19.117  0.00  0.00    +0.000 A 
ATOM     24  F   UNL     1      -1.505  13.234  19.733  0.00  0.00    +0.000 F 
ATOM     25  C   UNL     1      -1.962  11.591  18.107  0.00  0.00    +0.000 A 
ATOM     26  C   UNL     1      -1.588  10.416  17.461  0.00  0.00    +0.000 A 
ATOM     27  C   UNL     1      -0.404   9.771  17.832  0.00  0.00    +0.000 A 
ATOM     28  F   UNL     1      -0.054   8.657  17.174  0.00  0.00    +0.000 F 
ENDBRANCH  20  21
ENDBRANCH   3  20
TORSDOF 4
ENDMDL
