MODEL 1
REMARK VINA RESULT:      -9.0      0.000      0.000
REMARK  Name = 
REMARK  2 active torsions:
REMARK  status: ('A' for Active; 'I' for Inactive)
REMARK    1  A    between atoms: N_5  and  C_6
REMARK    2  A    between atoms: N_20  and  C_21
REMARK                            x       y       z     vdW  Elec       q    Type
REMARK                         _______ _______ _______ _____ _____    ______ ____
ROOT
ATOM      1  O   UNL     1       1.121   2.575  20.843  0.00  0.00    +0.000 OA
ATOM      2  C   UNL     1       1.688   3.615  20.535  0.00  0.00    +0.000 A 
ATOM      3  N   UNL     1       1.132   4.861  20.725  0.00  0.00    +0.000 N 
ATOM      4  C   UNL     1       1.784   6.055  20.496  0.00  0.00    +0.000 A 
ATOM      5  N   UNL     1       1.005   7.135  20.800  0.00  0.00    +0.000 N 
ATOM      6  N   UNL     1       3.001   6.123  20.037  0.00  0.00    +0.000 NA
ATOM      7  C   UNL     1       3.566   4.914  19.736  0.00  0.00    +0.000 A 
ATOM      8  C   UNL     1       2.985   3.685  19.945  0.00  0.00    +0.000 A 
ATOM      9  C   UNL     1       3.877   2.732  19.472  0.00  0.00    +0.000 A 
ATOM     10  N   UNL     1       4.969   3.294  18.956  0.00  0.00    +0.000 NA
ATOM     11  N   UNL     1       4.792   4.648  19.119  0.00  0.00    +0.000 N 
ATOM     12  H   UNL     1       0.235   4.876  21.183  0.00  0.00    +0.000 HD
ATOM     13  H   UNL     1       0.105   7.108  20.343  0.00  0.00    +0.000 HD
ENDROOT
BRANCH   5  14
ATOM     14  C   UNL     1       1.529   8.488  20.910  0.00  0.00    +0.000 C 
ATOM     15  C   UNL     1       1.323   9.080  22.320  0.00  0.00    +0.000 C 
ATOM     16  O   UNL     1       0.726  10.400  22.231  0.00  0.00    +0.000 OA
ATOM     17  C   UNL     1       0.309  10.504  20.933  0.00  0.00    +0.000 A 
ATOM     18  C   UNL     1      -0.412  11.576  20.443  0.00  0.00    +0.000 A 
ATOM     19  C   UNL     1      -0.765  11.571  19.093  0.00  0.00    +0.000 A 
ATOM     20  C   UNL     1      -0.397  10.497  18.270  0.00  0.00    +0.000 A 
ATOM     21  C   UNL     1       0.342   9.425  18.783  0.00  0.00    +0.000 A 
ATOM     22  C   UNL     1       0.694   9.445  20.126  0.00  0.00    +0.000 A 
ENDBRANCH   5  14
BRANCH  11  23
ATOM     23  C   UNL     1       5.808   5.540  18.662  0.00  0.00    +0.000 A 
ATOM     24  C   UNL     1       5.553   6.355  17.544  0.00  0.00    +0.000 A 
ATOM     25  C   UNL     1       6.530   7.228  17.062  0.00  0.00    +0.000 A 
ATOM     26  C   UNL     1       7.771   7.294  17.685  0.00  0.00    +0.000 A 
ATOM     27  C   UNL     1       8.032   6.491  18.794  0.00  0.00    +0.000 A 
ATOM     28  C   UNL     1       7.059   5.616  19.285  0.00  0.00    +0.000 A 
ENDBRANCH  11  23
TORSDOF 2
ENDMDL
MODEL 2
REMARK VINA RESULT:      -8.0      2.279      7.664
REMARK  Name = 
REMARK  2 active torsions:
REMARK  status: ('A' for Active; 'I' for Inactive)
REMARK    1  A    between atoms: N_5  and  C_6
REMARK    2  A    between atoms: N_20  and  C_21
REMARK                            x       y       z     vdW  Elec       q    Type
REMARK                         _______ _______ _______ _____ _____    ______ ____
ROOT
ATOM      1  O   UNL     1       1.460   9.541  23.709  0.00  0.00    +0.000 OA
ATOM      2  C   UNL     1       1.214   9.318  22.530  0.00  0.00    +0.000 A 
ATOM      3  N   UNL     1       1.869   8.356  21.794  0.00  0.00    +0.000 N 
ATOM      4  C   UNL     1       1.544   8.000  20.501  0.00  0.00    +0.000 A 
ATOM      5  N   UNL     1       2.337   6.993  20.028  0.00  0.00    +0.000 N 
ATOM      6  N   UNL     1       0.589   8.574  19.826  0.00  0.00    +0.000 NA
ATOM      7  C   UNL     1      -0.028   9.607  20.475  0.00  0.00    +0.000 A 
ATOM      8  C   UNL     1       0.232  10.012  21.763  0.00  0.00    +0.000 A 
ATOM      9  C   UNL     1      -0.586  11.105  22.015  0.00  0.00    +0.000 A 
ATOM     10  N   UNL     1      -1.323  11.423  20.952  0.00  0.00    +0.000 NA
ATOM     11  N   UNL     1      -0.992  10.496  19.991  0.00  0.00    +0.000 N 
ATOM     12  H   UNL     1       2.541   7.800  22.297  0.00  0.00    +0.000 HD
ATOM     13  H   UNL     1       3.322   7.196  20.122  0.00  0.00    +0.000 HD
ENDROOT
BRANCH   5  14
ATOM     14  C   UNL     1       2.039   6.250  18.813  0.00  0.00    +0.000 C 
ATOM     15  C   UNL     1       1.787   4.754  19.092  0.00  0.00    +0.000 C 
ATOM     16  O   UNL     1       2.580   3.933  18.195  0.00  0.00    +0.000 OA
ATOM     17  C   UNL     1       3.469   4.802  17.627  0.00  0.00    +0.000 A 
ATOM     18  C   UNL     1       4.487   4.410  16.779  0.00  0.00    +0.000 A 
ATOM     19  C   UNL     1       5.321   5.397  16.251  0.00  0.00    +0.000 A 
ATOM     20  C   UNL     1       5.124   6.744  16.587  0.00  0.00    +0.000 A 
ATOM     21  C   UNL     1       4.081   7.121  17.440  0.00  0.00    +0.000 A 
ATOM     22  C   UNL     1       3.253   6.131  17.954  0.00  0.00    +0.000 A 
ENDBRANCH   5  14
BRANCH  11  23
ATOM     23  C   UNL     1      -1.624  10.566  18.714  0.00  0.00    +0.000 A 
ATOM     24  C   UNL     1      -2.708  11.444  18.531  0.00  0.00    +0.000 A 
ATOM     25  C   UNL     1      -3.359  11.526  17.299  0.00  0.00    +0.000 A 
ATOM     26  C   UNL     1      -2.940  10.731  16.239  0.00  0.00    +0.000 A 
ATOM     27  C   UNL     1      -1.866   9.859  16.409  0.00  0.00    +0.000 A 
ATOM     28  C   UNL     1      -1.207   9.772  17.639  0.00  0.00    +0.000 A 
ENDBRANCH  11  23
TORSDOF 2
ENDMDL
MODEL 3
REMARK VINA RESULT:      -7.6      2.540      6.379
REMARK  Name = 
REMARK  2 active torsions:
REMARK  status: ('A' for Active; 'I' for Inactive)
REMARK    1  A    between atoms: N_5  and  C_6
REMARK    2  A    between atoms: N_20  and  C_21
REMARK                            x       y       z     vdW  Elec       q    Type
REMARK                         _______ _______ _______ _____ _____    ______ ____
ROOT
ATOM      1  O   UNL     1       3.813   1.593  20.912  0.00  0.00    +0.000 OA
ATOM      2  C   UNL     1       4.031   2.683  20.401  0.00  0.00    +0.000 A 
ATOM      3  N   UNL     1       5.222   3.000  19.784  0.00  0.00    +0.000 N 
ATOM      4  C   UNL     1       5.463   4.173  19.099  0.00  0.00    +0.000 A 
ATOM      5  N   UNL     1       6.717   4.207  18.559  0.00  0.00    +0.000 N 
ATOM      6  N   UNL     1       4.583   5.129  18.996  0.00  0.00    +0.000 NA
ATOM      7  C   UNL     1       3.418   4.907  19.676  0.00  0.00    +0.000 A 
ATOM      8  C   UNL     1       3.100   3.763  20.370  0.00  0.00    +0.000 A 
ATOM      9  C   UNL     1       1.848   3.968  20.933  0.00  0.00    +0.000 A 
ATOM     10  N   UNL     1       1.376   5.181  20.655  0.00  0.00    +0.000 NA
ATOM     11  N   UNL     1       2.337   5.774  19.869  0.00  0.00    +0.000 N 
ATOM     12  H   UNL     1       5.900   2.258  19.733  0.00  0.00    +0.000 HD
ATOM     13  H   UNL     1       7.440   4.016  19.239  0.00  0.00    +0.000 HD
ENDROOT
BRANCH   5  14
ATOM     14  C   UNL     1       7.132   5.193  17.572  0.00  0.00    +0.000 C 
ATOM     15  C   UNL     1       6.474   6.568  17.810  0.00  0.00    +0.000 C 
ATOM     16  O   UNL     1       5.888   7.067  16.580  0.00  0.00    +0.000 OA
ATOM     17  C   UNL     1       5.895   5.993  15.733  0.00  0.00    +0.000 A 
ATOM     18  C   UNL     1       5.326   6.005  14.475  0.00  0.00    +0.000 A 
ATOM     19  C   UNL     1       5.414   4.848  13.700  0.00  0.00    +0.000 A 
ATOM     20  C   UNL     1       6.059   3.708  14.202  0.00  0.00    +0.000 A 
ATOM     21  C   UNL     1       6.638   3.719  15.476  0.00  0.00    +0.000 A 
ATOM     22  C   UNL     1       6.550   4.879  16.234  0.00  0.00    +0.000 A 
ENDBRANCH   5  14
BRANCH  11  23
ATOM     23  C   UNL     1       2.124   7.102  19.396  0.00  0.00    +0.000 A 
ATOM     24  C   UNL     1       1.514   8.044  20.245  0.00  0.00    +0.000 A 
ATOM     25  C   UNL     1       1.277   9.349  19.808  0.00  0.00    +0.000 A 
ATOM     26  C   UNL     1       1.640   9.726  18.520  0.00  0.00    +0.000 A 
ATOM     27  C   UNL     1       2.246   8.801  17.672  0.00  0.00    +0.000 A 
ATOM     28  C   UNL     1       2.489   7.493  18.102  0.00  0.00    +0.000 A 
ENDBRANCH  11  23
TORSDOF 2
ENDMDL
MODEL 4
REMARK VINA RESULT:      -7.6      1.098      1.483
REMARK  Name = 
REMARK  2 active torsions:
REMARK  status: ('A' for Active; 'I' for Inactive)
REMARK    1  A    between atoms: N_5  and  C_6
REMARK    2  A    between atoms: N_20  and  C_21
REMARK                            x       y       z     vdW  Elec       q    Type
REMARK                         _______ _______ _______ _____ _____    ______ ____
ROOT
ATOM      1  O   UNL     1       0.381   2.156  19.702  0.00  0.00    +0.000 OA
ATOM      2  C   UNL     1       1.082   3.158  19.639  0.00  0.00    +0.000 A 
ATOM      3  N   UNL     1       0.678   4.390  20.105  0.00  0.00    +0.000 N 
ATOM      4  C   UNL     1       1.480   5.512  20.154  0.00  0.00    +0.000 A 
ATOM      5  N   UNL     1       0.831   6.586  20.694  0.00  0.00    +0.000 N 
ATOM      6  N   UNL     1       2.709   5.526  19.724  0.00  0.00    +0.000 NA
ATOM      7  C   UNL     1       3.129   4.353  19.158  0.00  0.00    +0.000 A 
ATOM      8  C   UNL     1       2.395   3.193  19.082  0.00  0.00    +0.000 A 
ATOM      9  C   UNL     1       3.177   2.265  18.407  0.00  0.00    +0.000 A 
ATOM     10  N   UNL     1       4.345   2.785  18.033  0.00  0.00    +0.000 NA
ATOM     11  N   UNL     1       4.332   4.079  18.499  0.00  0.00    +0.000 N 
ATOM     12  H   UNL     1      -0.223   4.415  20.553  0.00  0.00    +0.000 HD
ATOM     13  H   UNL     1      -0.051   6.777  20.241  0.00  0.00    +0.000 HD
ENDROOT
BRANCH   5  14
ATOM     14  C   UNL     1       1.515   7.802  21.109  0.00  0.00    +0.000 C 
ATOM     15  C   UNL     1       0.727   8.574  22.188  0.00  0.00    +0.000 C 
ATOM     16  O   UNL     1       0.604   9.972  21.819  0.00  0.00    +0.000 OA
ATOM     17  C   UNL     1       0.993  10.020  20.509  0.00  0.00    +0.000 A 
ATOM     18  C   UNL     1       0.927  11.160  19.731  0.00  0.00    +0.000 A 
ATOM     19  C   UNL     1       1.369  11.082  18.410  0.00  0.00    +0.000 A 
ATOM     20  C   UNL     1       1.857   9.871  17.897  0.00  0.00    +0.000 A 
ATOM     21  C   UNL     1       1.925   8.730  18.704  0.00  0.00    +0.000 A 
ATOM     22  C   UNL     1       1.488   8.822  20.020  0.00  0.00    +0.000 A 
ENDBRANCH   5  14
BRANCH  11  23
ATOM     23  C   UNL     1       5.463   4.914  18.259  0.00  0.00    +0.000 A 
ATOM     24  C   UNL     1       6.350   5.191  19.316  0.00  0.00    +0.000 A 
ATOM     25  C   UNL     1       7.458   6.016  19.118  0.00  0.00    +0.000 A 
ATOM     26  C   UNL     1       7.691   6.577  17.868  0.00  0.00    +0.000 A 
ATOM     27  C   UNL     1       6.820   6.308  16.814  0.00  0.00    +0.000 A 
ATOM     28  C   UNL     1       5.709   5.481  17.003  0.00  0.00    +0.000 A 
ENDBRANCH  11  23
TORSDOF 2
ENDMDL
MODEL 5
REMARK VINA RESULT:      -7.5      2.423      4.570
REMARK  Name = 
REMARK  2 active torsions:
REMARK  status: ('A' for Active; 'I' for Inactive)
REMARK    1  A    between atoms: N_5  and  C_6
REMARK    2  A    between atoms: N_20  and  C_21
REMARK                            x       y       z     vdW  Elec       q    Type
REMARK                         _______ _______ _______ _____ _____    ______ ____
ROOT
ATOM      1  O   UNL     1       6.068   7.106  16.084  0.00  0.00    +0.000 OA
ATOM      2  C   UNL     1       5.124   6.932  16.844  0.00  0.00    +0.000 A 
ATOM      3  N   UNL     1       4.178   7.900  17.102  0.00  0.00    +0.000 N 
ATOM      4  C   UNL     1       3.042   7.705  17.860  0.00  0.00    +0.000 A 
ATOM      5  N   UNL     1       2.264   8.826  17.922  0.00  0.00    +0.000 N 
ATOM      6  N   UNL     1       2.764   6.575  18.445  0.00  0.00    +0.000 NA
ATOM      7  C   UNL     1       3.722   5.609  18.304  0.00  0.00    +0.000 A 
ATOM      8  C   UNL     1       4.872   5.724  17.558  0.00  0.00    +0.000 A 
ATOM      9  C   UNL     1       5.573   4.536  17.713  0.00  0.00    +0.000 A 
ATOM     10  N   UNL     1       4.944   3.696  18.532  0.00  0.00    +0.000 NA
ATOM     11  N   UNL     1       3.789   4.346  18.901  0.00  0.00    +0.000 N 
ATOM     12  H   UNL     1       4.278   8.760  16.587  0.00  0.00    +0.000 HD
ATOM     13  H   UNL     1       2.778   9.642  18.223  0.00  0.00    +0.000 HD
ENDROOT
BRANCH   5  14
ATOM     14  C   UNL     1       0.896   8.819  18.420  0.00  0.00    +0.000 C 
ATOM     15  C   UNL     1       0.070  10.001  17.871  0.00  0.00    +0.000 C 
ATOM     16  O   UNL     1      -0.609  10.688  18.953  0.00  0.00    +0.000 OA
ATOM     17  C   UNL     1      -0.031  10.196  20.091  0.00  0.00    +0.000 A 
ATOM     18  C   UNL     1      -0.316  10.664  21.359  0.00  0.00    +0.000 A 
ATOM     19  C   UNL     1       0.330  10.068  22.443  0.00  0.00    +0.000 A 
ATOM     20  C   UNL     1       1.248   9.028  22.234  0.00  0.00    +0.000 A 
ATOM     21  C   UNL     1       1.515   8.562  20.942  0.00  0.00    +0.000 A 
ATOM     22  C   UNL     1       0.861   9.158  19.873  0.00  0.00    +0.000 A 
ENDBRANCH   5  14
BRANCH  11  23
ATOM     23  C   UNL     1       2.880   3.696  19.789  0.00  0.00    +0.000 A 
ATOM     24  C   UNL     1       1.501   3.742  19.514  0.00  0.00    +0.000 A 
ATOM     25  C   UNL     1       0.584   3.129  20.370  0.00  0.00    +0.000 A 
ATOM     26  C   UNL     1       1.031   2.470  21.509  0.00  0.00    +0.000 A 
ATOM     27  C   UNL     1       2.395   2.419  21.790  0.00  0.00    +0.000 A 
ATOM     28  C   UNL     1       3.321   3.027  20.937  0.00  0.00    +0.000 A 
ENDBRANCH  11  23
TORSDOF 2
ENDMDL
MODEL 6
REMARK VINA RESULT:      -7.3      0.774      1.030
REMARK  Name = 
REMARK  2 active torsions:
REMARK  status: ('A' for Active; 'I' for Inactive)
REMARK    1  A    between atoms: N_5  and  C_6
REMARK    2  A    between atoms: N_20  and  C_21
REMARK                            x       y       z     vdW  Elec       q    Type
REMARK                         _______ _______ _______ _____ _____    ______ ____
ROOT
ATOM      1  O   UNL     1       1.076   2.471  21.246  0.00  0.00    +0.000 OA
ATOM      2  C   UNL     1       1.623   3.461  20.778  0.00  0.00    +0.000 A 
ATOM      3  N   UNL     1       1.168   4.743  20.990  0.00  0.00    +0.000 N 
ATOM      4  C   UNL     1       1.819   5.887  20.576  0.00  0.00    +0.000 A 
ATOM      5  N   UNL     1       1.159   7.022  20.951  0.00  0.00    +0.000 N 
ATOM      6  N   UNL     1       2.933   5.864  19.901  0.00  0.00    +0.000 NA
ATOM      7  C   UNL     1       3.378   4.612  19.575  0.00  0.00    +0.000 A 
ATOM      8  C   UNL     1       2.791   3.429  19.960  0.00  0.00    +0.000 A 
ATOM      9  C   UNL     1       3.537   2.406  19.391  0.00  0.00    +0.000 A 
ATOM     10  N   UNL     1       4.540   2.879  18.653  0.00  0.00    +0.000 NA
ATOM     11  N   UNL     1       4.457   4.248  18.764  0.00  0.00    +0.000 N 
ATOM     12  H   UNL     1       0.372   4.831  21.601  0.00  0.00    +0.000 HD
ATOM     13  H   UNL     1       0.190   7.021  20.667  0.00  0.00    +0.000 HD
ENDROOT
BRANCH   5  14
ATOM     14  C   UNL     1       1.755   8.348  20.883  0.00  0.00    +0.000 C 
ATOM     15  C   UNL     1       1.603   9.123  22.208  0.00  0.00    +0.000 C 
ATOM     16  O   UNL     1       1.074  10.451  21.959  0.00  0.00    +0.000 OA
ATOM     17  C   UNL     1       0.642  10.413  20.662  0.00  0.00    +0.000 A 
ATOM     18  C   UNL     1      -0.031  11.452  20.047  0.00  0.00    +0.000 A 
ATOM     19  C   UNL     1      -0.406  11.295  18.713  0.00  0.00    +0.000 A 
ATOM     20  C   UNL     1      -0.108  10.107  18.029  0.00  0.00    +0.000 A 
ATOM     21  C   UNL     1       0.583   9.071  18.666  0.00  0.00    +0.000 A 
ATOM     22  C   UNL     1       0.957   9.241  19.992  0.00  0.00    +0.000 A 
ENDBRANCH   5  14
BRANCH  11  23
ATOM     23  C   UNL     1       5.410   5.058  18.078  0.00  0.00    +0.000 A 
ATOM     24  C   UNL     1       6.560   4.455  17.535  0.00  0.00    +0.000 A 
ATOM     25  C   UNL     1       7.520   5.221  16.871  0.00  0.00    +0.000 A 
ATOM     26  C   UNL     1       7.346   6.594  16.745  0.00  0.00    +0.000 A 
ATOM     27  C   UNL     1       6.210   7.201  17.279  0.00  0.00    +0.000 A 
ATOM     28  C   UNL     1       5.243   6.441  17.943  0.00  0.00    +0.000 A 
ENDBRANCH  11  23
TORSDOF 2
ENDMDL
MODEL 7
REMARK VINA RESULT:      -7.2      4.854      7.472
REMARK  Name = 
REMARK  2 active torsions:
REMARK  status: ('A' for Active; 'I' for Inactive)
REMARK    1  A    between atoms: N_5  and  C_6
REMARK    2  A    between atoms: N_20  and  C_21
REMARK                            x       y       z     vdW  Elec       q    Type
REMARK                         _______ _______ _______ _____ _____    ______ ____
ROOT
ATOM      1  O   UNL     1       8.075   6.938  17.022  0.00  0.00    +0.000 OA
ATOM      2  C   UNL     1       7.370   6.021  16.619  0.00  0.00    +0.000 A 
ATOM      3  N   UNL     1       6.567   5.270  17.448  0.00  0.00    +0.000 N 
ATOM      4  C   UNL     1       5.677   4.308  17.017  0.00  0.00    +0.000 A 
ATOM      5  N   UNL     1       4.986   3.743  18.052  0.00  0.00    +0.000 N 
ATOM      6  N   UNL     1       5.531   3.986  15.764  0.00  0.00    +0.000 NA
ATOM      7  C   UNL     1       6.379   4.632  14.906  0.00  0.00    +0.000 A 
ATOM      8  C   UNL     1       7.282   5.608  15.257  0.00  0.00    +0.000 A 
ATOM      9  C   UNL     1       7.957   5.967  14.099  0.00  0.00    +0.000 A 
ATOM     10  N   UNL     1       7.548   5.256  13.050  0.00  0.00    +0.000 NA
ATOM     11  N   UNL     1       6.562   4.428  13.535  0.00  0.00    +0.000 N 
ATOM     12  H   UNL     1       6.551   5.549  18.416  0.00  0.00    +0.000 HD
ATOM     13  H   UNL     1       5.591   3.392  18.780  0.00  0.00    +0.000 HD
ENDROOT
BRANCH   5  14
ATOM     14  C   UNL     1       3.808   2.909  17.861  0.00  0.00    +0.000 C 
ATOM     15  C   UNL     1       2.779   3.562  16.916  0.00  0.00    +0.000 C 
ATOM     16  O   UNL     1       1.457   3.537  17.515  0.00  0.00    +0.000 OA
ATOM     17  C   UNL     1       1.675   3.194  18.820  0.00  0.00    +0.000 A 
ATOM     18  C   UNL     1       0.682   3.157  19.779  0.00  0.00    +0.000 A 
ATOM     19  C   UNL     1       1.031   2.776  21.075  0.00  0.00    +0.000 A 
ATOM     20  C   UNL     1       2.360   2.450  21.383  0.00  0.00    +0.000 A 
ATOM     21  C   UNL     1       3.350   2.484  20.395  0.00  0.00    +0.000 A 
ATOM     22  C   UNL     1       2.989   2.858  19.107  0.00  0.00    +0.000 A 
ENDBRANCH   5  14
BRANCH  11  23
ATOM     23  C   UNL     1       5.911   3.527  12.641  0.00  0.00    +0.000 A 
ATOM     24  C   UNL     1       6.617   2.411  12.156  0.00  0.00    +0.000 A 
ATOM     25  C   UNL     1       6.014   1.518  11.267  0.00  0.00    +0.000 A 
ATOM     26  C   UNL     1       4.705   1.731  10.851  0.00  0.00    +0.000 A 
ATOM     27  C   UNL     1       3.997   2.833  11.327  0.00  0.00    +0.000 A 
ATOM     28  C   UNL     1       4.592   3.731  12.218  0.00  0.00    +0.000 A 
ENDBRANCH  11  23
TORSDOF 2
ENDMDL
MODEL 8
REMARK VINA RESULT:      -7.0      6.922      9.602
REMARK  Name = 
REMARK  2 active torsions:
REMARK  status: ('A' for Active; 'I' for Inactive)
REMARK    1  A    between atoms: N_5  and  C_6
REMARK    2  A    between atoms: N_20  and  C_21
REMARK                            x       y       z     vdW  Elec       q    Type
REMARK                         _______ _______ _______ _____ _____    ______ ____
ROOT
ATOM      1  O   UNL     1      -7.074  13.199  22.269  0.00  0.00    +0.000 OA
ATOM      2  C   UNL     1      -6.064  13.021  21.602  0.00  0.00    +0.000 A 
ATOM      3  N   UNL     1      -4.822  13.484  21.979  0.00  0.00    +0.000 N 
ATOM      4  C   UNL     1      -3.646  13.207  21.314  0.00  0.00    +0.000 A 
ATOM      5  N   UNL     1      -2.561  13.767  21.927  0.00  0.00    +0.000 N 
ATOM      6  N   UNL     1      -3.597  12.495  20.224  0.00  0.00    +0.000 NA
ATOM      7  C   UNL     1      -4.815  12.093  19.749  0.00  0.00    +0.000 A 
ATOM      8  C   UNL     1      -6.026  12.320  20.360  0.00  0.00    +0.000 A 
ATOM      9  C   UNL     1      -7.002  11.779  19.534  0.00  0.00    +0.000 A 
ATOM     10  N   UNL     1      -6.475  11.251  18.431  0.00  0.00    +0.000 NA
ATOM     11  N   UNL     1      -5.117  11.432  18.555  0.00  0.00    +0.000 N 
ATOM     12  H   UNL     1      -4.779  13.945  22.873  0.00  0.00    +0.000 HD
ATOM     13  H   UNL     1      -2.674  14.758  22.090  0.00  0.00    +0.000 HD
ENDROOT
BRANCH   5  14
ATOM     14  C   UNL     1      -1.189  13.413  21.597  0.00  0.00    +0.000 C 
ATOM     15  C   UNL     1      -0.932  13.434  20.076  0.00  0.00    +0.000 C 
ATOM     16  O   UNL     1      -0.284  12.205  19.657  0.00  0.00    +0.000 OA
ATOM     17  C   UNL     1      -0.402  11.368  20.731  0.00  0.00    +0.000 A 
ATOM     18  C   UNL     1      -0.005  10.044  20.719  0.00  0.00    +0.000 A 
ATOM     19  C   UNL     1      -0.165   9.298  21.887  0.00  0.00    +0.000 A 
ATOM     20  C   UNL     1      -0.722   9.886  23.032  0.00  0.00    +0.000 A 
ATOM     21  C   UNL     1      -1.109  11.231  23.027  0.00  0.00    +0.000 A 
ATOM     22  C   UNL     1      -0.938  11.965  21.861  0.00  0.00    +0.000 A 
ENDBRANCH   5  14
BRANCH  11  23
ATOM     23  C   UNL     1      -4.257  10.964  17.517  0.00  0.00    +0.000 A 
ATOM     24  C   UNL     1      -3.166  10.140  17.850  0.00  0.00    +0.000 A 
ATOM     25  C   UNL     1      -2.296   9.676  16.861  0.00  0.00    +0.000 A 
ATOM     26  C   UNL     1      -2.502  10.033  15.533  0.00  0.00    +0.000 A 
ATOM     27  C   UNL     1      -3.580  10.847  15.193  0.00  0.00    +0.000 A 
ATOM     28  C   UNL     1      -4.457  11.314  16.177  0.00  0.00    +0.000 A 
ENDBRANCH  11  23
TORSDOF 2
ENDMDL
MODEL 9
REMARK VINA RESULT:      -6.9      5.175     10.260
REMARK  Name = 
REMARK  2 active torsions:
REMARK  status: ('A' for Active; 'I' for Inactive)
REMARK    1  A    between atoms: N_5  and  C_6
REMARK    2  A    between atoms: N_20  and  C_21
REMARK                            x       y       z     vdW  Elec       q    Type
REMARK                         _______ _______ _______ _____ _____    ______ ____
ROOT
ATOM      1  O   UNL     1      -1.919  15.497  24.158  0.00  0.00    +0.000 OA
ATOM      2  C   UNL     1      -2.137  14.543  23.423  0.00  0.00    +0.000 A 
ATOM      3  N   UNL     1      -1.223  13.536  23.205  0.00  0.00    +0.000 N 
ATOM      4  C   UNL     1      -1.474  12.392  22.475  0.00  0.00    +0.000 A 
ATOM      5  N   UNL     1      -0.400  11.549  22.451  0.00  0.00    +0.000 N 
ATOM      6  N   UNL     1      -2.611  12.164  21.881  0.00  0.00    +0.000 NA
ATOM      7  C   UNL     1      -3.521  13.180  21.982  0.00  0.00    +0.000 A 
ATOM      8  C   UNL     1      -3.349  14.341  22.698  0.00  0.00    +0.000 A 
ATOM      9  C   UNL     1      -4.491  15.106  22.505  0.00  0.00    +0.000 A 
ATOM     10  N   UNL     1      -5.356  14.504  21.692  0.00  0.00    +0.000 NA
ATOM     11  N   UNL     1      -4.769  13.303  21.364  0.00  0.00    +0.000 N 
ATOM     12  H   UNL     1      -0.366  13.600  23.730  0.00  0.00    +0.000 HD
ATOM     13  H   UNL     1       0.448  12.006  22.148  0.00  0.00    +0.000 HD
ENDROOT
BRANCH   5  14
ATOM     14  C   UNL     1      -0.480  10.171  21.991  0.00  0.00    +0.000 C 
ATOM     15  C   UNL     1       0.533   9.256  22.710  0.00  0.00    +0.000 C 
ATOM     16  O   UNL     1       1.281   8.474  21.745  0.00  0.00    +0.000 OA
ATOM     17  C   UNL     1       1.000   9.052  20.538  0.00  0.00    +0.000 A 
ATOM     18  C   UNL     1       1.596   8.676  19.350  0.00  0.00    +0.000 A 
ATOM     19  C   UNL     1       1.211   9.336  18.182  0.00  0.00    +0.000 A 
ATOM     20  C   UNL     1       0.250  10.356  18.230  0.00  0.00    +0.000 A 
ATOM     21  C   UNL     1      -0.349  10.716  19.442  0.00  0.00    +0.000 A 
ATOM     22  C   UNL     1       0.037  10.048  20.596  0.00  0.00    +0.000 A 
ENDBRANCH   5  14
BRANCH  11  23
ATOM     23  C   UNL     1      -5.459  12.409  20.492  0.00  0.00    +0.000 A 
ATOM     24  C   UNL     1      -4.924  12.143  19.218  0.00  0.00    +0.000 A 
ATOM     25  C   UNL     1      -5.582  11.285  18.334  0.00  0.00    +0.000 A 
ATOM     26  C   UNL     1      -6.780  10.688  18.709  0.00  0.00    +0.000 A 
ATOM     27  C   UNL     1      -7.317  10.944  19.969  0.00  0.00    +0.000 A 
ATOM     28  C   UNL     1      -6.664  11.800  20.861  0.00  0.00    +0.000 A 
ENDBRANCH  11  23
TORSDOF 2
ENDMDL
