MODEL 1
REMARK VINA RESULT:      -8.9      0.000      0.000
REMARK  Name = 
REMARK  4 active torsions:
REMARK  status: ('A' for Active; 'I' for Inactive)
REMARK    1  A    between atoms: C_1  and  C_2
REMARK    2  A    between atoms: C_5  and  C_6
REMARK    3  A    between atoms: C_13  and  C_14
REMARK    4  A    between atoms: C_20  and  C_21
REMARK                            x       y       z     vdW  Elec       q    Type
REMARK                         _______ _______ _______ _____ _____    ______ ____
ROOT
ATOM      1  C   UNL     1       2.458   5.369  19.501  0.00  0.00    +0.000 C 
ATOM      2  O   UNL     1       1.803   5.078  20.496  0.00  0.00    +0.000 OA
ATOM      3  N   UNL     1       2.634   6.657  19.030  0.00  0.00    +0.000 N 
ATOM      4  C   UNL     1       2.034   7.762  19.643  0.00  0.00    +0.000 A 
ATOM      5  C   UNL     1       1.991   7.898  21.022  0.00  0.00    +0.000 A 
ATOM      6  C   UNL     1       1.301   8.976  21.576  0.00  0.00    +0.000 A 
ATOM      7  C   UNL     1       0.626   9.888  20.758  0.00  0.00    +0.000 A 
ATOM      8  C   UNL     1       0.787   9.686  19.384  0.00  0.00    +0.000 A 
ATOM      9  N   UNL     1       1.498   8.671  18.810  0.00  0.00    +0.000 NA
ATOM     10  H   UNL     1       2.791   6.781  18.038  0.00  0.00    +0.000 HD
ENDROOT
BRANCH   1  16
ATOM     11  C   UNL     1       1.094   2.557  18.458  0.00  0.00    +0.000 C 
ATOM     12  C   UNL     1       2.416   3.176  18.244  0.00  0.00    +0.000 A 
ATOM     13  O   UNL     1       3.253   2.498  17.424  0.00  0.00    +0.000 OA
ATOM     14  N   UNL     1       4.443   3.172  17.316  0.00  0.00    +0.000 NA
ATOM     15  C   UNL     1       4.326   4.298  18.040  0.00  0.00    +0.000 A 
ATOM     16  C   UNL     1       3.033   4.336  18.666  0.00  0.00    +0.000 A 
BRANCH  15  17
ATOM     17  C   UNL     1       5.471   5.211  18.193  0.00  0.00    +0.000 A 
ATOM     18  C   UNL     1       6.333   5.035  19.293  0.00  0.00    +0.000 A 
ATOM     19  C   UNL     1       7.477   5.822  19.456  0.00  0.00    +0.000 A 
ATOM     20  C   UNL     1       7.797   6.790  18.512  0.00  0.00    +0.000 A 
ATOM     21  C   UNL     1       6.961   6.983  17.415  0.00  0.00    +0.000 A 
ATOM     22  C   UNL     1       5.799   6.211  17.256  0.00  0.00    +0.000 A 
ATOM     23 CL   UNL     1       4.815   6.601  15.884  0.00  0.00    +0.000 Cl
ENDBRANCH  15  17
ENDBRANCH   1  16
BRANCH   7  24
ATOM     24  C   UNL     1      -0.202  10.987  21.295  0.00  0.00    +0.000 A 
ATOM     25  C   UNL     1      -0.679  11.002  22.609  0.00  0.00    +0.000 A 
ATOM     26  C   UNL     1      -1.455  12.071  23.050  0.00  0.00    +0.000 A 
ATOM     27  C   UNL     1      -1.743  13.109  22.173  0.00  0.00    +0.000 A 
ATOM     28  C   UNL     1      -1.250  13.016  20.884  0.00  0.00    +0.000 A 
ATOM     29  N   UNL     1      -0.496  11.988  20.432  0.00  0.00    +0.000 NA
ENDBRANCH   7  24
TORSDOF 3
ENDMDL
MODEL 2
REMARK VINA RESULT:      -8.7      0.965      1.425
REMARK  Name = 
REMARK  4 active torsions:
REMARK  status: ('A' for Active; 'I' for Inactive)
REMARK    1  A    between atoms: C_1  and  C_2
REMARK    2  A    between atoms: C_5  and  C_6
REMARK    3  A    between atoms: C_13  and  C_14
REMARK    4  A    between atoms: C_20  and  C_21
REMARK                            x       y       z     vdW  Elec       q    Type
REMARK                         _______ _______ _______ _____ _____    ______ ____
ROOT
ATOM      1  C   UNL     1       2.295   5.235  19.142  0.00  0.00    +0.000 C 
ATOM      2  O   UNL     1       1.447   5.150  20.024  0.00  0.00    +0.000 OA
ATOM      3  N   UNL     1       2.692   6.420  18.550  0.00  0.00    +0.000 N 
ATOM      4  C   UNL     1       2.120   7.650  18.889  0.00  0.00    +0.000 A 
ATOM      5  C   UNL     1       1.850   7.992  20.206  0.00  0.00    +0.000 A 
ATOM      6  C   UNL     1       1.195   9.193  20.473  0.00  0.00    +0.000 A 
ATOM      7  C   UNL     1       0.780  10.029  19.430  0.00  0.00    +0.000 A 
ATOM      8  C   UNL     1       1.158   9.613  18.151  0.00  0.00    +0.000 A 
ATOM      9  N   UNL     1       1.843   8.467  17.859  0.00  0.00    +0.000 NA
ATOM     10  H   UNL     1       3.035   6.382  17.599  0.00  0.00    +0.000 HD
ENDROOT
BRANCH   1  16
ATOM     11  C   UNL     1       0.922   2.286  18.616  0.00  0.00    +0.000 C 
ATOM     12  C   UNL     1       2.269   2.831  18.361  0.00  0.00    +0.000 A 
ATOM     13  O   UNL     1       3.135   1.988  17.749  0.00  0.00    +0.000 OA
ATOM     14  N   UNL     1       4.346   2.610  17.578  0.00  0.00    +0.000 NA
ATOM     15  C   UNL     1       4.216   3.862  18.048  0.00  0.00    +0.000 A 
ATOM     16  C   UNL     1       2.890   4.045  18.573  0.00  0.00    +0.000 A 
BRANCH  15  17
ATOM     17  C   UNL     1       5.373   4.772  18.080  0.00  0.00    +0.000 A 
ATOM     18  C   UNL     1       6.054   4.956  19.299  0.00  0.00    +0.000 A 
ATOM     19  C   UNL     1       7.202   5.750  19.381  0.00  0.00    +0.000 A 
ATOM     20  C   UNL     1       7.708   6.363  18.241  0.00  0.00    +0.000 A 
ATOM     21  C   UNL     1       7.052   6.196  17.023  0.00  0.00    +0.000 A 
ATOM     22  C   UNL     1       5.887   5.418  16.938  0.00  0.00    +0.000 A 
ATOM     23 CL   UNL     1       5.137   5.350  15.378  0.00  0.00    +0.000 Cl
ENDBRANCH  15  17
ENDBRANCH   1  16
BRANCH   7  24
ATOM     24  C   UNL     1      -0.002  11.261  19.654  0.00  0.00    +0.000 A 
ATOM     25  C   UNL     1       0.043  12.355  18.787  0.00  0.00    +0.000 A 
ATOM     26  C   UNL     1      -0.723  13.486  19.060  0.00  0.00    +0.000 A 
ATOM     27  C   UNL     1      -1.522  13.507  20.195  0.00  0.00    +0.000 A 
ATOM     28  C   UNL     1      -1.502  12.394  21.016  0.00  0.00    +0.000 A 
ATOM     29  N   UNL     1      -0.767  11.285  20.772  0.00  0.00    +0.000 NA
ENDBRANCH   7  24
TORSDOF 3
ENDMDL
MODEL 3
REMARK VINA RESULT:      -8.7      2.012      3.968
REMARK  Name = 
REMARK  4 active torsions:
REMARK  status: ('A' for Active; 'I' for Inactive)
REMARK    1  A    between atoms: C_1  and  C_2
REMARK    2  A    between atoms: C_5  and  C_6
REMARK    3  A    between atoms: C_13  and  C_14
REMARK    4  A    between atoms: C_20  and  C_21
REMARK                            x       y       z     vdW  Elec       q    Type
REMARK                         _______ _______ _______ _____ _____    ______ ____
ROOT
ATOM      1  C   UNL     1       4.019   6.682  18.295  0.00  0.00    +0.000 C 
ATOM      2  O   UNL     1       4.339   7.549  17.489  0.00  0.00    +0.000 OA
ATOM      3  N   UNL     1       2.915   6.753  19.123  0.00  0.00    +0.000 N 
ATOM      4  C   UNL     1       2.067   7.865  19.140  0.00  0.00    +0.000 A 
ATOM      5  C   UNL     1       1.668   8.496  17.972  0.00  0.00    +0.000 A 
ATOM      6  C   UNL     1       0.896   9.654  18.057  0.00  0.00    +0.000 A 
ATOM      7  C   UNL     1       0.559  10.199  19.301  0.00  0.00    +0.000 A 
ATOM      8  C   UNL     1       0.965   9.447  20.407  0.00  0.00    +0.000 A 
ATOM      9  N   UNL     1       1.677   8.283  20.356  0.00  0.00    +0.000 NA
ATOM     10  H   UNL     1       2.953   6.261  20.007  0.00  0.00    +0.000 HD
ENDROOT
BRANCH   1  16
ATOM     11  C   UNL     1       7.240   6.331  17.693  0.00  0.00    +0.000 C 
ATOM     12  C   UNL     1       6.215   5.429  18.251  0.00  0.00    +0.000 A 
ATOM     13  O   UNL     1       6.659   4.212  18.645  0.00  0.00    +0.000 OA
ATOM     14  N   UNL     1       5.612   3.472  19.135  0.00  0.00    +0.000 NA
ATOM     15  C   UNL     1       4.520   4.253  19.083  0.00  0.00    +0.000 A 
ATOM     16  C   UNL     1       4.862   5.525  18.508  0.00  0.00    +0.000 A 
BRANCH  15  17
ATOM     17  C   UNL     1       3.202   3.720  19.469  0.00  0.00    +0.000 A 
ATOM     18  C   UNL     1       2.851   3.708  20.833  0.00  0.00    +0.000 A 
ATOM     19  C   UNL     1       1.588   3.282  21.257  0.00  0.00    +0.000 A 
ATOM     20  C   UNL     1       0.640   2.878  20.326  0.00  0.00    +0.000 A 
ATOM     21  C   UNL     1       0.964   2.880  18.971  0.00  0.00    +0.000 A 
ATOM     22  C   UNL     1       2.237   3.286  18.539  0.00  0.00    +0.000 A 
ATOM     23 CL   UNL     1       2.526   3.177  16.834  0.00  0.00    +0.000 Cl
ENDBRANCH  15  17
ENDBRANCH   1  16
BRANCH   7  24
ATOM     24  C   UNL     1      -0.170  11.475  19.446  0.00  0.00    +0.000 A 
ATOM     25  C   UNL     1       0.196  12.638  18.763  0.00  0.00    +0.000 A 
ATOM     26  C   UNL     1      -0.537  13.807  18.947  0.00  0.00    +0.000 A 
ATOM     27  C   UNL     1      -1.624  13.799  19.811  0.00  0.00    +0.000 A 
ATOM     28  C   UNL     1      -1.915  12.615  20.466  0.00  0.00    +0.000 A 
ATOM     29  N   UNL     1      -1.219  11.467  20.304  0.00  0.00    +0.000 NA
ENDBRANCH   7  24
TORSDOF 3
ENDMDL
MODEL 4
REMARK VINA RESULT:      -8.3      1.961      3.685
REMARK  Name = 
REMARK  4 active torsions:
REMARK  status: ('A' for Active; 'I' for Inactive)
REMARK    1  A    between atoms: C_1  and  C_2
REMARK    2  A    between atoms: C_5  and  C_6
REMARK    3  A    between atoms: C_13  and  C_14
REMARK    4  A    between atoms: C_20  and  C_21
REMARK                            x       y       z     vdW  Elec       q    Type
REMARK                         _______ _______ _______ _____ _____    ______ ____
ROOT
ATOM      1  C   UNL     1       3.348   7.056  18.647  0.00  0.00    +0.000 C 
ATOM      2  O   UNL     1       3.363   8.056  17.938  0.00  0.00    +0.000 OA
ATOM      3  N   UNL     1       2.596   6.924  19.800  0.00  0.00    +0.000 N 
ATOM      4  C   UNL     1       1.796   7.962  20.289  0.00  0.00    +0.000 A 
ATOM      5  C   UNL     1       1.012   8.738  19.448  0.00  0.00    +0.000 A 
ATOM      6  C   UNL     1       0.306   9.815  19.982  0.00  0.00    +0.000 A 
ATOM      7  C   UNL     1       0.413  10.137  21.340  0.00  0.00    +0.000 A 
ATOM      8  C   UNL     1       1.183   9.252  22.101  0.00  0.00    +0.000 A 
ATOM      9  N   UNL     1       1.845   8.160  21.617  0.00  0.00    +0.000 NA
ATOM     10  H   UNL     1       2.941   6.306  20.522  0.00  0.00    +0.000 HD
ENDROOT
BRANCH   1  16
ATOM     11  C   UNL     1       6.154   7.013  16.921  0.00  0.00    +0.000 C 
ATOM     12  C   UNL     1       5.400   5.972  17.644  0.00  0.00    +0.000 A 
ATOM     13  O   UNL     1       5.967   4.742  17.658  0.00  0.00    +0.000 OA
ATOM     14  N   UNL     1       5.167   3.870  18.353  0.00  0.00    +0.000 NA
ATOM     15  C   UNL     1       4.119   4.575  18.809  0.00  0.00    +0.000 A 
ATOM     16  C   UNL     1       4.224   5.938  18.365  0.00  0.00    +0.000 A 
BRANCH  15  17
ATOM     17  C   UNL     1       3.027   3.905  19.535  0.00  0.00    +0.000 A 
ATOM     18  C   UNL     1       3.264   3.456  20.848  0.00  0.00    +0.000 A 
ATOM     19  C   UNL     1       2.249   2.876  21.616  0.00  0.00    +0.000 A 
ATOM     20  C   UNL     1       0.967   2.752  21.095  0.00  0.00    +0.000 A 
ATOM     21  C   UNL     1       0.707   3.189  19.798  0.00  0.00    +0.000 A 
ATOM     22  C   UNL     1       1.726   3.752  19.014  0.00  0.00    +0.000 A 
ATOM     23 CL   UNL     1       1.281   4.191  17.398  0.00  0.00    +0.000 Cl
ENDBRANCH  15  17
ENDBRANCH   1  16
BRANCH   7  24
ATOM     24  C   UNL     1      -0.233  11.324  21.935  0.00  0.00    +0.000 A 
ATOM     25  C   UNL     1      -1.369  11.242  22.743  0.00  0.00    +0.000 A 
ATOM     26  C   UNL     1      -1.926  12.404  23.272  0.00  0.00    +0.000 A 
ATOM     27  C   UNL     1      -1.341  13.630  22.985  0.00  0.00    +0.000 A 
ATOM     28  C   UNL     1      -0.228  13.634  22.163  0.00  0.00    +0.000 A 
ATOM     29  N   UNL     1       0.331  12.520  21.637  0.00  0.00    +0.000 NA
ENDBRANCH   7  24
TORSDOF 3
ENDMDL
MODEL 5
REMARK VINA RESULT:      -8.3      2.360      3.095
REMARK  Name = 
REMARK  4 active torsions:
REMARK  status: ('A' for Active; 'I' for Inactive)
REMARK    1  A    between atoms: C_1  and  C_2
REMARK    2  A    between atoms: C_5  and  C_6
REMARK    3  A    between atoms: C_13  and  C_14
REMARK    4  A    between atoms: C_20  and  C_21
REMARK                            x       y       z     vdW  Elec       q    Type
REMARK                         _______ _______ _______ _____ _____    ______ ____
ROOT
ATOM      1  C   UNL     1       3.356   6.398  18.606  0.00  0.00    +0.000 C 
ATOM      2  O   UNL     1       4.168   7.065  17.974  0.00  0.00    +0.000 OA
ATOM      3  N   UNL     1       2.177   6.894  19.132  0.00  0.00    +0.000 N 
ATOM      4  C   UNL     1       1.820   8.241  19.018  0.00  0.00    +0.000 A 
ATOM      5  C   UNL     1       1.999   8.947  17.838  0.00  0.00    +0.000 A 
ATOM      6  C   UNL     1       1.708  10.310  17.813  0.00  0.00    +0.000 A 
ATOM      7  C   UNL     1       1.279  10.971  18.969  0.00  0.00    +0.000 A 
ATOM      8  C   UNL     1       1.079  10.149  20.082  0.00  0.00    +0.000 A 
ATOM      9  N   UNL     1       1.305   8.803  20.125  0.00  0.00    +0.000 NA
ATOM     10  H   UNL     1       1.801   6.444  19.957  0.00  0.00    +0.000 HD
ENDROOT
BRANCH   1  16
ATOM     11  C   UNL     1       2.167   4.591  21.091  0.00  0.00    +0.000 C 
ATOM     12  C   UNL     1       3.098   4.296  19.986  0.00  0.00    +0.000 A 
ATOM     13  O   UNL     1       3.546   3.019  19.924  0.00  0.00    +0.000 OA
ATOM     14  N   UNL     1       4.405   2.880  18.863  0.00  0.00    +0.000 NA
ATOM     15  C   UNL     1       4.455   4.068  18.238  0.00  0.00    +0.000 A 
ATOM     16  C   UNL     1       3.632   5.016  18.937  0.00  0.00    +0.000 A 
BRANCH  15  17
ATOM     17  C   UNL     1       5.358   4.272  17.093  0.00  0.00    +0.000 A 
ATOM     18  C   UNL     1       4.893   3.960  15.801  0.00  0.00    +0.000 A 
ATOM     19  C   UNL     1       5.675   4.198  14.666  0.00  0.00    +0.000 A 
ATOM     20  C   UNL     1       6.933   4.772  14.796  0.00  0.00    +0.000 A 
ATOM     21  C   UNL     1       7.416   5.090  16.063  0.00  0.00    +0.000 A 
ATOM     22  C   UNL     1       6.645   4.834  17.209  0.00  0.00    +0.000 A 
ATOM     23 CL   UNL     1       7.394   5.216  18.723  0.00  0.00    +0.000 Cl
ENDBRANCH  15  17
ENDBRANCH   1  16
BRANCH   7  24
ATOM     24  C   UNL     1       1.054  12.429  19.022  0.00  0.00    +0.000 A 
ATOM     25  C   UNL     1      -0.173  13.019  18.705  0.00  0.00    +0.000 A 
ATOM     26  C   UNL     1      -0.314  14.403  18.777  0.00  0.00    +0.000 A 
ATOM     27  C   UNL     1       0.773  15.177  19.162  0.00  0.00    +0.000 A 
ATOM     28  C   UNL     1       1.960  14.525  19.443  0.00  0.00    +0.000 A 
ATOM     29  N   UNL     1       2.122  13.183  19.380  0.00  0.00    +0.000 NA
ENDBRANCH   7  24
TORSDOF 3
ENDMDL
MODEL 6
REMARK VINA RESULT:      -8.2      2.085      2.299
REMARK  Name = 
REMARK  4 active torsions:
REMARK  status: ('A' for Active; 'I' for Inactive)
REMARK    1  A    between atoms: C_1  and  C_2
REMARK    2  A    between atoms: C_5  and  C_6
REMARK    3  A    between atoms: C_13  and  C_14
REMARK    4  A    between atoms: C_20  and  C_21
REMARK                            x       y       z     vdW  Elec       q    Type
REMARK                         _______ _______ _______ _____ _____    ______ ____
ROOT
ATOM      1  C   UNL     1       2.597   5.093  20.248  0.00  0.00    +0.000 C 
ATOM      2  O   UNL     1       1.465   5.075  20.720  0.00  0.00    +0.000 OA
ATOM      3  N   UNL     1       3.184   6.200  19.662  0.00  0.00    +0.000 N 
ATOM      4  C   UNL     1       2.504   7.414  19.521  0.00  0.00    +0.000 A 
ATOM      5  C   UNL     1       1.718   7.934  20.538  0.00  0.00    +0.000 A 
ATOM      6  C   UNL     1       0.994   9.102  20.306  0.00  0.00    +0.000 A 
ATOM      7  C   UNL     1       1.026   9.726  19.053  0.00  0.00    +0.000 A 
ATOM      8  C   UNL     1       1.897   9.148  18.125  0.00  0.00    +0.000 A 
ATOM      9  N   UNL     1       2.658   8.034  18.339  0.00  0.00    +0.000 NA
ATOM     10  H   UNL     1       3.883   6.043  18.949  0.00  0.00    +0.000 HD
ENDROOT
BRANCH   1  16
ATOM     11  C   UNL     1       2.033   2.174  21.668  0.00  0.00    +0.000 C 
ATOM     12  C   UNL     1       3.105   2.676  20.789  0.00  0.00    +0.000 A 
ATOM     13  O   UNL     1       4.048   1.769  20.440  0.00  0.00    +0.000 OA
ATOM     14  N   UNL     1       4.986   2.362  19.632  0.00  0.00    +0.000 NA
ATOM     15  C   UNL     1       4.597   3.634  19.445  0.00  0.00    +0.000 A 
ATOM     16  C   UNL     1       3.390   3.884  20.184  0.00  0.00    +0.000 A 
BRANCH  15  17
ATOM     17  C   UNL     1       5.440   4.568  18.680  0.00  0.00    +0.000 A 
ATOM     18  C   UNL     1       6.474   5.250  19.351  0.00  0.00    +0.000 A 
ATOM     19  C   UNL     1       7.354   6.095  18.668  0.00  0.00    +0.000 A 
ATOM     20  C   UNL     1       7.233   6.263  17.294  0.00  0.00    +0.000 A 
ATOM     21  C   UNL     1       6.219   5.599  16.607  0.00  0.00    +0.000 A 
ATOM     22  C   UNL     1       5.318   4.766  17.290  0.00  0.00    +0.000 A 
ATOM     23 CL   UNL     1       4.066   4.057  16.326  0.00  0.00    +0.000 Cl
ENDBRANCH  15  17
ENDBRANCH   1  16
BRANCH   7  24
ATOM     24  C   UNL     1       0.201  10.906  18.725  0.00  0.00    +0.000 A 
ATOM     25  C   UNL     1      -1.123  10.807  18.290  0.00  0.00    +0.000 A 
ATOM     26  C   UNL     1      -1.842  11.963  17.997  0.00  0.00    +0.000 A 
ATOM     27  C   UNL     1      -1.228  13.200  18.143  0.00  0.00    +0.000 A 
ATOM     28  C   UNL     1       0.090  13.218  18.561  0.00  0.00    +0.000 A 
ATOM     29  N   UNL     1       0.810  12.110  18.850  0.00  0.00    +0.000 NA
ENDBRANCH   7  24
TORSDOF 3
ENDMDL
MODEL 7
REMARK VINA RESULT:      -8.1      1.473      1.692
REMARK  Name = 
REMARK  4 active torsions:
REMARK  status: ('A' for Active; 'I' for Inactive)
REMARK    1  A    between atoms: C_1  and  C_2
REMARK    2  A    between atoms: C_5  and  C_6
REMARK    3  A    between atoms: C_13  and  C_14
REMARK    4  A    between atoms: C_20  and  C_21
REMARK                            x       y       z     vdW  Elec       q    Type
REMARK                         _______ _______ _______ _____ _____    ______ ____
ROOT
ATOM      1  C   UNL     1       2.616   6.500  19.223  0.00  0.00    +0.000 C 
ATOM      2  O   UNL     1       2.925   7.341  18.386  0.00  0.00    +0.000 OA
ATOM      3  N   UNL     1       1.841   6.754  20.339  0.00  0.00    +0.000 N 
ATOM      4  C   UNL     1       1.361   8.033  20.636  0.00  0.00    +0.000 A 
ATOM      5  C   UNL     1       0.843   8.865  19.654  0.00  0.00    +0.000 A 
ATOM      6  C   UNL     1       0.464  10.163  19.996  0.00  0.00    +0.000 A 
ATOM      7  C   UNL     1       0.637  10.638  21.301  0.00  0.00    +0.000 A 
ATOM      8  C   UNL     1       1.112   9.695  22.217  0.00  0.00    +0.000 A 
ATOM      9  N   UNL     1       1.444   8.402  21.925  0.00  0.00    +0.000 NA
ATOM     10  H   UNL     1       1.984   6.176  21.157  0.00  0.00    +0.000 HD
ENDROOT
BRANCH   1  16
ATOM     11  C   UNL     1       1.052   3.639  19.696  0.00  0.00    +0.000 C 
ATOM     12  C   UNL     1       2.442   3.980  19.342  0.00  0.00    +0.000 A 
ATOM     13  O   UNL     1       3.264   2.928  19.118  0.00  0.00    +0.000 OA
ATOM     14  N   UNL     1       4.522   3.379  18.806  0.00  0.00    +0.000 NA
ATOM     15  C   UNL     1       4.468   4.721  18.795  0.00  0.00    +0.000 A 
ATOM     16  C   UNL     1       3.143   5.153  19.146  0.00  0.00    +0.000 A 
BRANCH  15  17
ATOM     17  C   UNL     1       5.686   5.516  18.569  0.00  0.00    +0.000 A 
ATOM     18  C   UNL     1       6.690   5.510  19.556  0.00  0.00    +0.000 A 
ATOM     19  C   UNL     1       7.900   6.186  19.371  0.00  0.00    +0.000 A 
ATOM     20  C   UNL     1       8.143   6.868  18.185  0.00  0.00    +0.000 A 
ATOM     21  C   UNL     1       7.166   6.888  17.193  0.00  0.00    +0.000 A 
ATOM     22  C   UNL     1       5.940   6.230  17.380  0.00  0.00    +0.000 A 
ATOM     23 CL   UNL     1       4.790   6.393  16.094  0.00  0.00    +0.000 Cl
ENDBRANCH  15  17
ENDBRANCH   1  16
BRANCH   7  24
ATOM     24  C   UNL     1       0.346  12.032  21.691  0.00  0.00    +0.000 A 
ATOM     25  C   UNL     1      -0.774  12.389  22.446  0.00  0.00    +0.000 A 
ATOM     26  C   UNL     1      -0.986  13.725  22.778  0.00  0.00    +0.000 A 
ATOM     27  C   UNL     1      -0.077  14.683  22.351  0.00  0.00    +0.000 A 
ATOM     28  C   UNL     1       0.998  14.257  21.593  0.00  0.00    +0.000 A 
ATOM     29  N   UNL     1       1.226  12.967  21.257  0.00  0.00    +0.000 NA
ENDBRANCH   7  24
TORSDOF 3
ENDMDL
MODEL 8
REMARK VINA RESULT:      -8.1      1.973      2.491
REMARK  Name = 
REMARK  4 active torsions:
REMARK  status: ('A' for Active; 'I' for Inactive)
REMARK    1  A    between atoms: C_1  and  C_2
REMARK    2  A    between atoms: C_5  and  C_6
REMARK    3  A    between atoms: C_13  and  C_14
REMARK    4  A    between atoms: C_20  and  C_21
REMARK                            x       y       z     vdW  Elec       q    Type
REMARK                         _______ _______ _______ _____ _____    ______ ____
ROOT
ATOM      1  C   UNL     1       2.995   6.028  19.412  0.00  0.00    +0.000 C 
ATOM      2  O   UNL     1       3.556   6.775  18.618  0.00  0.00    +0.000 OA
ATOM      3  N   UNL     1       2.009   6.424  20.297  0.00  0.00    +0.000 N 
ATOM      4  C   UNL     1       1.583   7.753  20.390  0.00  0.00    +0.000 A 
ATOM      5  C   UNL     1       1.374   8.534  19.263  0.00  0.00    +0.000 A 
ATOM      6  C   UNL     1       1.038   9.877  19.423  0.00  0.00    +0.000 A 
ATOM      7  C   UNL     1       0.948  10.446  20.698  0.00  0.00    +0.000 A 
ATOM      8  C   UNL     1       1.121   9.552  21.759  0.00  0.00    +0.000 A 
ATOM      9  N   UNL     1       1.401   8.220  21.637  0.00  0.00    +0.000 NA
ATOM     10  H   UNL     1       1.914   5.908  21.161  0.00  0.00    +0.000 HD
ENDROOT
BRANCH   1  16
ATOM     11  C   UNL     1       1.974   3.766  21.579  0.00  0.00    +0.000 C 
ATOM     12  C   UNL     1       2.943   3.731  20.467  0.00  0.00    +0.000 A 
ATOM     13  O   UNL     1       3.522   2.529  20.233  0.00  0.00    +0.000 OA
ATOM     14  N   UNL     1       4.402   2.634  19.185  0.00  0.00    +0.000 NA
ATOM     15  C   UNL     1       4.334   3.900  18.740  0.00  0.00    +0.000 A 
ATOM     16  C   UNL     1       3.410   4.648  19.547  0.00  0.00    +0.000 A 
BRANCH  15  17
ATOM     17  C   UNL     1       5.223   4.360  17.660  0.00  0.00    +0.000 A 
ATOM     18  C   UNL     1       4.875   4.068  16.326  0.00  0.00    +0.000 A 
ATOM     19  C   UNL     1       5.638   4.537  15.253  0.00  0.00    +0.000 A 
ATOM     20  C   UNL     1       6.757   5.326  15.487  0.00  0.00    +0.000 A 
ATOM     21  C   UNL     1       7.123   5.630  16.796  0.00  0.00    +0.000 A 
ATOM     22  C   UNL     1       6.374   5.144  17.880  0.00  0.00    +0.000 A 
ATOM     23 CL   UNL     1       6.978   5.540  19.454  0.00  0.00    +0.000 Cl
ENDBRANCH  15  17
ENDBRANCH   1  16
BRANCH   7  24
ATOM     24  C   UNL     1       0.694  11.883  20.919  0.00  0.00    +0.000 A 
ATOM     25  C   UNL     1      -0.592  12.414  21.047  0.00  0.00    +0.000 A 
ATOM     26  C   UNL     1      -0.758  13.781  21.254  0.00  0.00    +0.000 A 
ATOM     27  C   UNL     1       0.363  14.598  21.329  0.00  0.00    +0.000 A 
ATOM     28  C   UNL     1       1.602  14.004  21.175  0.00  0.00    +0.000 A 
ATOM     29  N   UNL     1       1.789  12.679  20.973  0.00  0.00    +0.000 NA
ENDBRANCH   7  24
TORSDOF 3
ENDMDL
MODEL 9
REMARK VINA RESULT:      -8.1      2.166      4.187
REMARK  Name = 
REMARK  4 active torsions:
REMARK  status: ('A' for Active; 'I' for Inactive)
REMARK    1  A    between atoms: C_1  and  C_2
REMARK    2  A    between atoms: C_5  and  C_6
REMARK    3  A    between atoms: C_13  and  C_14
REMARK    4  A    between atoms: C_20  and  C_21
REMARK                            x       y       z     vdW  Elec       q    Type
REMARK                         _______ _______ _______ _____ _____    ______ ____
ROOT
ATOM      1  C   UNL     1       3.990   6.689  18.303  0.00  0.00    +0.000 C 
ATOM      2  O   UNL     1       4.319   7.537  17.481  0.00  0.00    +0.000 OA
ATOM      3  N   UNL     1       2.890   6.789  19.134  0.00  0.00    +0.000 N 
ATOM      4  C   UNL     1       2.058   7.913  19.134  0.00  0.00    +0.000 A 
ATOM      5  C   UNL     1       1.662   8.529  17.956  0.00  0.00    +0.000 A 
ATOM      6  C   UNL     1       0.907   9.698  18.023  0.00  0.00    +0.000 A 
ATOM      7  C   UNL     1       0.581  10.269  19.258  0.00  0.00    +0.000 A 
ATOM      8  C   UNL     1       0.981   9.532  20.376  0.00  0.00    +0.000 A 
ATOM      9  N   UNL     1       1.678   8.357  20.344  0.00  0.00    +0.000 NA
ATOM     10  H   UNL     1       2.925   6.312  20.026  0.00  0.00    +0.000 HD
ENDROOT
BRANCH   1  16
ATOM     11  C   UNL     1       7.276   6.446  18.258  0.00  0.00    +0.000 C 
ATOM     12  C   UNL     1       6.198   5.474  18.516  0.00  0.00    +0.000 A 
ATOM     13  O   UNL     1       6.603   4.224  18.845  0.00  0.00    +0.000 OA
ATOM     14  N   UNL     1       5.510   3.421  19.052  0.00  0.00    +0.000 NA
ATOM     15  C   UNL     1       4.420   4.190  18.892  0.00  0.00    +0.000 A 
ATOM     16  C   UNL     1       4.819   5.524  18.534  0.00  0.00    +0.000 A 
BRANCH  15  17
ATOM     17  C   UNL     1       3.073   3.601  18.971  0.00  0.00    +0.000 A 
ATOM     18  C   UNL     1       2.578   2.893  17.858  0.00  0.00    +0.000 A 
ATOM     19  C   UNL     1       1.337   2.251  17.895  0.00  0.00    +0.000 A 
ATOM     20  C   UNL     1       0.569   2.284  19.052  0.00  0.00    +0.000 A 
ATOM     21  C   UNL     1       1.036   2.978  20.166  0.00  0.00    +0.000 A 
ATOM     22  C   UNL     1       2.272   3.643  20.130  0.00  0.00    +0.000 A 
ATOM     23 CL   UNL     1       2.700   4.521  21.560  0.00  0.00    +0.000 Cl
ENDBRANCH  15  17
ENDBRANCH   1  16
BRANCH   7  24
ATOM     24  C   UNL     1      -0.129  11.557  19.383  0.00  0.00    +0.000 A 
ATOM     25  C   UNL     1       0.286  12.718  18.725  0.00  0.00    +0.000 A 
ATOM     26  C   UNL     1      -0.433  13.900  18.889  0.00  0.00    +0.000 A 
ATOM     27  C   UNL     1      -1.555  13.905  19.706  0.00  0.00    +0.000 A 
ATOM     28  C   UNL     1      -1.895  12.722  20.338  0.00  0.00    +0.000 A 
ATOM     29  N   UNL     1      -1.213  11.563  20.196  0.00  0.00    +0.000 NA
ENDBRANCH   7  24
TORSDOF 3
ENDMDL
