MODEL 1
REMARK VINA RESULT:      -8.9      0.000      0.000
REMARK  Name = 
REMARK  7 active torsions:
REMARK  status: ('A' for Active; 'I' for Inactive)
REMARK    1  A    between atoms: C_2  and  C_3
REMARK    2  A    between atoms: C_3  and  O_4
REMARK    3  A    between atoms: O_4  and  C_5
REMARK    4  A    between atoms: C_9  and  N_10
REMARK    5  A    between atoms: N_17  and  C_18
REMARK    6  A    between atoms: C_21  and  N_22
REMARK    7  A    between atoms: N_22  and  C_23
REMARK                            x       y       z     vdW  Elec       q    Type
REMARK                         _______ _______ _______ _____ _____    ______ ____
ROOT
ATOM      1  O   UNL     1       1.718   4.798  18.602  0.00  0.00    +0.000 OA
ATOM      2  C   UNL     1       2.747   5.164  19.173  0.00  0.00    +0.000 C 
ATOM      3  N   UNL     1       3.089   6.476  19.474  0.00  0.00    +0.000 N 
ATOM      4  H   UNL     1       4.061   6.658  19.695  0.00  0.00    +0.000 HD
ENDROOT
BRANCH   3   5
ATOM      5  C   UNL     1       2.257   7.601  19.295  0.00  0.00    +0.000 A 
ATOM      6  C   UNL     1       2.116   8.247  18.069  0.00  0.00    +0.000 A 
ATOM      7  C   UNL     1       1.337   9.402  17.957  0.00  0.00    +0.000 A 
ATOM      8  C   UNL     1       0.671   9.940  19.060  0.00  0.00    +0.000 A 
ATOM      9  C   UNL     1       0.761   9.252  20.275  0.00  0.00    +0.000 A 
ATOM     10  C   UNL     1       1.539   8.087  20.392  0.00  0.00    +0.000 A 
BRANCH   8  11
ATOM     11  N   UNL     1      -0.135  11.090  18.964  0.00  0.00    +0.000 N 
ATOM     12  H   UNL     1       0.381  11.955  18.859  0.00  0.00    +0.000 HD
BRANCH  11  13
ATOM     13  C   UNL     1      -1.518  11.191  18.721  0.00  0.00    +0.000 A 
ATOM     14  C   UNL     1      -2.323  12.078  19.448  0.00  0.00    +0.000 A 
ATOM     15  C   UNL     1      -3.703  12.133  19.249  0.00  0.00    +0.000 A 
ATOM     16  C   UNL     1      -4.302  11.290  18.317  0.00  0.00    +0.000 A 
ATOM     17  C   UNL     1      -3.519  10.396  17.589  0.00  0.00    +0.000 A 
ATOM     18  C   UNL     1      -2.135  10.346  17.791  0.00  0.00    +0.000 A 
ENDBRANCH  11  13
ENDBRANCH   8  11
ENDBRANCH   3   5
BRANCH   2  19
ATOM     19  C   UNL     1       3.771   4.137  19.645  0.00  0.00    +0.000 C 
BRANCH  19  20
ATOM     20  O   UNL     1       4.430   3.476  18.569  0.00  0.00    +0.000 OA
BRANCH  20  21
ATOM     21  C   UNL     1       5.385   4.229  17.926  0.00  0.00    +0.000 A 
ATOM     22  C   UNL     1       6.249   5.122  18.559  0.00  0.00    +0.000 A 
ATOM     23  C   UNL     1       7.194   5.823  17.820  0.00  0.00    +0.000 A 
ATOM     24  C   UNL     1       7.288   5.630  16.443  0.00  0.00    +0.000 A 
ATOM     25  C   UNL     1       6.443   4.741  15.768  0.00  0.00    +0.000 A 
ATOM     26  C   UNL     1       5.477   4.055  16.533  0.00  0.00    +0.000 A 
BRANCH  25  27
ATOM     27  N   UNL     1       6.570   4.523  14.366  0.00  0.00    +0.000 N 
ATOM     28  C   UNL     1       5.609   3.766  13.600  0.00  0.00    +0.000 C 
ATOM     29  C   UNL     1       6.328   3.438  12.307  0.00  0.00    +0.000 C 
ATOM     30  C   UNL     1       7.278   4.603  12.118  0.00  0.00    +0.000 C 
ATOM     31  C   UNL     1       7.567   5.052  13.529  0.00  0.00    +0.000 C 
ATOM     32  O   UNL     1       8.503   5.792  13.799  0.00  0.00    +0.000 OA
ENDBRANCH  25  27
ENDBRANCH  20  21
ENDBRANCH  19  20
ENDBRANCH   2  19
TORSDOF 7
ENDMDL
MODEL 2
REMARK VINA RESULT:      -8.6      2.174      3.209
REMARK  Name = 
REMARK  7 active torsions:
REMARK  status: ('A' for Active; 'I' for Inactive)
REMARK    1  A    between atoms: C_2  and  C_3
REMARK    2  A    between atoms: C_3  and  O_4
REMARK    3  A    between atoms: O_4  and  C_5
REMARK    4  A    between atoms: C_9  and  N_10
REMARK    5  A    between atoms: N_17  and  C_18
REMARK    6  A    between atoms: C_21  and  N_22
REMARK    7  A    between atoms: N_22  and  C_23
REMARK                            x       y       z     vdW  Elec       q    Type
REMARK                         _______ _______ _______ _____ _____    ______ ____
ROOT
ATOM      1  O   UNL     1       0.845   4.691  20.452  0.00  0.00    +0.000 OA
ATOM      2  C   UNL     1       2.004   5.015  20.717  0.00  0.00    +0.000 C 
ATOM      3  N   UNL     1       2.554   6.280  20.557  0.00  0.00    +0.000 N 
ATOM      4  H   UNL     1       3.566   6.345  20.555  0.00  0.00    +0.000 HD
ENDROOT
BRANCH   3   5
ATOM      5  C   UNL     1       1.844   7.441  20.186  0.00  0.00    +0.000 A 
ATOM      6  C   UNL     1       1.002   8.122  21.063  0.00  0.00    +0.000 A 
ATOM      7  C   UNL     1       0.263   9.226  20.629  0.00  0.00    +0.000 A 
ATOM      8  C   UNL     1       0.348   9.687  19.314  0.00  0.00    +0.000 A 
ATOM      9  C   UNL     1       1.245   9.042  18.455  0.00  0.00    +0.000 A 
ATOM     10  C   UNL     1       1.994   7.935  18.887  0.00  0.00    +0.000 A 
BRANCH   8  11
ATOM     11  N   UNL     1      -0.372  10.809  18.863  0.00  0.00    +0.000 N 
ATOM     12  H   UNL     1       0.169  11.663  18.818  0.00  0.00    +0.000 HD
BRANCH  11  13
ATOM     13  C   UNL     1      -1.622  10.865  18.219  0.00  0.00    +0.000 A 
ATOM     14  C   UNL     1      -1.877  10.128  17.054  0.00  0.00    +0.000 A 
ATOM     15  C   UNL     1      -3.095  10.232  16.382  0.00  0.00    +0.000 A 
ATOM     16  C   UNL     1      -4.081  11.086  16.865  0.00  0.00    +0.000 A 
ATOM     17  C   UNL     1      -3.846  11.833  18.018  0.00  0.00    +0.000 A 
ATOM     18  C   UNL     1      -2.622  11.724  18.689  0.00  0.00    +0.000 A 
ENDBRANCH  11  13
ENDBRANCH   8  11
ENDBRANCH   3   5
BRANCH   2  19
ATOM     19  C   UNL     1       2.973   3.993  21.303  0.00  0.00    +0.000 C 
BRANCH  19  20
ATOM     20  O   UNL     1       3.172   2.867  20.455  0.00  0.00    +0.000 OA
BRANCH  20  21
ATOM     21  C   UNL     1       3.690   3.162  19.214  0.00  0.00    +0.000 A 
ATOM     22  C   UNL     1       3.248   2.600  18.018  0.00  0.00    +0.000 A 
ATOM     23  C   UNL     1       3.826   2.979  16.812  0.00  0.00    +0.000 A 
ATOM     24  C   UNL     1       4.845   3.929  16.794  0.00  0.00    +0.000 A 
ATOM     25  C   UNL     1       5.317   4.521  17.972  0.00  0.00    +0.000 A 
ATOM     26  C   UNL     1       4.731   4.108  19.187  0.00  0.00    +0.000 A 
BRANCH  25  27
ATOM     27  N   UNL     1       6.334   5.517  17.940  0.00  0.00    +0.000 N 
ATOM     28  C   UNL     1       7.536   5.436  18.736  0.00  0.00    +0.000 C 
ATOM     29  C   UNL     1       8.100   6.843  18.716  0.00  0.00    +0.000 C 
ATOM     30  C   UNL     1       7.649   7.393  17.379  0.00  0.00    +0.000 C 
ATOM     31  C   UNL     1       6.363   6.650  17.109  0.00  0.00    +0.000 C 
ATOM     32  O   UNL     1       5.565   7.017  16.259  0.00  0.00    +0.000 OA
ENDBRANCH  25  27
ENDBRANCH  20  21
ENDBRANCH  19  20
ENDBRANCH   2  19
TORSDOF 7
ENDMDL
MODEL 3
REMARK VINA RESULT:      -8.5      2.386      3.116
REMARK  Name = 
REMARK  7 active torsions:
REMARK  status: ('A' for Active; 'I' for Inactive)
REMARK    1  A    between atoms: C_2  and  C_3
REMARK    2  A    between atoms: C_3  and  O_4
REMARK    3  A    between atoms: O_4  and  C_5
REMARK    4  A    between atoms: C_9  and  N_10
REMARK    5  A    between atoms: N_17  and  C_18
REMARK    6  A    between atoms: C_21  and  N_22
REMARK    7  A    between atoms: N_22  and  C_23
REMARK                            x       y       z     vdW  Elec       q    Type
REMARK                         _______ _______ _______ _____ _____    ______ ____
ROOT
ATOM      1  O   UNL     1       0.755   4.885  20.195  0.00  0.00    +0.000 OA
ATOM      2  C   UNL     1       1.845   5.234  20.650  0.00  0.00    +0.000 C 
ATOM      3  N   UNL     1       2.362   6.523  20.631  0.00  0.00    +0.000 N 
ATOM      4  H   UNL     1       3.359   6.621  20.789  0.00  0.00    +0.000 HD
ENDROOT
BRANCH   3   5
ATOM      5  C   UNL     1       1.672   7.677  20.204  0.00  0.00    +0.000 A 
ATOM      6  C   UNL     1       1.793   8.195  18.916  0.00  0.00    +0.000 A 
ATOM      7  C   UNL     1       1.146   9.382  18.562  0.00  0.00    +0.000 A 
ATOM      8  C   UNL     1       0.352  10.079  19.476  0.00  0.00    +0.000 A 
ATOM      9  C   UNL     1       0.179   9.520  20.747  0.00  0.00    +0.000 A 
ATOM     10  C   UNL     1       0.823   8.324  21.107  0.00  0.00    +0.000 A 
BRANCH   8  11
ATOM     11  N   UNL     1      -0.325  11.264  19.132  0.00  0.00    +0.000 N 
ATOM     12  H   UNL     1       0.271  12.077  19.046  0.00  0.00    +0.000 HD
BRANCH  11  13
ATOM     13  C   UNL     1      -1.630  11.431  18.633  0.00  0.00    +0.000 A 
ATOM     14  C   UNL     1      -2.648  11.983  19.422  0.00  0.00    +0.000 A 
ATOM     15  C   UNL     1      -3.955  12.091  18.947  0.00  0.00    +0.000 A 
ATOM     16  C   UNL     1      -4.267  11.639  17.669  0.00  0.00    +0.000 A 
ATOM     17  C   UNL     1      -3.271  11.080  16.870  0.00  0.00    +0.000 A 
ATOM     18  C   UNL     1      -1.960  10.976  17.351  0.00  0.00    +0.000 A 
ENDBRANCH  11  13
ENDBRANCH   8  11
ENDBRANCH   3   5
BRANCH   2  19
ATOM     19  C   UNL     1       2.753   4.218  21.336  0.00  0.00    +0.000 C 
BRANCH  19  20
ATOM     20  O   UNL     1       3.033   3.085  20.520  0.00  0.00    +0.000 OA
BRANCH  20  21
ATOM     21  C   UNL     1       3.605   3.376  19.302  0.00  0.00    +0.000 A 
ATOM     22  C   UNL     1       3.228   2.797  18.092  0.00  0.00    +0.000 A 
ATOM     23  C   UNL     1       3.857   3.173  16.911  0.00  0.00    +0.000 A 
ATOM     24  C   UNL     1       4.862   4.138  16.932  0.00  0.00    +0.000 A 
ATOM     25  C   UNL     1       5.269   4.747  18.125  0.00  0.00    +0.000 A 
ATOM     26  C   UNL     1       4.632   4.336  19.315  0.00  0.00    +0.000 A 
BRANCH  25  27
ATOM     27  N   UNL     1       6.272   5.758  18.132  0.00  0.00    +0.000 N 
ATOM     28  C   UNL     1       6.274   6.866  17.206  0.00  0.00    +0.000 C 
ATOM     29  C   UNL     1       7.681   7.424  17.285  0.00  0.00    +0.000 C 
ATOM     30  C   UNL     1       8.110   7.120  18.706  0.00  0.00    +0.000 C 
ATOM     31  C   UNL     1       7.330   5.875  19.049  0.00  0.00    +0.000 C 
ATOM     32  O   UNL     1       7.613   5.174  20.010  0.00  0.00    +0.000 OA
ENDBRANCH  25  27
ENDBRANCH  20  21
ENDBRANCH  19  20
ENDBRANCH   2  19
TORSDOF 7
ENDMDL
MODEL 4
REMARK VINA RESULT:      -8.5      6.010      8.446
REMARK  Name = 
REMARK  7 active torsions:
REMARK  status: ('A' for Active; 'I' for Inactive)
REMARK    1  A    between atoms: C_2  and  C_3
REMARK    2  A    between atoms: C_3  and  O_4
REMARK    3  A    between atoms: O_4  and  C_5
REMARK    4  A    between atoms: C_9  and  N_10
REMARK    5  A    between atoms: N_17  and  C_18
REMARK    6  A    between atoms: C_21  and  N_22
REMARK    7  A    between atoms: N_22  and  C_23
REMARK                            x       y       z     vdW  Elec       q    Type
REMARK                         _______ _______ _______ _____ _____    ______ ____
ROOT
ATOM      1  O   UNL     1       7.581   8.481  17.258  0.00  0.00    +0.000 OA
ATOM      2  C   UNL     1       8.109   8.007  18.265  0.00  0.00    +0.000 C 
ATOM      3  N   UNL     1       8.945   8.685  19.143  0.00  0.00    +0.000 N 
ATOM      4  H   UNL     1       9.515   8.120  19.763  0.00  0.00    +0.000 HD
ENDROOT
BRANCH   3   5
ATOM      5  C   UNL     1       9.228  10.066  19.104  0.00  0.00    +0.000 A 
ATOM      6  C   UNL     1       9.419  10.763  17.912  0.00  0.00    +0.000 A 
ATOM      7  C   UNL     1       9.769  12.116  17.926  0.00  0.00    +0.000 A 
ATOM      8  C   UNL     1       9.930  12.814  19.124  0.00  0.00    +0.000 A 
ATOM      9  C   UNL     1       9.673  12.129  20.317  0.00  0.00    +0.000 A 
ATOM     10  C   UNL     1       9.315  10.770  20.309  0.00  0.00    +0.000 A 
BRANCH   8  11
ATOM     11  N   UNL     1      10.262  14.182  19.159  0.00  0.00    +0.000 N 
ATOM     12  H   UNL     1      11.199  14.393  18.842  0.00  0.00    +0.000 HD
BRANCH  11  13
ATOM     13  C   UNL     1       9.419  15.299  19.303  0.00  0.00    +0.000 A 
ATOM     14  C   UNL     1       9.354  16.014  20.507  0.00  0.00    +0.000 A 
ATOM     15  C   UNL     1       8.473  17.083  20.668  0.00  0.00    +0.000 A 
ATOM     16  C   UNL     1       7.632  17.452  19.623  0.00  0.00    +0.000 A 
ATOM     17  C   UNL     1       7.675  16.749  18.420  0.00  0.00    +0.000 A 
ATOM     18  C   UNL     1       8.563  15.678  18.263  0.00  0.00    +0.000 A 
ENDBRANCH  11  13
ENDBRANCH   8  11
ENDBRANCH   3   5
BRANCH   2  19
ATOM     19  C   UNL     1       7.845   6.559  18.663  0.00  0.00    +0.000 C 
BRANCH  19  20
ATOM     20  O   UNL     1       7.877   5.665  17.555  0.00  0.00    +0.000 OA
BRANCH  20  21
ATOM     21  C   UNL     1       6.671   5.075  17.252  0.00  0.00    +0.000 A 
ATOM     22  C   UNL     1       6.256   4.736  15.966  0.00  0.00    +0.000 A 
ATOM     23  C   UNL     1       5.024   4.125  15.766  0.00  0.00    +0.000 A 
ATOM     24  C   UNL     1       4.200   3.842  16.854  0.00  0.00    +0.000 A 
ATOM     25  C   UNL     1       4.579   4.164  18.163  0.00  0.00    +0.000 A 
ATOM     26  C   UNL     1       5.824   4.802  18.342  0.00  0.00    +0.000 A 
BRANCH  25  27
ATOM     27  N   UNL     1       3.747   3.839  19.272  0.00  0.00    +0.000 N 
ATOM     28  C   UNL     1       2.516   4.537  19.559  0.00  0.00    +0.000 C 
ATOM     29  C   UNL     1       2.198   4.170  20.995  0.00  0.00    +0.000 C 
ATOM     30  C   UNL     1       2.791   2.785  21.153  0.00  0.00    +0.000 C 
ATOM     31  C   UNL     1       3.943   2.783  20.179  0.00  0.00    +0.000 C 
ATOM     32  O   UNL     1       4.826   1.938  20.216  0.00  0.00    +0.000 OA
ENDBRANCH  25  27
ENDBRANCH  20  21
ENDBRANCH  19  20
ENDBRANCH   2  19
TORSDOF 7
ENDMDL
MODEL 5
REMARK VINA RESULT:      -8.4      6.654      9.758
REMARK  Name = 
REMARK  7 active torsions:
REMARK  status: ('A' for Active; 'I' for Inactive)
REMARK    1  A    between atoms: C_2  and  C_3
REMARK    2  A    between atoms: C_3  and  O_4
REMARK    3  A    between atoms: O_4  and  C_5
REMARK    4  A    between atoms: C_9  and  N_10
REMARK    5  A    between atoms: N_17  and  C_18
REMARK    6  A    between atoms: C_21  and  N_22
REMARK    7  A    between atoms: N_22  and  C_23
REMARK                            x       y       z     vdW  Elec       q    Type
REMARK                         _______ _______ _______ _____ _____    ______ ____
ROOT
ATOM      1  O   UNL     1       7.456   9.356  17.665  0.00  0.00    +0.000 OA
ATOM      2  C   UNL     1       8.329   8.868  18.384  0.00  0.00    +0.000 C 
ATOM      3  N   UNL     1       8.408   7.541  18.784  0.00  0.00    +0.000 N 
ATOM      4  H   UNL     1       9.007   7.334  19.576  0.00  0.00    +0.000 HD
ENDROOT
BRANCH   3   5
ATOM      5  C   UNL     1       7.575   6.497  18.330  0.00  0.00    +0.000 A 
ATOM      6  C   UNL     1       7.394   6.211  16.979  0.00  0.00    +0.000 A 
ATOM      7  C   UNL     1       6.501   5.214  16.575  0.00  0.00    +0.000 A 
ATOM      8  C   UNL     1       5.772   4.469  17.505  0.00  0.00    +0.000 A 
ATOM      9  C   UNL     1       6.006   4.714  18.863  0.00  0.00    +0.000 A 
ATOM     10  C   UNL     1       6.906   5.712  19.274  0.00  0.00    +0.000 A 
BRANCH   8  11
ATOM     11  N   UNL     1       4.884   3.447  17.119  0.00  0.00    +0.000 N 
ATOM     12  H   UNL     1       5.308   2.711  16.569  0.00  0.00    +0.000 HD
BRANCH  11  13
ATOM     13  C   UNL     1       3.594   3.159  17.602  0.00  0.00    +0.000 A 
ATOM     14  C   UNL     1       2.571   4.116  17.565  0.00  0.00    +0.000 A 
ATOM     15  C   UNL     1       1.311   3.851  18.100  0.00  0.00    +0.000 A 
ATOM     16  C   UNL     1       1.054   2.617  18.690  0.00  0.00    +0.000 A 
ATOM     17  C   UNL     1       2.060   1.654  18.743  0.00  0.00    +0.000 A 
ATOM     18  C   UNL     1       3.323   1.925  18.203  0.00  0.00    +0.000 A 
ENDBRANCH  11  13
ENDBRANCH   8  11
ENDBRANCH   3   5
BRANCH   2  19
ATOM     19  C   UNL     1       9.476   9.734  18.896  0.00  0.00    +0.000 C 
BRANCH  19  20
ATOM     20  O   UNL     1       9.077  11.071  19.179  0.00  0.00    +0.000 OA
BRANCH  20  21
ATOM     21  C   UNL     1       9.815  12.042  18.542  0.00  0.00    +0.000 A 
ATOM     22  C   UNL     1      10.888  11.790  17.690  0.00  0.00    +0.000 A 
ATOM     23  C   UNL     1      11.559  12.842  17.079  0.00  0.00    +0.000 A 
ATOM     24  C   UNL     1      11.155  14.156  17.309  0.00  0.00    +0.000 A 
ATOM     25  C   UNL     1      10.080  14.454  18.156  0.00  0.00    +0.000 A 
ATOM     26  C   UNL     1       9.426  13.373  18.782  0.00  0.00    +0.000 A 
BRANCH  25  27
ATOM     27  N   UNL     1       9.652  15.797  18.357  0.00  0.00    +0.000 N 
ATOM     28  C   UNL     1      10.558  16.865  18.708  0.00  0.00    +0.000 C 
ATOM     29  C   UNL     1       9.660  17.972  19.221  0.00  0.00    +0.000 C 
ATOM     30  C   UNL     1       8.369  17.774  18.453  0.00  0.00    +0.000 C 
ATOM     31  C   UNL     1       8.348  16.291  18.179  0.00  0.00    +0.000 C 
ATOM     32  O   UNL     1       7.334  15.710  17.819  0.00  0.00    +0.000 OA
ENDBRANCH  25  27
ENDBRANCH  20  21
ENDBRANCH  19  20
ENDBRANCH   2  19
TORSDOF 7
ENDMDL
MODEL 6
REMARK VINA RESULT:      -8.4      1.606      2.382
REMARK  Name = 
REMARK  7 active torsions:
REMARK  status: ('A' for Active; 'I' for Inactive)
REMARK    1  A    between atoms: C_2  and  C_3
REMARK    2  A    between atoms: C_3  and  O_4
REMARK    3  A    between atoms: O_4  and  C_5
REMARK    4  A    between atoms: C_9  and  N_10
REMARK    5  A    between atoms: N_17  and  C_18
REMARK    6  A    between atoms: C_21  and  N_22
REMARK    7  A    between atoms: N_22  and  C_23
REMARK                            x       y       z     vdW  Elec       q    Type
REMARK                         _______ _______ _______ _____ _____    ______ ____
ROOT
ATOM      1  O   UNL     1       2.249   5.148  17.856  0.00  0.00    +0.000 OA
ATOM      2  C   UNL     1       2.905   5.290  18.889  0.00  0.00    +0.000 C 
ATOM      3  N   UNL     1       3.026   6.462  19.624  0.00  0.00    +0.000 N 
ATOM      4  H   UNL     1       3.794   6.514  20.284  0.00  0.00    +0.000 HD
ENDROOT
BRANCH   3   5
ATOM      5  C   UNL     1       2.313   7.656  19.385  0.00  0.00    +0.000 A 
ATOM      6  C   UNL     1       1.543   8.282  20.362  0.00  0.00    +0.000 A 
ATOM      7  C   UNL     1       0.796   9.424  20.058  0.00  0.00    +0.000 A 
ATOM      8  C   UNL     1       0.802   9.977  18.775  0.00  0.00    +0.000 A 
ATOM      9  C   UNL     1       1.629   9.384  17.814  0.00  0.00    +0.000 A 
ATOM     10  C   UNL     1       2.386   8.240  18.117  0.00  0.00    +0.000 A 
BRANCH   8  11
ATOM     11  N   UNL     1       0.074  11.138  18.454  0.00  0.00    +0.000 N 
ATOM     12  H   UNL     1      -0.900  10.973  18.232  0.00  0.00    +0.000 HD
BRANCH  11  13
ATOM     13  C   UNL     1       0.415  12.488  18.657  0.00  0.00    +0.000 A 
ATOM     14  C   UNL     1      -0.568  13.481  18.765  0.00  0.00    +0.000 A 
ATOM     15  C   UNL     1      -0.228  14.826  18.905  0.00  0.00    +0.000 A 
ATOM     16  C   UNL     1       1.111  15.202  18.931  0.00  0.00    +0.000 A 
ATOM     17  C   UNL     1       2.105  14.231  18.817  0.00  0.00    +0.000 A 
ATOM     18  C   UNL     1       1.758  12.882  18.679  0.00  0.00    +0.000 A 
ENDBRANCH  11  13
ENDBRANCH   8  11
ENDBRANCH   3   5
BRANCH   2  19
ATOM     19  C   UNL     1       3.658   4.107  19.490  0.00  0.00    +0.000 C 
BRANCH  19  20
ATOM     20  O   UNL     1       4.445   3.406  18.532  0.00  0.00    +0.000 OA
BRANCH  20  21
ATOM     21  C   UNL     1       5.401   4.168  17.900  0.00  0.00    +0.000 A 
ATOM     22  C   UNL     1       6.264   5.051  18.545  0.00  0.00    +0.000 A 
ATOM     23  C   UNL     1       7.210   5.762  17.816  0.00  0.00    +0.000 A 
ATOM     24  C   UNL     1       7.304   5.589  16.437  0.00  0.00    +0.000 A 
ATOM     25  C   UNL     1       6.458   4.709  15.750  0.00  0.00    +0.000 A 
ATOM     26  C   UNL     1       5.492   4.013  16.505  0.00  0.00    +0.000 A 
BRANCH  25  27
ATOM     27  N   UNL     1       6.586   4.512  14.345  0.00  0.00    +0.000 N 
ATOM     28  C   UNL     1       5.632   3.754  13.570  0.00  0.00    +0.000 C 
ATOM     29  C   UNL     1       6.352   3.452  12.271  0.00  0.00    +0.000 C 
ATOM     30  C   UNL     1       7.290   4.628  12.097  0.00  0.00    +0.000 C 
ATOM     31  C   UNL     1       7.576   5.062  13.514  0.00  0.00    +0.000 C 
ATOM     32  O   UNL     1       8.504   5.807  13.791  0.00  0.00    +0.000 OA
ENDBRANCH  25  27
ENDBRANCH  20  21
ENDBRANCH  19  20
ENDBRANCH   2  19
TORSDOF 7
ENDMDL
MODEL 7
REMARK VINA RESULT:      -8.4      6.441      9.622
REMARK  Name = 
REMARK  7 active torsions:
REMARK  status: ('A' for Active; 'I' for Inactive)
REMARK    1  A    between atoms: C_2  and  C_3
REMARK    2  A    between atoms: C_3  and  O_4
REMARK    3  A    between atoms: O_4  and  C_5
REMARK    4  A    between atoms: C_9  and  N_10
REMARK    5  A    between atoms: N_17  and  C_18
REMARK    6  A    between atoms: C_21  and  N_22
REMARK    7  A    between atoms: N_22  and  C_23
REMARK                            x       y       z     vdW  Elec       q    Type
REMARK                         _______ _______ _______ _____ _____    ______ ____
ROOT
ATOM      1  O   UNL     1       8.706   8.056  18.981  0.00  0.00    +0.000 OA
ATOM      2  C   UNL     1       8.209   8.608  17.997  0.00  0.00    +0.000 C 
ATOM      3  N   UNL     1       7.252   8.061  17.152  0.00  0.00    +0.000 N 
ATOM      4  H   UNL     1       7.132   8.502  16.248  0.00  0.00    +0.000 HD
ENDROOT
BRANCH   3   5
ATOM      5  C   UNL     1       6.590   6.831  17.351  0.00  0.00    +0.000 A 
ATOM      6  C   UNL     1       7.271   5.626  17.510  0.00  0.00    +0.000 A 
ATOM      7  C   UNL     1       6.570   4.423  17.632  0.00  0.00    +0.000 A 
ATOM      8  C   UNL     1       5.174   4.388  17.608  0.00  0.00    +0.000 A 
ATOM      9  C   UNL     1       4.494   5.607  17.516  0.00  0.00    +0.000 A 
ATOM     10  C   UNL     1       5.193   6.820  17.398  0.00  0.00    +0.000 A 
BRANCH   8  11
ATOM     11  N   UNL     1       4.449   3.189  17.751  0.00  0.00    +0.000 N 
ATOM     12  H   UNL     1       4.920   2.370  17.388  0.00  0.00    +0.000 HD
BRANCH  11  13
ATOM     13  C   UNL     1       3.321   2.920  18.548  0.00  0.00    +0.000 A 
ATOM     14  C   UNL     1       2.061   2.696  17.976  0.00  0.00    +0.000 A 
ATOM     15  C   UNL     1       0.932   2.490  18.769  0.00  0.00    +0.000 A 
ATOM     16  C   UNL     1       1.046   2.513  20.155  0.00  0.00    +0.000 A 
ATOM     17  C   UNL     1       2.288   2.742  20.744  0.00  0.00    +0.000 A 
ATOM     18  C   UNL     1       3.419   2.946  19.944  0.00  0.00    +0.000 A 
ENDBRANCH  11  13
ENDBRANCH   8  11
ENDBRANCH   3   5
BRANCH   2  19
ATOM     19  C   UNL     1       8.614  10.032  17.628  0.00  0.00    +0.000 C 
BRANCH  19  20
ATOM     20  O   UNL     1       9.284  10.709  18.686  0.00  0.00    +0.000 OA
BRANCH  20  21
ATOM     21  C   UNL     1       9.974  11.838  18.305  0.00  0.00    +0.000 A 
ATOM     22  C   UNL     1      11.208  11.831  17.658  0.00  0.00    +0.000 A 
ATOM     23  C   UNL     1      11.815  13.028  17.298  0.00  0.00    +0.000 A 
ATOM     24  C   UNL     1      11.188  14.241  17.575  0.00  0.00    +0.000 A 
ATOM     25  C   UNL     1       9.947  14.292  18.221  0.00  0.00    +0.000 A 
ATOM     26  C   UNL     1       9.357  13.068  18.596  0.00  0.00    +0.000 A 
BRANCH  25  27
ATOM     27  N   UNL     1       9.296  15.535  18.468  0.00  0.00    +0.000 N 
ATOM     28  C   UNL     1       9.963  16.661  19.079  0.00  0.00    +0.000 C 
ATOM     29  C   UNL     1       8.838  17.574  19.522  0.00  0.00    +0.000 C 
ATOM     30  C   UNL     1       7.738  17.305  18.516  0.00  0.00    +0.000 C 
ATOM     31  C   UNL     1       7.982  15.874  18.103  0.00  0.00    +0.000 C 
ATOM     32  O   UNL     1       7.141  15.215  17.511  0.00  0.00    +0.000 OA
ENDBRANCH  25  27
ENDBRANCH  20  21
ENDBRANCH  19  20
ENDBRANCH   2  19
TORSDOF 7
ENDMDL
MODEL 8
REMARK VINA RESULT:      -8.3      0.834      1.447
REMARK  Name = 
REMARK  7 active torsions:
REMARK  status: ('A' for Active; 'I' for Inactive)
REMARK    1  A    between atoms: C_2  and  C_3
REMARK    2  A    between atoms: C_3  and  O_4
REMARK    3  A    between atoms: O_4  and  C_5
REMARK    4  A    between atoms: C_9  and  N_10
REMARK    5  A    between atoms: N_17  and  C_18
REMARK    6  A    between atoms: C_21  and  N_22
REMARK    7  A    between atoms: N_22  and  C_23
REMARK                            x       y       z     vdW  Elec       q    Type
REMARK                         _______ _______ _______ _____ _____    ______ ____
ROOT
ATOM      1  O   UNL     1       1.898   5.033  17.857  0.00  0.00    +0.000 OA
ATOM      2  C   UNL     1       2.656   5.214  18.811  0.00  0.00    +0.000 C 
ATOM      3  N   UNL     1       2.913   6.431  19.429  0.00  0.00    +0.000 N 
ATOM      4  H   UNL     1       3.741   6.485  20.011  0.00  0.00    +0.000 HD
ENDROOT
BRANCH   3   5
ATOM      5  C   UNL     1       2.250   7.646  19.154  0.00  0.00    +0.000 A 
ATOM      6  C   UNL     1       2.311   8.273  17.912  0.00  0.00    +0.000 A 
ATOM      7  C   UNL     1       1.697   9.512  17.709  0.00  0.00    +0.000 A 
ATOM      8  C   UNL     1       0.999  10.156  18.733  0.00  0.00    +0.000 A 
ATOM      9  C   UNL     1       0.883   9.491  19.959  0.00  0.00    +0.000 A 
ATOM     10  C   UNL     1       1.494   8.243  20.168  0.00  0.00    +0.000 A 
BRANCH   8  11
ATOM     11  N   UNL     1       0.356  11.394  18.543  0.00  0.00    +0.000 N 
ATOM     12  H   UNL     1       0.486  11.795  17.623  0.00  0.00    +0.000 HD
BRANCH  11  13
ATOM     13  C   UNL     1      -0.641  12.009  19.323  0.00  0.00    +0.000 A 
ATOM     14  C   UNL     1      -1.999  11.726  19.127  0.00  0.00    +0.000 A 
ATOM     15  C   UNL     1      -2.989  12.382  19.858  0.00  0.00    +0.000 A 
ATOM     16  C   UNL     1      -2.633  13.342  20.800  0.00  0.00    +0.000 A 
ATOM     17  C   UNL     1      -1.287  13.643  21.006  0.00  0.00    +0.000 A 
ATOM     18  C   UNL     1      -0.298  12.981  20.270  0.00  0.00    +0.000 A 
ENDBRANCH  11  13
ENDBRANCH   8  11
ENDBRANCH   3   5
BRANCH   2  19
ATOM     19  C   UNL     1       3.394   4.037  19.441  0.00  0.00    +0.000 C 
BRANCH  19  20
ATOM     20  O   UNL     1       4.182   3.311  18.503  0.00  0.00    +0.000 OA
BRANCH  20  21
ATOM     21  C   UNL     1       5.196   4.035  17.917  0.00  0.00    +0.000 A 
ATOM     22  C   UNL     1       6.093   4.845  18.609  0.00  0.00    +0.000 A 
ATOM     23  C   UNL     1       7.096   5.522  17.925  0.00  0.00    +0.000 A 
ATOM     24  C   UNL     1       7.213   5.386  16.543  0.00  0.00    +0.000 A 
ATOM     25  C   UNL     1       6.334   4.579  15.809  0.00  0.00    +0.000 A 
ATOM     26  C   UNL     1       5.312   3.918  16.520  0.00  0.00    +0.000 A 
BRANCH  25  27
ATOM     27  N   UNL     1       6.484   4.418  14.402  0.00  0.00    +0.000 N 
ATOM     28  C   UNL     1       5.551   3.666  13.596  0.00  0.00    +0.000 C 
ATOM     29  C   UNL     1       6.293   3.406  12.300  0.00  0.00    +0.000 C 
ATOM     30  C   UNL     1       7.216   4.599  12.168  0.00  0.00    +0.000 C 
ATOM     31  C   UNL     1       7.477   5.002  13.598  0.00  0.00    +0.000 C 
ATOM     32  O   UNL     1       8.391   5.753  13.907  0.00  0.00    +0.000 OA
ENDBRANCH  25  27
ENDBRANCH  20  21
ENDBRANCH  19  20
ENDBRANCH   2  19
TORSDOF 7
ENDMDL
MODEL 9
REMARK VINA RESULT:      -8.3      1.669      2.453
REMARK  Name = 
REMARK  7 active torsions:
REMARK  status: ('A' for Active; 'I' for Inactive)
REMARK    1  A    between atoms: C_2  and  C_3
REMARK    2  A    between atoms: C_3  and  O_4
REMARK    3  A    between atoms: O_4  and  C_5
REMARK    4  A    between atoms: C_9  and  N_10
REMARK    5  A    between atoms: N_17  and  C_18
REMARK    6  A    between atoms: C_21  and  N_22
REMARK    7  A    between atoms: N_22  and  C_23
REMARK                            x       y       z     vdW  Elec       q    Type
REMARK                         _______ _______ _______ _____ _____    ______ ____
ROOT
ATOM      1  O   UNL     1       1.233   4.700  20.090  0.00  0.00    +0.000 OA
ATOM      2  C   UNL     1       2.384   4.955  19.732  0.00  0.00    +0.000 C 
ATOM      3  N   UNL     1       2.877   6.211  19.404  0.00  0.00    +0.000 N 
ATOM      4  H   UNL     1       3.743   6.241  18.878  0.00  0.00    +0.000 HD
ENDROOT
BRANCH   3   5
ATOM      5  C   UNL     1       2.179   7.428  19.549  0.00  0.00    +0.000 A 
ATOM      6  C   UNL     1       1.615   7.835  20.756  0.00  0.00    +0.000 A 
ATOM      7  C   UNL     1       0.870   9.015  20.833  0.00  0.00    +0.000 A 
ATOM      8  C   UNL     1       0.675   9.827  19.714  0.00  0.00    +0.000 A 
ATOM      9  C   UNL     1       1.299   9.450  18.519  0.00  0.00    +0.000 A 
ATOM     10  C   UNL     1       2.053   8.267  18.437  0.00  0.00    +0.000 A 
BRANCH   8  11
ATOM     11  N   UNL     1      -0.054  11.030  19.775  0.00  0.00    +0.000 N 
ATOM     12  H   UNL     1      -0.965  10.945  20.206  0.00  0.00    +0.000 HD
BRANCH  11  13
ATOM     13  C   UNL     1       0.392  12.351  19.585  0.00  0.00    +0.000 A 
ATOM     14  C   UNL     1       1.609  12.795  20.119  0.00  0.00    +0.000 A 
ATOM     15  C   UNL     1       2.020  14.121  19.983  0.00  0.00    +0.000 A 
ATOM     16  C   UNL     1       1.211  15.031  19.310  0.00  0.00    +0.000 A 
ATOM     17  C   UNL     1      -0.007  14.611  18.777  0.00  0.00    +0.000 A 
ATOM     18  C   UNL     1      -0.414  13.279  18.915  0.00  0.00    +0.000 A 
ENDBRANCH  11  13
ENDBRANCH   8  11
ENDBRANCH   3   5
BRANCH   2  19
ATOM     19  C   UNL     1       3.426   3.843  19.645  0.00  0.00    +0.000 C 
BRANCH  19  20
ATOM     20  O   UNL     1       3.728   3.471  18.305  0.00  0.00    +0.000 OA
BRANCH  20  21
ATOM     21  C   UNL     1       4.905   3.989  17.812  0.00  0.00    +0.000 A 
ATOM     22  C   UNL     1       5.918   4.538  18.596  0.00  0.00    +0.000 A 
ATOM     23  C   UNL     1       7.078   5.019  18.002  0.00  0.00    +0.000 A 
ATOM     24  C   UNL     1       7.237   4.946  16.619  0.00  0.00    +0.000 A 
ATOM     25  C   UNL     1       6.245   4.399  15.796  0.00  0.00    +0.000 A 
ATOM     26  C   UNL     1       5.067   3.936  16.416  0.00  0.00    +0.000 A 
BRANCH  25  27
ATOM     27  N   UNL     1       6.432   4.297  14.387  0.00  0.00    +0.000 N 
ATOM     28  C   UNL     1       5.546   3.543  13.532  0.00  0.00    +0.000 C 
ATOM     29  C   UNL     1       6.325   3.359  12.246  0.00  0.00    +0.000 C 
ATOM     30  C   UNL     1       7.206   4.589  12.179  0.00  0.00    +0.000 C 
ATOM     31  C   UNL     1       7.420   4.947  13.629  0.00  0.00    +0.000 C 
ATOM     32  O   UNL     1       8.299   5.718  13.986  0.00  0.00    +0.000 OA
ENDBRANCH  25  27
ENDBRANCH  20  21
ENDBRANCH  19  20
ENDBRANCH   2  19
TORSDOF 7
ENDMDL
