MODEL 1
REMARK VINA RESULT:      -8.1      0.000      0.000
REMARK  Name = 
REMARK  6 active torsions:
REMARK  status: ('A' for Active; 'I' for Inactive)
REMARK    1  A    between atoms: C_1  and  C_2
REMARK    2  A    between atoms: C_7  and  S_8
REMARK    3  A    between atoms: S_8  and  N_11
REMARK    4  A    between atoms: C_14  and  O_15
REMARK    5  A    between atoms: O_15  and  C_16
REMARK    6  A    between atoms: C_21  and  N_22
REMARK                            x       y       z     vdW  Elec       q    Type
REMARK                         _______ _______ _______ _____ _____    ______ ____
ROOT
ATOM      1  N   UNL     1       2.889   4.003  19.415  0.00  0.00    +0.000 NA
ATOM      2  C   UNL     1       1.716   4.212  18.558  0.00  0.00    +0.000 C 
ATOM      3  C   UNL     1       1.918   5.609  18.001  0.00  0.00    +0.000 C 
ATOM      4  C   UNL     1       2.633   6.375  19.120  0.00  0.00    +0.000 C 
ATOM      5  C   UNL     1       3.140   5.291  20.093  0.00  0.00    +0.000 C 
ENDROOT
BRANCH   1   6
ATOM      6  S   UNL     1       4.173   3.040  18.907  0.00  0.00    +0.000 S 
ATOM      7  O   UNL     1       3.592   1.977  18.104  0.00  0.00    +0.000 OA
ATOM      8  O   UNL     1       4.992   2.718  20.052  0.00  0.00    +0.000 OA
BRANCH   6  15
ATOM      9  C   UNL     1       5.988   4.185  14.096  0.00  0.00    +0.000 C 
ATOM     10  C   UNL     1       5.930   4.528  15.557  0.00  0.00    +0.000 A 
ATOM     11  C   UNL     1       6.769   5.519  16.078  0.00  0.00    +0.000 A 
ATOM     12  C   UNL     1       6.863   5.700  17.454  0.00  0.00    +0.000 A 
ATOM     13  C   UNL     1       6.103   4.910  18.311  0.00  0.00    +0.000 A 
ATOM     14  F   UNL     1       6.320   5.057  19.620  0.00  0.00    +0.000 F 
ATOM     15  C   UNL     1       5.171   4.011  17.811  0.00  0.00    +0.000 A 
ATOM     16  C   UNL     1       5.100   3.800  16.426  0.00  0.00    +0.000 A 
ENDBRANCH   6  15
ENDBRANCH   1   6
BRANCH   4  17
ATOM     17  O   UNL     1       1.700   7.267  19.740  0.00  0.00    +0.000 OA
BRANCH  17  18
ATOM     18  C   UNL     1       1.683   8.556  19.249  0.00  0.00    +0.000 A 
ATOM     19  C   UNL     1       2.298   8.906  18.038  0.00  0.00    +0.000 A 
ATOM     20  C   UNL     1       2.310  10.228  17.620  0.00  0.00    +0.000 A 
ATOM     21  C   UNL     1       1.688  11.157  18.424  0.00  0.00    +0.000 A 
ATOM     22  N   UNL     1       1.082  10.856  19.591  0.00  0.00    +0.000 NA
ATOM     23  C   UNL     1       1.052   9.563  20.012  0.00  0.00    +0.000 A 
BRANCH  23  24
ATOM     24  N   UNL     1       0.462   9.315  21.236  0.00  0.00    +0.000 N 
ATOM     25  C   UNL     1      -0.887   9.762  21.559  0.00  0.00    +0.000 C 
ATOM     26  C   UNL     1      -0.785  10.231  23.011  0.00  0.00    +0.000 C 
ATOM     27  C   UNL     1       0.315   9.356  23.591  0.00  0.00    +0.000 C 
ATOM     28  C   UNL     1       1.294   9.196  22.429  0.00  0.00    +0.000 C 
ENDBRANCH  23  24
ENDBRANCH  17  18
ENDBRANCH   4  17
TORSDOF 5
ENDMDL
MODEL 2
REMARK VINA RESULT:      -8.0      3.243      8.010
REMARK  Name = 
REMARK  6 active torsions:
REMARK  status: ('A' for Active; 'I' for Inactive)
REMARK    1  A    between atoms: C_1  and  C_2
REMARK    2  A    between atoms: C_7  and  S_8
REMARK    3  A    between atoms: S_8  and  N_11
REMARK    4  A    between atoms: C_14  and  O_15
REMARK    5  A    between atoms: O_15  and  C_16
REMARK    6  A    between atoms: C_21  and  N_22
REMARK                            x       y       z     vdW  Elec       q    Type
REMARK                         _______ _______ _______ _____ _____    ______ ____
ROOT
ATOM      1  N   UNL     1       1.861   8.996  19.920  0.00  0.00    +0.000 NA
ATOM      2  C   UNL     1       2.280   9.549  18.627  0.00  0.00    +0.000 C 
ATOM      3  C   UNL     1       1.797   8.521  17.620  0.00  0.00    +0.000 C 
ATOM      4  C   UNL     1       1.912   7.177  18.349  0.00  0.00    +0.000 C 
ATOM      5  C   UNL     1       2.084   7.538  19.839  0.00  0.00    +0.000 C 
ENDROOT
BRANCH   1   6
ATOM      6  S   UNL     1       0.519   9.611  20.732  0.00  0.00    +0.000 S 
ATOM      7  O   UNL     1       1.032  10.580  21.687  0.00  0.00    +0.000 OA
ATOM      8  O   UNL     1      -0.294   8.507  21.185  0.00  0.00    +0.000 OA
BRANCH   6  15
ATOM      9  C   UNL     1      -3.083   9.848  16.896  0.00  0.00    +0.000 C 
ATOM     10  C   UNL     1      -2.159  10.575  17.831  0.00  0.00    +0.000 A 
ATOM     11  C   UNL     1      -1.953  11.951  17.683  0.00  0.00    +0.000 A 
ATOM     12  C   UNL     1      -0.954  12.588  18.412  0.00  0.00    +0.000 A 
ATOM     13  C   UNL     1      -0.175  11.859  19.305  0.00  0.00    +0.000 A 
ATOM     14  F   UNL     1       0.838  12.504  19.890  0.00  0.00    +0.000 F 
ATOM     15  C   UNL     1      -0.447  10.522  19.560  0.00  0.00    +0.000 A 
ATOM     16  C   UNL     1      -1.430   9.868  18.802  0.00  0.00    +0.000 A 
ENDBRANCH   6  15
ENDBRANCH   1   6
BRANCH   4  17
ATOM     17  O   UNL     1       3.039   6.463  17.831  0.00  0.00    +0.000 OA
BRANCH  17  18
ATOM     18  C   UNL     1       2.961   5.087  17.895  0.00  0.00    +0.000 A 
ATOM     19  C   UNL     1       1.737   4.407  17.954  0.00  0.00    +0.000 A 
ATOM     20  C   UNL     1       1.712   3.027  18.083  0.00  0.00    +0.000 A 
ATOM     21  C   UNL     1       2.922   2.369  18.134  0.00  0.00    +0.000 A 
ATOM     22  N   UNL     1       4.118   2.990  18.074  0.00  0.00    +0.000 NA
ATOM     23  C   UNL     1       4.161   4.342  17.936  0.00  0.00    +0.000 A 
BRANCH  23  24
ATOM     24  N   UNL     1       5.409   4.933  17.928  0.00  0.00    +0.000 N 
ATOM     25  C   UNL     1       6.401   4.652  16.899  0.00  0.00    +0.000 C 
ATOM     26  C   UNL     1       7.723   4.579  17.666  0.00  0.00    +0.000 C 
ATOM     27  C   UNL     1       7.505   5.524  18.837  0.00  0.00    +0.000 C 
ATOM     28  C   UNL     1       6.032   5.324  19.189  0.00  0.00    +0.000 C 
ENDBRANCH  23  24
ENDBRANCH  17  18
ENDBRANCH   4  17
TORSDOF 5
ENDMDL
MODEL 3
REMARK VINA RESULT:      -7.9      3.735      8.742
REMARK  Name = 
REMARK  6 active torsions:
REMARK  status: ('A' for Active; 'I' for Inactive)
REMARK    1  A    between atoms: C_1  and  C_2
REMARK    2  A    between atoms: C_7  and  S_8
REMARK    3  A    between atoms: S_8  and  N_11
REMARK    4  A    between atoms: C_14  and  O_15
REMARK    5  A    between atoms: O_15  and  C_16
REMARK    6  A    between atoms: C_21  and  N_22
REMARK                            x       y       z     vdW  Elec       q    Type
REMARK                         _______ _______ _______ _____ _____    ______ ____
ROOT
ATOM      1  N   UNL     1       0.144  10.043  19.843  0.00  0.00    +0.000 NA
ATOM      2  C   UNL     1       0.196   8.868  20.721  0.00  0.00    +0.000 C 
ATOM      3  C   UNL     1       1.601   8.330  20.523  0.00  0.00    +0.000 C 
ATOM      4  C   UNL     1       1.938   8.648  19.061  0.00  0.00    +0.000 C 
ATOM      5  C   UNL     1       0.879   9.676  18.615  0.00  0.00    +0.000 C 
ENDROOT
BRANCH   1   6
ATOM      6  S   UNL     1       0.258  11.601  20.473  0.00  0.00    +0.000 S 
ATOM      7  O   UNL     1       0.704  12.450  19.381  0.00  0.00    +0.000 OA
ATOM      8  O   UNL     1       1.010  11.549  21.705  0.00  0.00    +0.000 OA
BRANCH   6  15
ATOM      9  C   UNL     1      -3.574  12.482  23.979  0.00  0.00    +0.000 C 
ATOM     10  C   UNL     1      -3.092  12.574  22.559  0.00  0.00    +0.000 A 
ATOM     11  C   UNL     1      -3.978  12.944  21.542  0.00  0.00    +0.000 A 
ATOM     12  C   UNL     1      -3.592  12.838  20.210  0.00  0.00    +0.000 A 
ATOM     13  C   UNL     1      -2.316  12.384  19.891  0.00  0.00    +0.000 A 
ATOM     14  F   UNL     1      -2.046  12.199  18.596  0.00  0.00    +0.000 F 
ATOM     15  C   UNL     1      -1.380  12.134  20.886  0.00  0.00    +0.000 A 
ATOM     16  C   UNL     1      -1.777  12.206  22.230  0.00  0.00    +0.000 A 
ENDBRANCH   6  15
ENDBRANCH   1   6
BRANCH   4  17
ATOM     17  O   UNL     1       1.874   7.438  18.297  0.00  0.00    +0.000 OA
BRANCH  17  18
ATOM     18  C   UNL     1       3.069   6.768  18.131  0.00  0.00    +0.000 A 
ATOM     19  C   UNL     1       4.134   7.305  17.394  0.00  0.00    +0.000 A 
ATOM     20  C   UNL     1       5.290   6.565  17.200  0.00  0.00    +0.000 A 
ATOM     21  C   UNL     1       5.347   5.311  17.767  0.00  0.00    +0.000 A 
ATOM     22  N   UNL     1       4.345   4.766  18.487  0.00  0.00    +0.000 NA
ATOM     23  C   UNL     1       3.208   5.481  18.696  0.00  0.00    +0.000 A 
BRANCH  23  24
ATOM     24  N   UNL     1       2.195   4.859  19.399  0.00  0.00    +0.000 N 
ATOM     25  C   UNL     1       2.188   4.775  20.853  0.00  0.00    +0.000 C 
ATOM     26  C   UNL     1       1.676   3.363  21.141  0.00  0.00    +0.000 C 
ATOM     27  C   UNL     1       0.766   3.068  19.961  0.00  0.00    +0.000 C 
ATOM     28  C   UNL     1       1.468   3.751  18.788  0.00  0.00    +0.000 C 
ENDBRANCH  23  24
ENDBRANCH  17  18
ENDBRANCH   4  17
TORSDOF 5
ENDMDL
MODEL 4
REMARK VINA RESULT:      -7.8      3.440      8.488
REMARK  Name = 
REMARK  6 active torsions:
REMARK  status: ('A' for Active; 'I' for Inactive)
REMARK    1  A    between atoms: C_1  and  C_2
REMARK    2  A    between atoms: C_7  and  S_8
REMARK    3  A    between atoms: S_8  and  N_11
REMARK    4  A    between atoms: C_14  and  O_15
REMARK    5  A    between atoms: O_15  and  C_16
REMARK    6  A    between atoms: C_21  and  N_22
REMARK                            x       y       z     vdW  Elec       q    Type
REMARK                         _______ _______ _______ _____ _____    ______ ____
ROOT
ATOM      1  N   UNL     1       0.260   9.274  20.695  0.00  0.00    +0.000 NA
ATOM      2  C   UNL     1       0.021   7.933  21.241  0.00  0.00    +0.000 C 
ATOM      3  C   UNL     1       1.365   7.242  21.105  0.00  0.00    +0.000 C 
ATOM      4  C   UNL     1       1.982   7.836  19.832  0.00  0.00    +0.000 C 
ATOM      5  C   UNL     1       1.144   9.094  19.525  0.00  0.00    +0.000 C 
ENDROOT
BRANCH   1   6
ATOM      6  S   UNL     1       0.449  10.604  21.712  0.00  0.00    +0.000 S 
ATOM      7  O   UNL     1       1.433  11.465  21.076  0.00  0.00    +0.000 OA
ATOM      8  O   UNL     1       0.664  10.130  23.059  0.00  0.00    +0.000 OA
BRANCH   6  15
ATOM      9  C   UNL     1      -3.846  12.420  24.161  0.00  0.00    +0.000 C 
ATOM     10  C   UNL     1      -3.014  12.360  22.912  0.00  0.00    +0.000 A 
ATOM     11  C   UNL     1      -3.509  12.889  21.714  0.00  0.00    +0.000 A 
ATOM     12  C   UNL     1      -2.834  12.659  20.520  0.00  0.00    +0.000 A 
ATOM     13  C   UNL     1      -1.653  11.923  20.521  0.00  0.00    +0.000 A 
ATOM     14  F   UNL     1      -1.113  11.644  19.332  0.00  0.00    +0.000 F 
ATOM     15  C   UNL     1      -1.079  11.500  21.713  0.00  0.00    +0.000 A 
ATOM     16  C   UNL     1      -1.775  11.699  22.915  0.00  0.00    +0.000 A 
ENDBRANCH   6  15
ENDBRANCH   1   6
BRANCH   4  17
ATOM     17  O   UNL     1       1.905   6.864  18.784  0.00  0.00    +0.000 OA
BRANCH  17  18
ATOM     18  C   UNL     1       3.111   6.467  18.243  0.00  0.00    +0.000 A 
ATOM     19  C   UNL     1       3.904   7.324  17.466  0.00  0.00    +0.000 A 
ATOM     20  C   UNL     1       5.075   6.858  16.890  0.00  0.00    +0.000 A 
ATOM     21  C   UNL     1       5.423   5.546  17.125  0.00  0.00    +0.000 A 
ATOM     22  N   UNL     1       4.689   4.695  17.871  0.00  0.00    +0.000 NA
ATOM     23  C   UNL     1       3.543   5.138  18.452  0.00  0.00    +0.000 A 
BRANCH  23  24
ATOM     24  N   UNL     1       2.803   4.216  19.166  0.00  0.00    +0.000 N 
ATOM     25  C   UNL     1       1.472   3.792  18.753  0.00  0.00    +0.000 C 
ATOM     26  C   UNL     1       0.687   3.700  20.063  0.00  0.00    +0.000 C 
ATOM     27  C   UNL     1       1.750   3.340  21.088  0.00  0.00    +0.000 C 
ATOM     28  C   UNL     1       2.982   4.108  20.611  0.00  0.00    +0.000 C 
ENDBRANCH  23  24
ENDBRANCH  17  18
ENDBRANCH   4  17
TORSDOF 5
ENDMDL
MODEL 5
REMARK VINA RESULT:      -7.7      3.452      8.362
REMARK  Name = 
REMARK  6 active torsions:
REMARK  status: ('A' for Active; 'I' for Inactive)
REMARK    1  A    between atoms: C_1  and  C_2
REMARK    2  A    between atoms: C_7  and  S_8
REMARK    3  A    between atoms: S_8  and  N_11
REMARK    4  A    between atoms: C_14  and  O_15
REMARK    5  A    between atoms: O_15  and  C_16
REMARK    6  A    between atoms: C_21  and  N_22
REMARK                            x       y       z     vdW  Elec       q    Type
REMARK                         _______ _______ _______ _____ _____    ______ ____
ROOT
ATOM      1  N   UNL     1       1.574   9.464  19.081  0.00  0.00    +0.000 NA
ATOM      2  C   UNL     1       2.341   9.056  17.897  0.00  0.00    +0.000 C 
ATOM      3  C   UNL     1       2.159   7.551  17.850  0.00  0.00    +0.000 C 
ATOM      4  C   UNL     1       2.061   7.123  19.319  0.00  0.00    +0.000 C 
ATOM      5  C   UNL     1       1.807   8.426  20.104  0.00  0.00    +0.000 C 
ENDROOT
BRANCH   1   6
ATOM      6  S   UNL     1       0.059  10.185  18.926  0.00  0.00    +0.000 S 
ATOM      7  O   UNL     1      -0.660   9.887  20.153  0.00  0.00    +0.000 OA
ATOM      8  O   UNL     1      -0.502   9.814  17.648  0.00  0.00    +0.000 OA
BRANCH   6  15
ATOM      9  C   UNL     1       3.124  14.442  19.412  0.00  0.00    +0.000 C 
ATOM     10  C   UNL     1       1.778  13.865  19.079  0.00  0.00    +0.000 A 
ATOM     11  C   UNL     1       0.681  14.713  18.885  0.00  0.00    +0.000 A 
ATOM     12  C   UNL     1      -0.599  14.181  18.775  0.00  0.00    +0.000 A 
ATOM     13  C   UNL     1      -0.785  12.803  18.835  0.00  0.00    +0.000 A 
ATOM     14  F   UNL     1      -2.046  12.363  18.834  0.00  0.00    +0.000 F 
ATOM     15  C   UNL     1       0.301  11.940  18.897  0.00  0.00    +0.000 A 
ATOM     16  C   UNL     1       1.590  12.474  19.044  0.00  0.00    +0.000 A 
ENDBRANCH   6  15
ENDBRANCH   1   6
BRANCH   4  17
ATOM     17  O   UNL     1       3.287   6.489  19.700  0.00  0.00    +0.000 OA
BRANCH  17  18
ATOM     18  C   UNL     1       3.247   5.114  19.803  0.00  0.00    +0.000 A 
ATOM     19  C   UNL     1       2.223   4.442  20.485  0.00  0.00    +0.000 A 
ATOM     20  C   UNL     1       2.263   3.062  20.617  0.00  0.00    +0.000 A 
ATOM     21  C   UNL     1       3.325   2.397  20.045  0.00  0.00    +0.000 A 
ATOM     22  N   UNL     1       4.324   3.010  19.377  0.00  0.00    +0.000 NA
ATOM     23  C   UNL     1       4.295   4.361  19.229  0.00  0.00    +0.000 A 
BRANCH  23  24
ATOM     24  N   UNL     1       5.366   4.944  18.578  0.00  0.00    +0.000 N 
ATOM     25  C   UNL     1       5.738   4.593  17.214  0.00  0.00    +0.000 C 
ATOM     26  C   UNL     1       7.267   4.563  17.243  0.00  0.00    +0.000 C 
ATOM     27  C   UNL     1       7.623   5.580  18.314  0.00  0.00    +0.000 C 
ATOM     28  C   UNL     1       6.513   5.411  19.350  0.00  0.00    +0.000 C 
ENDBRANCH  23  24
ENDBRANCH  17  18
ENDBRANCH   4  17
TORSDOF 5
ENDMDL
MODEL 6
REMARK VINA RESULT:      -7.7      3.627      8.652
REMARK  Name = 
REMARK  6 active torsions:
REMARK  status: ('A' for Active; 'I' for Inactive)
REMARK    1  A    between atoms: C_1  and  C_2
REMARK    2  A    between atoms: C_7  and  S_8
REMARK    3  A    between atoms: S_8  and  N_11
REMARK    4  A    between atoms: C_14  and  O_15
REMARK    5  A    between atoms: O_15  and  C_16
REMARK    6  A    between atoms: C_21  and  N_22
REMARK                            x       y       z     vdW  Elec       q    Type
REMARK                         _______ _______ _______ _____ _____    ______ ____
ROOT
ATOM      1  N   UNL     1       0.151  10.119  19.752  0.00  0.00    +0.000 NA
ATOM      2  C   UNL     1       0.175   8.970  20.665  0.00  0.00    +0.000 C 
ATOM      3  C   UNL     1       1.570   8.399  20.492  0.00  0.00    +0.000 C 
ATOM      4  C   UNL     1       1.921   8.665  19.023  0.00  0.00    +0.000 C 
ATOM      5  C   UNL     1       0.885   9.701  18.540  0.00  0.00    +0.000 C 
ENDROOT
BRANCH   1   6
ATOM      6  S   UNL     1       0.292  11.693  20.335  0.00  0.00    +0.000 S 
ATOM      7  O   UNL     1       0.301  12.559  19.168  0.00  0.00    +0.000 OA
ATOM      8  O   UNL     1       1.382  11.740  21.281  0.00  0.00    +0.000 OA
BRANCH   6  15
ATOM      9  C   UNL     1      -4.266  14.280  20.857  0.00  0.00    +0.000 C 
ATOM     10  C   UNL     1      -3.312  13.250  21.388  0.00  0.00    +0.000 A 
ATOM     11  C   UNL     1      -3.518  12.691  22.654  0.00  0.00    +0.000 A 
ATOM     12  C   UNL     1      -2.536  11.892  23.230  0.00  0.00    +0.000 A 
ATOM     13  C   UNL     1      -1.359  11.630  22.537  0.00  0.00    +0.000 A 
ATOM     14  F   UNL     1      -0.412  10.950  23.188  0.00  0.00    +0.000 F 
ATOM     15  C   UNL     1      -1.190  12.069  21.230  0.00  0.00    +0.000 A 
ATOM     16  C   UNL     1      -2.162  12.904  20.659  0.00  0.00    +0.000 A 
ENDBRANCH   6  15
ENDBRANCH   1   6
BRANCH   4  17
ATOM     17  O   UNL     1       1.837   7.435  18.296  0.00  0.00    +0.000 OA
BRANCH  17  18
ATOM     18  C   UNL     1       3.028   6.762  18.113  0.00  0.00    +0.000 A 
ATOM     19  C   UNL     1       4.098   7.314  17.394  0.00  0.00    +0.000 A 
ATOM     20  C   UNL     1       5.250   6.572  17.181  0.00  0.00    +0.000 A 
ATOM     21  C   UNL     1       5.298   5.302  17.711  0.00  0.00    +0.000 A 
ATOM     22  N   UNL     1       4.291   4.742  18.413  0.00  0.00    +0.000 NA
ATOM     23  C   UNL     1       3.158   5.459  18.641  0.00  0.00    +0.000 A 
BRANCH  23  24
ATOM     24  N   UNL     1       2.139   4.823  19.323  0.00  0.00    +0.000 N 
ATOM     25  C   UNL     1       2.051   4.824  20.777  0.00  0.00    +0.000 C 
ATOM     26  C   UNL     1       1.598   3.404  21.123  0.00  0.00    +0.000 C 
ATOM     27  C   UNL     1       0.776   2.990  19.914  0.00  0.00    +0.000 C 
ATOM     28  C   UNL     1       1.509   3.641  18.742  0.00  0.00    +0.000 C 
ENDBRANCH  23  24
ENDBRANCH  17  18
ENDBRANCH   4  17
TORSDOF 5
ENDMDL
MODEL 7
REMARK VINA RESULT:      -7.7      0.986      1.660
REMARK  Name = 
REMARK  6 active torsions:
REMARK  status: ('A' for Active; 'I' for Inactive)
REMARK    1  A    between atoms: C_1  and  C_2
REMARK    2  A    between atoms: C_7  and  S_8
REMARK    3  A    between atoms: S_8  and  N_11
REMARK    4  A    between atoms: C_14  and  O_15
REMARK    5  A    between atoms: O_15  and  C_16
REMARK    6  A    between atoms: C_21  and  N_22
REMARK                            x       y       z     vdW  Elec       q    Type
REMARK                         _______ _______ _______ _____ _____    ______ ____
ROOT
ATOM      1  N   UNL     1       3.121   4.199  19.655  0.00  0.00    +0.000 NA
ATOM      2  C   UNL     1       1.762   4.141  19.102  0.00  0.00    +0.000 C 
ATOM      3  C   UNL     1       1.652   5.409  18.277  0.00  0.00    +0.000 C 
ATOM      4  C   UNL     1       2.511   6.437  19.024  0.00  0.00    +0.000 C 
ATOM      5  C   UNL     1       3.364   5.612  20.009  0.00  0.00    +0.000 C 
ENDROOT
BRANCH   1   6
ATOM      6  S   UNL     1       4.359   3.255  19.012  0.00  0.00    +0.000 S 
ATOM      7  O   UNL     1       3.727   2.333  18.083  0.00  0.00    +0.000 OA
ATOM      8  O   UNL     1       5.168   2.750  20.096  0.00  0.00    +0.000 OA
BRANCH   6  15
ATOM      9  C   UNL     1       8.167   6.869  18.580  0.00  0.00    +0.000 C 
ATOM     10  C   UNL     1       7.198   5.943  17.902  0.00  0.00    +0.000 A 
ATOM     11  C   UNL     1       7.011   6.017  16.517  0.00  0.00    +0.000 A 
ATOM     12  C   UNL     1       5.979   5.306  15.915  0.00  0.00    +0.000 A 
ATOM     13  C   UNL     1       5.146   4.503  16.688  0.00  0.00    +0.000 A 
ATOM     14  F   UNL     1       4.108   3.935  16.069  0.00  0.00    +0.000 F 
ATOM     15  C   UNL     1       5.395   4.316  18.042  0.00  0.00    +0.000 A 
ATOM     16  C   UNL     1       6.412   5.058  18.658  0.00  0.00    +0.000 A 
ENDBRANCH   6  15
ENDBRANCH   1   6
BRANCH   4  17
ATOM     17  O   UNL     1       1.647   7.360  19.696  0.00  0.00    +0.000 OA
BRANCH  17  18
ATOM     18  C   UNL     1       1.666   8.655  19.221  0.00  0.00    +0.000 A 
ATOM     19  C   UNL     1       2.318   9.009  18.031  0.00  0.00    +0.000 A 
ATOM     20  C   UNL     1       2.365  10.335  17.630  0.00  0.00    +0.000 A 
ATOM     21  C   UNL     1       1.739  11.266  18.430  0.00  0.00    +0.000 A 
ATOM     22  N   UNL     1       1.098  10.961  19.577  0.00  0.00    +0.000 NA
ATOM     23  C   UNL     1       1.033   9.665  19.980  0.00  0.00    +0.000 A 
BRANCH  23  24
ATOM     24  N   UNL     1       0.407   9.412  21.185  0.00  0.00    +0.000 N 
ATOM     25  C   UNL     1      -0.925   9.914  21.494  0.00  0.00    +0.000 C 
ATOM     26  C   UNL     1      -0.831  10.339  22.961  0.00  0.00    +0.000 C 
ATOM     27  C   UNL     1       0.214   9.398  23.536  0.00  0.00    +0.000 C 
ATOM     28  C   UNL     1       1.208   9.222  22.390  0.00  0.00    +0.000 C 
ENDBRANCH  23  24
ENDBRANCH  17  18
ENDBRANCH   4  17
TORSDOF 5
ENDMDL
MODEL 8
REMARK VINA RESULT:      -7.7      3.404      8.252
REMARK  Name = 
REMARK  6 active torsions:
REMARK  status: ('A' for Active; 'I' for Inactive)
REMARK    1  A    between atoms: C_1  and  C_2
REMARK    2  A    between atoms: C_7  and  S_8
REMARK    3  A    between atoms: S_8  and  N_11
REMARK    4  A    between atoms: C_14  and  O_15
REMARK    5  A    between atoms: O_15  and  C_16
REMARK    6  A    between atoms: C_21  and  N_22
REMARK                            x       y       z     vdW  Elec       q    Type
REMARK                         _______ _______ _______ _____ _____    ______ ____
ROOT
ATOM      1  N   UNL     1       1.599   9.402  19.049  0.00  0.00    +0.000 NA
ATOM      2  C   UNL     1       2.367   9.015  17.860  0.00  0.00    +0.000 C 
ATOM      3  C   UNL     1       2.147   7.517  17.759  0.00  0.00    +0.000 C 
ATOM      4  C   UNL     1       2.023   7.042  19.211  0.00  0.00    +0.000 C 
ATOM      5  C   UNL     1       1.796   8.324  20.039  0.00  0.00    +0.000 C 
ENDROOT
BRANCH   1   6
ATOM      6  S   UNL     1       0.105  10.167  18.906  0.00  0.00    +0.000 S 
ATOM      7  O   UNL     1      -0.602   9.913  20.150  0.00  0.00    +0.000 OA
ATOM      8  O   UNL     1      -0.488   9.792  17.644  0.00  0.00    +0.000 OA
BRANCH   6  15
ATOM      9  C   UNL     1       3.303  14.336  19.287  0.00  0.00    +0.000 C 
ATOM     10  C   UNL     1       1.937  13.795  18.975  0.00  0.00    +0.000 A 
ATOM     11  C   UNL     1       0.866  14.672  18.774  0.00  0.00    +0.000 A 
ATOM     12  C   UNL     1      -0.431  14.178  18.684  0.00  0.00    +0.000 A 
ATOM     13  C   UNL     1      -0.659  12.808  18.772  0.00  0.00    +0.000 A 
ATOM     14  F   UNL     1      -1.933  12.407  18.789  0.00  0.00    +0.000 F 
ATOM     15  C   UNL     1       0.400  11.913  18.842  0.00  0.00    +0.000 A 
ATOM     16  C   UNL     1       1.706  12.409  18.968  0.00  0.00    +0.000 A 
ENDBRANCH   6  15
ENDBRANCH   1   6
BRANCH   4  17
ATOM     17  O   UNL     1       3.229   6.364  19.581  0.00  0.00    +0.000 OA
BRANCH  17  18
ATOM     18  C   UNL     1       3.080   5.060  20.005  0.00  0.00    +0.000 A 
ATOM     19  C   UNL     1       2.190   4.700  21.026  0.00  0.00    +0.000 A 
ATOM     20  C   UNL     1       2.125   3.385  21.462  0.00  0.00    +0.000 A 
ATOM     21  C   UNL     1       2.947   2.467  20.846  0.00  0.00    +0.000 A 
ATOM     22  N   UNL     1       3.810   2.777  19.857  0.00  0.00    +0.000 NA
ATOM     23  C   UNL     1       3.880   4.059  19.410  0.00  0.00    +0.000 A 
BRANCH  23  24
ATOM     24  N   UNL     1       4.814   4.333  18.430  0.00  0.00    +0.000 N 
ATOM     25  C   UNL     1       6.062   5.031  18.711  0.00  0.00    +0.000 C 
ATOM     26  C   UNL     1       6.244   5.964  17.512  0.00  0.00    +0.000 C 
ATOM     27  C   UNL     1       5.566   5.216  16.375  0.00  0.00    +0.000 C 
ATOM     28  C   UNL     1       4.377   4.537  17.052  0.00  0.00    +0.000 C 
ENDBRANCH  23  24
ENDBRANCH  17  18
ENDBRANCH   4  17
TORSDOF 5
ENDMDL
MODEL 9
REMARK VINA RESULT:      -7.5      3.192      8.647
REMARK  Name = 
REMARK  6 active torsions:
REMARK  status: ('A' for Active; 'I' for Inactive)
REMARK    1  A    between atoms: C_1  and  C_2
REMARK    2  A    between atoms: C_7  and  S_8
REMARK    3  A    between atoms: S_8  and  N_11
REMARK    4  A    between atoms: C_14  and  O_15
REMARK    5  A    between atoms: O_15  and  C_16
REMARK    6  A    between atoms: C_21  and  N_22
REMARK                            x       y       z     vdW  Elec       q    Type
REMARK                         _______ _______ _______ _____ _____    ______ ____
ROOT
ATOM      1  N   UNL     1       1.515   9.492  19.436  0.00  0.00    +0.000 NA
ATOM      2  C   UNL     1       2.144   9.361  18.116  0.00  0.00    +0.000 C 
ATOM      3  C   UNL     1       1.972   7.892  17.778  0.00  0.00    +0.000 C 
ATOM      4  C   UNL     1       2.049   7.169  19.128  0.00  0.00    +0.000 C 
ATOM      5  C   UNL     1       1.876   8.274  20.190  0.00  0.00    +0.000 C 
ENDROOT
BRANCH   1   6
ATOM      6  S   UNL     1      -0.014  10.178  19.604  0.00  0.00    +0.000 S 
ATOM      7  O   UNL     1      -0.740   9.330  20.536  0.00  0.00    +0.000 OA
ATOM      8  O   UNL     1      -0.552  10.437  18.289  0.00  0.00    +0.000 OA
BRANCH   6  15
ATOM      9  C   UNL     1      -1.289  13.661  23.344  0.00  0.00    +0.000 C 
ATOM     10  C   UNL     1      -0.406  13.292  22.187  0.00  0.00    +0.000 A 
ATOM     11  C   UNL     1       0.475  14.236  21.648  0.00  0.00    +0.000 A 
ATOM     12  C   UNL     1       1.144  13.966  20.459  0.00  0.00    +0.000 A 
ATOM     13  C   UNL     1       0.955  12.745  19.818  0.00  0.00    +0.000 A 
ATOM     14  F   UNL     1       1.538  12.590  18.627  0.00  0.00    +0.000 F 
ATOM     15  C   UNL     1       0.186  11.747  20.402  0.00  0.00    +0.000 A 
ATOM     16  C   UNL     1      -0.518  12.029  21.582  0.00  0.00    +0.000 A 
ENDBRANCH   6  15
ENDBRANCH   1   6
BRANCH   4  17
ATOM     17  O   UNL     1       3.318   6.512  19.230  0.00  0.00    +0.000 OA
BRANCH  17  18
ATOM     18  C   UNL     1       3.280   5.187  19.611  0.00  0.00    +0.000 A 
ATOM     19  C   UNL     1       2.454   4.726  20.645  0.00  0.00    +0.000 A 
ATOM     20  C   UNL     1       2.501   3.396  21.034  0.00  0.00    +0.000 A 
ATOM     21  C   UNL     1       3.367   2.564  20.360  0.00  0.00    +0.000 A 
ATOM     22  N   UNL     1       4.171   2.971  19.356  0.00  0.00    +0.000 NA
ATOM     23  C   UNL     1       4.131   4.269  18.955  0.00  0.00    +0.000 A 
BRANCH  23  24
ATOM     24  N   UNL     1       5.009   4.646  17.957  0.00  0.00    +0.000 N 
ATOM     25  C   UNL     1       4.721   4.439  16.543  0.00  0.00    +0.000 C 
ATOM     26  C   UNL     1       6.061   3.998  15.952  0.00  0.00    +0.000 C 
ATOM     27  C   UNL     1       7.084   4.692  16.836  0.00  0.00    +0.000 C 
ATOM     28  C   UNL     1       6.444   4.655  18.222  0.00  0.00    +0.000 C 
ENDBRANCH  23  24
ENDBRANCH  17  18
ENDBRANCH   4  17
TORSDOF 5
ENDMDL
