MODEL 1
REMARK VINA RESULT:      -8.8      0.000      0.000
REMARK  Name = 
REMARK  7 active torsions:
REMARK  status: ('A' for Active; 'I' for Inactive)
REMARK    1  A    between atoms: C_2  and  C_3
REMARK    2  A    between atoms: C_3  and  S_4
REMARK    3  A    between atoms: S_4  and  C_5
REMARK    4  A    between atoms: N_9  and  C_10
REMARK    5  A    between atoms: N_16  and  C_17
REMARK    6  A    between atoms: C_22  and  C_23
REMARK    7  A    between atoms: C_23  and  C_24
REMARK                            x       y       z     vdW  Elec       q    Type
REMARK                         _______ _______ _______ _____ _____    ______ ____
ROOT
ATOM      1  O   UNL     1       5.036   2.601  19.690  0.00  0.00    +0.000 OA
ATOM      2  C   UNL     1       4.488   2.901  18.632  0.00  0.00    +0.000 C 
ATOM      3  N   UNL     1       4.751   4.028  17.865  0.00  0.00    +0.000 N 
ATOM      4  H   UNL     1       4.060   4.260  17.160  0.00  0.00    +0.000 HD
ENDROOT
BRANCH   3   5
ATOM      5  C   UNL     1       5.809   4.953  18.046  0.00  0.00    +0.000 A 
ATOM      6  C   UNL     1       6.542   4.990  19.241  0.00  0.00    +0.000 A 
ATOM      7  C   UNL     1       7.617   5.862  19.409  0.00  0.00    +0.000 A 
ATOM      8  C   UNL     1       7.994   6.709  18.377  0.00  0.00    +0.000 A 
ATOM      9  C   UNL     1       7.282   6.688  17.180  0.00  0.00    +0.000 A 
ATOM     10  C   UNL     1       6.176   5.827  16.999  0.00  0.00    +0.000 A 
BRANCH  10  11
ATOM     11  C   UNL     1       5.438   5.930  15.676  0.00  0.00    +0.000 C 
BRANCH  11  12
ATOM     12  C   UNL     1       6.006   5.164  14.494  0.00  0.00    +0.000 A 
ATOM     13  C   UNL     1       7.260   5.427  13.927  0.00  0.00    +0.000 A 
ATOM     14  C   UNL     1       7.699   4.716  12.806  0.00  0.00    +0.000 A 
ATOM     15  C   UNL     1       6.902   3.724  12.246  0.00  0.00    +0.000 A 
ATOM     16  C   UNL     1       5.662   3.433  12.810  0.00  0.00    +0.000 A 
ATOM     17  C   UNL     1       5.221   4.144  13.928  0.00  0.00    +0.000 A 
ENDBRANCH  11  12
ENDBRANCH  10  11
ENDBRANCH   3   5
BRANCH   2  18
ATOM     18  C   UNL     1       3.412   2.004  18.036  0.00  0.00    +0.000 C 
BRANCH  18  19
ATOM     19  S   UNL     1       1.776   2.760  18.200  0.00  0.00    +0.000 S 
BRANCH  19  20
ATOM     20  C   UNL     1       1.747   3.107  19.902  0.00  0.00    +0.000 A 
ATOM     21  N   UNL     1       1.718   2.182  20.836  0.00  0.00    +0.000 NA
ATOM     22  N   UNL     1       1.998   2.789  22.032  0.00  0.00    +0.000 NA
ATOM     23  C   UNL     1       2.190   4.067  21.790  0.00  0.00    +0.000 A 
ATOM     24  N   UNL     1       1.977   4.352  20.460  0.00  0.00    +0.000 N 
BRANCH  24  25
ATOM     25  C   UNL     1       2.007   5.640  19.864  0.00  0.00    +0.000 A 
ATOM     26  C   UNL     1       1.702   6.774  20.631  0.00  0.00    +0.000 A 
ATOM     27  C   UNL     1       1.791   8.047  20.059  0.00  0.00    +0.000 A 
ATOM     28  C   UNL     1       2.150   8.193  18.721  0.00  0.00    +0.000 A 
ATOM     29  C   UNL     1       2.406   7.067  17.943  0.00  0.00    +0.000 A 
ATOM     30  C   UNL     1       2.331   5.793  18.510  0.00  0.00    +0.000 A 
ENDBRANCH  24  25
ENDBRANCH  19  20
ENDBRANCH  18  19
ENDBRANCH   2  18
TORSDOF 7
ENDMDL
MODEL 2
REMARK VINA RESULT:      -8.8      3.842      6.189
REMARK  Name = 
REMARK  7 active torsions:
REMARK  status: ('A' for Active; 'I' for Inactive)
REMARK    1  A    between atoms: C_2  and  C_3
REMARK    2  A    between atoms: C_3  and  S_4
REMARK    3  A    between atoms: S_4  and  C_5
REMARK    4  A    between atoms: N_9  and  C_10
REMARK    5  A    between atoms: N_16  and  C_17
REMARK    6  A    between atoms: C_22  and  C_23
REMARK    7  A    between atoms: C_23  and  C_24
REMARK                            x       y       z     vdW  Elec       q    Type
REMARK                         _______ _______ _______ _____ _____    ______ ____
ROOT
ATOM      1  O   UNL     1       2.231   7.140  19.818  0.00  0.00    +0.000 OA
ATOM      2  C   UNL     1       2.457   7.206  18.612  0.00  0.00    +0.000 C 
ATOM      3  N   UNL     1       2.673   6.131  17.760  0.00  0.00    +0.000 N 
ATOM      4  H   UNL     1       3.083   6.350  16.859  0.00  0.00    +0.000 HD
ENDROOT
BRANCH   3   5
ATOM      5  C   UNL     1       2.501   4.758  18.062  0.00  0.00    +0.000 A 
ATOM      6  C   UNL     1       1.442   4.321  18.872  0.00  0.00    +0.000 A 
ATOM      7  C   UNL     1       1.235   2.968  19.134  0.00  0.00    +0.000 A 
ATOM      8  C   UNL     1       2.076   2.015  18.577  0.00  0.00    +0.000 A 
ATOM      9  C   UNL     1       3.133   2.425  17.768  0.00  0.00    +0.000 A 
ATOM     10  C   UNL     1       3.372   3.793  17.509  0.00  0.00    +0.000 A 
BRANCH  10  11
ATOM     11  C   UNL     1       4.588   4.127  16.662  0.00  0.00    +0.000 C 
BRANCH  11  12
ATOM     12  C   UNL     1       5.661   5.000  17.290  0.00  0.00    +0.000 A 
ATOM     13  C   UNL     1       6.322   6.031  16.609  0.00  0.00    +0.000 A 
ATOM     14  C   UNL     1       7.337   6.762  17.233  0.00  0.00    +0.000 A 
ATOM     15  C   UNL     1       7.696   6.485  18.547  0.00  0.00    +0.000 A 
ATOM     16  C   UNL     1       7.035   5.479  19.247  0.00  0.00    +0.000 A 
ATOM     17  C   UNL     1       6.022   4.747  18.625  0.00  0.00    +0.000 A 
ENDBRANCH  11  12
ENDBRANCH  10  11
ENDBRANCH   3   5
BRANCH   2  18
ATOM     18  C   UNL     1       2.521   8.554  17.909  0.00  0.00    +0.000 C 
BRANCH  18  19
ATOM     19  S   UNL     1       0.999   9.496  18.177  0.00  0.00    +0.000 S 
BRANCH  19  20
ATOM     20  C   UNL     1       1.647  11.010  18.730  0.00  0.00    +0.000 A 
ATOM     21  N   UNL     1       2.375  11.810  17.982  0.00  0.00    +0.000 NA
ATOM     22  N   UNL     1       2.459  13.018  18.624  0.00  0.00    +0.000 NA
ATOM     23  C   UNL     1       1.778  12.917  19.744  0.00  0.00    +0.000 A 
ATOM     24  N   UNL     1       1.290  11.641  19.908  0.00  0.00    +0.000 N 
BRANCH  24  25
ATOM     25  C   UNL     1       0.590  11.151  21.043  0.00  0.00    +0.000 A 
ATOM     26  C   UNL     1      -0.437  11.914  21.615  0.00  0.00    +0.000 A 
ATOM     27  C   UNL     1      -1.167  11.405  22.694  0.00  0.00    +0.000 A 
ATOM     28  C   UNL     1      -0.857  10.154  23.224  0.00  0.00    +0.000 A 
ATOM     29  C   UNL     1       0.194   9.414  22.689  0.00  0.00    +0.000 A 
ATOM     30  C   UNL     1       0.920   9.911  21.604  0.00  0.00    +0.000 A 
ENDBRANCH  24  25
ENDBRANCH  19  20
ENDBRANCH  18  19
ENDBRANCH   2  18
TORSDOF 7
ENDMDL
MODEL 3
REMARK VINA RESULT:      -8.7      4.282      8.084
REMARK  Name = 
REMARK  7 active torsions:
REMARK  status: ('A' for Active; 'I' for Inactive)
REMARK    1  A    between atoms: C_2  and  C_3
REMARK    2  A    between atoms: C_3  and  S_4
REMARK    3  A    between atoms: S_4  and  C_5
REMARK    4  A    between atoms: N_9  and  C_10
REMARK    5  A    between atoms: N_16  and  C_17
REMARK    6  A    between atoms: C_22  and  C_23
REMARK    7  A    between atoms: C_23  and  C_24
REMARK                            x       y       z     vdW  Elec       q    Type
REMARK                         _______ _______ _______ _____ _____    ______ ____
ROOT
ATOM      1  O   UNL     1       1.427   8.925  20.344  0.00  0.00    +0.000 OA
ATOM      2  C   UNL     1       1.668   8.932  19.139  0.00  0.00    +0.000 C 
ATOM      3  N   UNL     1       1.471   9.998  18.272  0.00  0.00    +0.000 N 
ATOM      4  H   UNL     1       1.485   9.779  17.283  0.00  0.00    +0.000 HD
ENDROOT
BRANCH   3   5
ATOM      5  C   UNL     1       1.130  11.328  18.622  0.00  0.00    +0.000 A 
ATOM      6  C   UNL     1       2.102  12.338  18.665  0.00  0.00    +0.000 A 
ATOM      7  C   UNL     1       1.767  13.659  18.960  0.00  0.00    +0.000 A 
ATOM      8  C   UNL     1       0.446  14.005  19.204  0.00  0.00    +0.000 A 
ATOM      9  C   UNL     1      -0.537  13.019  19.165  0.00  0.00    +0.000 A 
ATOM     10  C   UNL     1      -0.215  11.671  18.891  0.00  0.00    +0.000 A 
BRANCH  10  11
ATOM     11  C   UNL     1      -1.357  10.671  18.932  0.00  0.00    +0.000 C 
BRANCH  11  12
ATOM     12  C   UNL     1      -2.272  10.602  17.722  0.00  0.00    +0.000 A 
ATOM     13  C   UNL     1      -2.001   9.831  16.584  0.00  0.00    +0.000 A 
ATOM     14  C   UNL     1      -2.863   9.854  15.484  0.00  0.00    +0.000 A 
ATOM     15  C   UNL     1      -4.014  10.634  15.510  0.00  0.00    +0.000 A 
ATOM     16  C   UNL     1      -4.313  11.389  16.640  0.00  0.00    +0.000 A 
ATOM     17  C   UNL     1      -3.451  11.369  17.739  0.00  0.00    +0.000 A 
ENDBRANCH  11  12
ENDBRANCH  10  11
ENDBRANCH   3   5
BRANCH   2  18
ATOM     18  C   UNL     1       2.240   7.698  18.456  0.00  0.00    +0.000 C 
BRANCH  18  19
ATOM     19  S   UNL     1       2.486   6.357  19.645  0.00  0.00    +0.000 S 
BRANCH  19  20
ATOM     20  C   UNL     1       2.768   5.019  18.574  0.00  0.00    +0.000 A 
ATOM     21  N   UNL     1       1.827   4.190  18.176  0.00  0.00    +0.000 NA
ATOM     22  N   UNL     1       2.331   3.460  17.130  0.00  0.00    +0.000 NA
ATOM     23  C   UNL     1       3.563   3.867  16.924  0.00  0.00    +0.000 A 
ATOM     24  N   UNL     1       3.931   4.812  17.854  0.00  0.00    +0.000 N 
BRANCH  24  25
ATOM     25  C   UNL     1       5.217   5.401  17.988  0.00  0.00    +0.000 A 
ATOM     26  C   UNL     1       5.649   6.359  17.060  0.00  0.00    +0.000 A 
ATOM     27  C   UNL     1       6.890   6.982  17.226  0.00  0.00    +0.000 A 
ATOM     28  C   UNL     1       7.713   6.633  18.294  0.00  0.00    +0.000 A 
ATOM     29  C   UNL     1       7.309   5.647  19.191  0.00  0.00    +0.000 A 
ATOM     30  C   UNL     1       6.066   5.028  19.038  0.00  0.00    +0.000 A 
ENDBRANCH  24  25
ENDBRANCH  19  20
ENDBRANCH  18  19
ENDBRANCH   2  18
TORSDOF 7
ENDMDL
MODEL 4
REMARK VINA RESULT:      -8.6      3.619      7.908
REMARK  Name = 
REMARK  7 active torsions:
REMARK  status: ('A' for Active; 'I' for Inactive)
REMARK    1  A    between atoms: C_2  and  C_3
REMARK    2  A    between atoms: C_3  and  S_4
REMARK    3  A    between atoms: S_4  and  C_5
REMARK    4  A    between atoms: N_9  and  C_10
REMARK    5  A    between atoms: N_16  and  C_17
REMARK    6  A    between atoms: C_22  and  C_23
REMARK    7  A    between atoms: C_23  and  C_24
REMARK                            x       y       z     vdW  Elec       q    Type
REMARK                         _______ _______ _______ _____ _____    ______ ____
ROOT
ATOM      1  O   UNL     1       1.274   6.649  20.983  0.00  0.00    +0.000 OA
ATOM      2  C   UNL     1       1.714   7.475  20.185  0.00  0.00    +0.000 C 
ATOM      3  N   UNL     1       1.341   8.808  20.098  0.00  0.00    +0.000 N 
ATOM      4  H   UNL     1       1.606   9.292  19.247  0.00  0.00    +0.000 HD
ENDROOT
BRANCH   3   5
ATOM      5  C   UNL     1       0.526   9.525  21.008  0.00  0.00    +0.000 A 
ATOM      6  C   UNL     1       0.418   9.130  22.350  0.00  0.00    +0.000 A 
ATOM      7  C   UNL     1      -0.342   9.858  23.264  0.00  0.00    +0.000 A 
ATOM      8  C   UNL     1      -1.000  11.011  22.861  0.00  0.00    +0.000 A 
ATOM      9  C   UNL     1      -0.905  11.424  21.535  0.00  0.00    +0.000 A 
ATOM     10  C   UNL     1      -0.159  10.688  20.588  0.00  0.00    +0.000 A 
BRANCH  10  11
ATOM     11  C   UNL     1      -0.172  11.198  19.157  0.00  0.00    +0.000 C 
BRANCH  11  12
ATOM     12  C   UNL     1      -1.410  10.915  18.324  0.00  0.00    +0.000 A 
ATOM     13  C   UNL     1      -1.475   9.918  17.341  0.00  0.00    +0.000 A 
ATOM     14  C   UNL     1      -2.631   9.746  16.574  0.00  0.00    +0.000 A 
ATOM     15  C   UNL     1      -3.743  10.554  16.789  0.00  0.00    +0.000 A 
ATOM     16  C   UNL     1      -3.705  11.534  17.776  0.00  0.00    +0.000 A 
ATOM     17  C   UNL     1      -2.550  11.709  18.541  0.00  0.00    +0.000 A 
ENDBRANCH  11  12
ENDBRANCH  10  11
ENDBRANCH   3   5
BRANCH   2  18
ATOM     18  C   UNL     1       2.773   7.077  19.166  0.00  0.00    +0.000 C 
BRANCH  18  19
ATOM     19  S   UNL     1       2.283   5.580  18.274  0.00  0.00    +0.000 S 
BRANCH  19  20
ATOM     20  C   UNL     1       3.118   4.366  19.193  0.00  0.00    +0.000 A 
ATOM     21  N   UNL     1       2.603   3.758  20.240  0.00  0.00    +0.000 NA
ATOM     22  N   UNL     1       3.397   2.678  20.527  0.00  0.00    +0.000 NA
ATOM     23  C   UNL     1       4.372   2.661  19.645  0.00  0.00    +0.000 A 
ATOM     24  N   UNL     1       4.295   3.750  18.806  0.00  0.00    +0.000 N 
BRANCH  24  25
ATOM     25  C   UNL     1       5.232   4.099  17.798  0.00  0.00    +0.000 A 
ATOM     26  C   UNL     1       4.979   3.766  16.460  0.00  0.00    +0.000 A 
ATOM     27  C   UNL     1       5.872   4.163  15.460  0.00  0.00    +0.000 A 
ATOM     28  C   UNL     1       7.030   4.863  15.792  0.00  0.00    +0.000 A 
ATOM     29  C   UNL     1       7.310   5.154  17.124  0.00  0.00    +0.000 A 
ATOM     30  C   UNL     1       6.417   4.770  18.127  0.00  0.00    +0.000 A 
ENDBRANCH  24  25
ENDBRANCH  19  20
ENDBRANCH  18  19
ENDBRANCH   2  18
TORSDOF 7
ENDMDL
MODEL 5
REMARK VINA RESULT:      -8.5      3.673      7.997
REMARK  Name = 
REMARK  7 active torsions:
REMARK  status: ('A' for Active; 'I' for Inactive)
REMARK    1  A    between atoms: C_2  and  C_3
REMARK    2  A    between atoms: C_3  and  S_4
REMARK    3  A    between atoms: S_4  and  C_5
REMARK    4  A    between atoms: N_9  and  C_10
REMARK    5  A    between atoms: N_16  and  C_17
REMARK    6  A    between atoms: C_22  and  C_23
REMARK    7  A    between atoms: C_23  and  C_24
REMARK                            x       y       z     vdW  Elec       q    Type
REMARK                         _______ _______ _______ _____ _____    ______ ____
ROOT
ATOM      1  O   UNL     1       1.807   6.829  20.585  0.00  0.00    +0.000 OA
ATOM      2  C   UNL     1       1.847   7.686  19.704  0.00  0.00    +0.000 C 
ATOM      3  N   UNL     1       1.197   8.912  19.726  0.00  0.00    +0.000 N 
ATOM      4  H   UNL     1       1.128   9.398  18.838  0.00  0.00    +0.000 HD
ENDROOT
BRANCH   3   5
ATOM      5  C   UNL     1       0.515   9.495  20.822  0.00  0.00    +0.000 A 
ATOM      6  C   UNL     1       0.532   8.892  22.089  0.00  0.00    +0.000 A 
ATOM      7  C   UNL     1      -0.095   9.483  23.185  0.00  0.00    +0.000 A 
ATOM      8  C   UNL     1      -0.742  10.702  23.043  0.00  0.00    +0.000 A 
ATOM      9  C   UNL     1      -0.771  11.320  21.795  0.00  0.00    +0.000 A 
ATOM     10  C   UNL     1      -0.161  10.726  20.667  0.00  0.00    +0.000 A 
BRANCH  10  11
ATOM     11  C   UNL     1      -0.304  11.459  19.345  0.00  0.00    +0.000 C 
BRANCH  11  12
ATOM     12  C   UNL     1      -1.529  11.150  18.501  0.00  0.00    +0.000 A 
ATOM     13  C   UNL     1      -2.767  11.784  18.667  0.00  0.00    +0.000 A 
ATOM     14  C   UNL     1      -3.868  11.414  17.889  0.00  0.00    +0.000 A 
ATOM     15  C   UNL     1      -3.744  10.419  16.925  0.00  0.00    +0.000 A 
ATOM     16  C   UNL     1      -2.516   9.794  16.730  0.00  0.00    +0.000 A 
ATOM     17  C   UNL     1      -1.416  10.161  17.509  0.00  0.00    +0.000 A 
ENDBRANCH  11  12
ENDBRANCH  10  11
ENDBRANCH   3   5
BRANCH   2  18
ATOM     18  C   UNL     1       2.667   7.460  18.441  0.00  0.00    +0.000 C 
BRANCH  18  19
ATOM     19  S   UNL     1       4.240   6.653  18.826  0.00  0.00    +0.000 S 
BRANCH  19  20
ATOM     20  C   UNL     1       4.201   5.317  17.717  0.00  0.00    +0.000 A 
ATOM     21  N   UNL     1       4.840   5.304  16.567  0.00  0.00    +0.000 NA
ATOM     22  N   UNL     1       4.832   4.014  16.102  0.00  0.00    +0.000 NA
ATOM     23  C   UNL     1       4.190   3.282  16.984  0.00  0.00    +0.000 A 
ATOM     24  N   UNL     1       3.699   4.061  18.006  0.00  0.00    +0.000 N 
BRANCH  24  25
ATOM     25  C   UNL     1       2.881   3.619  19.080  0.00  0.00    +0.000 A 
ATOM     26  C   UNL     1       3.466   3.047  20.218  0.00  0.00    +0.000 A 
ATOM     27  C   UNL     1       2.664   2.668  21.299  0.00  0.00    +0.000 A 
ATOM     28  C   UNL     1       1.282   2.827  21.238  0.00  0.00    +0.000 A 
ATOM     29  C   UNL     1       0.692   3.349  20.090  0.00  0.00    +0.000 A 
ATOM     30  C   UNL     1       1.487   3.741  19.011  0.00  0.00    +0.000 A 
ENDBRANCH  24  25
ENDBRANCH  19  20
ENDBRANCH  18  19
ENDBRANCH   2  18
TORSDOF 7
ENDMDL
MODEL 6
REMARK VINA RESULT:      -8.5      2.380      7.662
REMARK  Name = 
REMARK  7 active torsions:
REMARK  status: ('A' for Active; 'I' for Inactive)
REMARK    1  A    between atoms: C_2  and  C_3
REMARK    2  A    between atoms: C_3  and  S_4
REMARK    3  A    between atoms: S_4  and  C_5
REMARK    4  A    between atoms: N_9  and  C_10
REMARK    5  A    between atoms: N_16  and  C_17
REMARK    6  A    between atoms: C_22  and  C_23
REMARK    7  A    between atoms: C_23  and  C_24
REMARK                            x       y       z     vdW  Elec       q    Type
REMARK                         _______ _______ _______ _____ _____    ______ ____
ROOT
ATOM      1  O   UNL     1       6.376   4.873  19.528  0.00  0.00    +0.000 OA
ATOM      2  C   UNL     1       6.023   4.429  18.437  0.00  0.00    +0.000 C 
ATOM      3  N   UNL     1       4.841   3.751  18.174  0.00  0.00    +0.000 N 
ATOM      4  H   UNL     1       4.803   3.241  17.299  0.00  0.00    +0.000 HD
ENDROOT
BRANCH   3   5
ATOM      5  C   UNL     1       3.738   3.592  19.049  0.00  0.00    +0.000 A 
ATOM      6  C   UNL     1       3.709   2.561  19.999  0.00  0.00    +0.000 A 
ATOM      7  C   UNL     1       2.651   2.427  20.897  0.00  0.00    +0.000 A 
ATOM      8  C   UNL     1       1.602   3.334  20.876  0.00  0.00    +0.000 A 
ATOM      9  C   UNL     1       1.610   4.368  19.943  0.00  0.00    +0.000 A 
ATOM     10  C   UNL     1       2.661   4.507  19.010  0.00  0.00    +0.000 A 
BRANCH  10  11
ATOM     11  C   UNL     1       2.537   5.635  18.001  0.00  0.00    +0.000 C 
BRANCH  11  12
ATOM     12  C   UNL     1       2.144   7.005  18.525  0.00  0.00    +0.000 A 
ATOM     13  C   UNL     1       2.043   8.147  17.720  0.00  0.00    +0.000 A 
ATOM     14  C   UNL     1       1.725   9.388  18.278  0.00  0.00    +0.000 A 
ATOM     15  C   UNL     1       1.489   9.504  19.643  0.00  0.00    +0.000 A 
ATOM     16  C   UNL     1       1.562   8.377  20.457  0.00  0.00    +0.000 A 
ATOM     17  C   UNL     1       1.881   7.136  19.900  0.00  0.00    +0.000 A 
ENDBRANCH  11  12
ENDBRANCH  10  11
ENDBRANCH   3   5
BRANCH   2  18
ATOM     18  C   UNL     1       6.906   4.600  17.209  0.00  0.00    +0.000 C 
BRANCH  18  19
ATOM     19  S   UNL     1       6.073   3.989  15.724  0.00  0.00    +0.000 S 
BRANCH  19  20
ATOM     20  C   UNL     1       6.983   4.796  14.484  0.00  0.00    +0.000 A 
ATOM     21  N   UNL     1       7.923   5.684  14.728  0.00  0.00    +0.000 NA
ATOM     22  N   UNL     1       8.616   5.886  13.563  0.00  0.00    +0.000 NA
ATOM     23  C   UNL     1       8.078   5.115  12.645  0.00  0.00    +0.000 A 
ATOM     24  N   UNL     1       6.986   4.443  13.147  0.00  0.00    +0.000 N 
BRANCH  24  25
ATOM     25  C   UNL     1       6.112   3.598  12.412  0.00  0.00    +0.000 A 
ATOM     26  C   UNL     1       4.806   4.020  12.126  0.00  0.00    +0.000 A 
ATOM     27  C   UNL     1       3.966   3.213  11.351  0.00  0.00    +0.000 A 
ATOM     28  C   UNL     1       4.412   1.977  10.888  0.00  0.00    +0.000 A 
ATOM     29  C   UNL     1       5.691   1.533  11.211  0.00  0.00    +0.000 A 
ATOM     30  C   UNL     1       6.539   2.338  11.975  0.00  0.00    +0.000 A 
ENDBRANCH  24  25
ENDBRANCH  19  20
ENDBRANCH  18  19
ENDBRANCH   2  18
TORSDOF 7
ENDMDL
MODEL 7
REMARK VINA RESULT:      -8.5      4.444      8.286
REMARK  Name = 
REMARK  7 active torsions:
REMARK  status: ('A' for Active; 'I' for Inactive)
REMARK    1  A    between atoms: C_2  and  C_3
REMARK    2  A    between atoms: C_3  and  S_4
REMARK    3  A    between atoms: S_4  and  C_5
REMARK    4  A    between atoms: N_9  and  C_10
REMARK    5  A    between atoms: N_16  and  C_17
REMARK    6  A    between atoms: C_22  and  C_23
REMARK    7  A    between atoms: C_23  and  C_24
REMARK                            x       y       z     vdW  Elec       q    Type
REMARK                         _______ _______ _______ _____ _____    ______ ____
ROOT
ATOM      1  O   UNL     1       1.972   9.633  17.492  0.00  0.00    +0.000 OA
ATOM      2  C   UNL     1       1.738   9.407  18.677  0.00  0.00    +0.000 C 
ATOM      3  N   UNL     1       1.339  10.340  19.624  0.00  0.00    +0.000 N 
ATOM      4  H   UNL     1       1.421  10.057  20.594  0.00  0.00    +0.000 HD
ENDROOT
BRANCH   3   5
ATOM      5  C   UNL     1       0.951  11.682  19.386  0.00  0.00    +0.000 A 
ATOM      6  C   UNL     1       1.897  12.718  19.367  0.00  0.00    +0.000 A 
ATOM      7  C   UNL     1       1.532  14.033  19.085  0.00  0.00    +0.000 A 
ATOM      8  C   UNL     1       0.210  14.342  18.797  0.00  0.00    +0.000 A 
ATOM      9  C   UNL     1      -0.746  13.330  18.807  0.00  0.00    +0.000 A 
ATOM     10  C   UNL     1      -0.400  11.995  19.114  0.00  0.00    +0.000 A 
BRANCH  10  11
ATOM     11  C   UNL     1      -1.533  10.984  19.153  0.00  0.00    +0.000 C 
BRANCH  11  12
ATOM     12  C   UNL     1      -2.395  10.849  17.910  0.00  0.00    +0.000 A 
ATOM     13  C   UNL     1      -3.662  11.432  17.774  0.00  0.00    +0.000 A 
ATOM     14  C   UNL     1      -4.424  11.223  16.621  0.00  0.00    +0.000 A 
ATOM     15  C   UNL     1      -3.927  10.444  15.582  0.00  0.00    +0.000 A 
ATOM     16  C   UNL     1      -2.661   9.874  15.690  0.00  0.00    +0.000 A 
ATOM     17  C   UNL     1      -1.900  10.080  16.842  0.00  0.00    +0.000 A 
ENDBRANCH  11  12
ENDBRANCH  10  11
ENDBRANCH   3   5
BRANCH   2  18
ATOM     18  C   UNL     1       1.872   7.999  19.238  0.00  0.00    +0.000 C 
BRANCH  18  19
ATOM     19  S   UNL     1       2.906   6.971  18.167  0.00  0.00    +0.000 S 
BRANCH  19  20
ATOM     20  C   UNL     1       3.154   5.585  19.184  0.00  0.00    +0.000 A 
ATOM     21  N   UNL     1       2.396   5.293  20.218  0.00  0.00    +0.000 NA
ATOM     22  N   UNL     1       2.686   4.008  20.598  0.00  0.00    +0.000 NA
ATOM     23  C   UNL     1       3.613   3.557  19.782  0.00  0.00    +0.000 A 
ATOM     24  N   UNL     1       4.007   4.535  18.898  0.00  0.00    +0.000 N 
BRANCH  24  25
ATOM     25  C   UNL     1       5.049   4.427  17.938  0.00  0.00    +0.000 A 
ATOM     26  C   UNL     1       4.751   4.066  16.617  0.00  0.00    +0.000 A 
ATOM     27  C   UNL     1       5.769   4.018  15.659  0.00  0.00    +0.000 A 
ATOM     28  C   UNL     1       7.085   4.299  16.019  0.00  0.00    +0.000 A 
ATOM     29  C   UNL     1       7.394   4.611  17.341  0.00  0.00    +0.000 A 
ATOM     30  C   UNL     1       6.381   4.671  18.300  0.00  0.00    +0.000 A 
ENDBRANCH  24  25
ENDBRANCH  19  20
ENDBRANCH  18  19
ENDBRANCH   2  18
TORSDOF 7
ENDMDL
MODEL 8
REMARK VINA RESULT:      -8.4      4.221      6.413
REMARK  Name = 
REMARK  7 active torsions:
REMARK  status: ('A' for Active; 'I' for Inactive)
REMARK    1  A    between atoms: C_2  and  C_3
REMARK    2  A    between atoms: C_3  and  S_4
REMARK    3  A    between atoms: S_4  and  C_5
REMARK    4  A    between atoms: N_9  and  C_10
REMARK    5  A    between atoms: N_16  and  C_17
REMARK    6  A    between atoms: C_22  and  C_23
REMARK    7  A    between atoms: C_23  and  C_24
REMARK                            x       y       z     vdW  Elec       q    Type
REMARK                         _______ _______ _______ _____ _____    ______ ____
ROOT
ATOM      1  O   UNL     1       1.505   7.793  19.124  0.00  0.00    +0.000 OA
ATOM      2  C   UNL     1       1.637   7.577  20.327  0.00  0.00    +0.000 C 
ATOM      3  N   UNL     1       1.734   6.331  20.929  0.00  0.00    +0.000 N 
ATOM      4  H   UNL     1       1.595   6.307  21.933  0.00  0.00    +0.000 HD
ENDROOT
BRANCH   3   5
ATOM      5  C   UNL     1       1.879   5.080  20.278  0.00  0.00    +0.000 A 
ATOM      6  C   UNL     1       0.858   4.119  20.319  0.00  0.00    +0.000 A 
ATOM      7  C   UNL     1       0.972   2.907  19.640  0.00  0.00    +0.000 A 
ATOM      8  C   UNL     1       2.106   2.633  18.890  0.00  0.00    +0.000 A 
ATOM      9  C   UNL     1       3.132   3.573  18.834  0.00  0.00    +0.000 A 
ATOM     10  C   UNL     1       3.045   4.798  19.532  0.00  0.00    +0.000 A 
BRANCH  10  11
ATOM     11  C   UNL     1       4.248   5.722  19.447  0.00  0.00    +0.000 C 
BRANCH  11  12
ATOM     12  C   UNL     1       5.131   5.612  18.217  0.00  0.00    +0.000 A 
ATOM     13  C   UNL     1       4.779   6.118  16.959  0.00  0.00    +0.000 A 
ATOM     14  C   UNL     1       5.618   5.936  15.856  0.00  0.00    +0.000 A 
ATOM     15  C   UNL     1       6.826   5.261  15.996  0.00  0.00    +0.000 A 
ATOM     16  C   UNL     1       7.203   4.770  17.243  0.00  0.00    +0.000 A 
ATOM     17  C   UNL     1       6.364   4.950  18.345  0.00  0.00    +0.000 A 
ENDBRANCH  11  12
ENDBRANCH  10  11
ENDBRANCH   3   5
BRANCH   2  18
ATOM     18  C   UNL     1       1.714   8.732  21.316  0.00  0.00    +0.000 C 
BRANCH  18  19
ATOM     19  S   UNL     1       0.112   9.558  21.473  0.00  0.00    +0.000 S 
BRANCH  19  20
ATOM     20  C   UNL     1       0.494  11.132  20.847  0.00  0.00    +0.000 A 
ATOM     21  N   UNL     1       1.461  11.891  21.318  0.00  0.00    +0.000 NA
ATOM     22  N   UNL     1       1.668  12.905  20.419  0.00  0.00    +0.000 NA
ATOM     23  C   UNL     1       0.822  12.733  19.429  0.00  0.00    +0.000 A 
ATOM     24  N   UNL     1      -0.005  11.660  19.670  0.00  0.00    +0.000 N 
BRANCH  24  25
ATOM     25  C   UNL     1      -1.094  11.242  18.859  0.00  0.00    +0.000 A 
ATOM     26  C   UNL     1      -0.904  10.247  17.890  0.00  0.00    +0.000 A 
ATOM     27  C   UNL     1      -1.990   9.792  17.134  0.00  0.00    +0.000 A 
ATOM     28  C   UNL     1      -3.255  10.346  17.318  0.00  0.00    +0.000 A 
ATOM     29  C   UNL     1      -3.438  11.369  18.245  0.00  0.00    +0.000 A 
ATOM     30  C   UNL     1      -2.361  11.820  19.012  0.00  0.00    +0.000 A 
ENDBRANCH  24  25
ENDBRANCH  19  20
ENDBRANCH  18  19
ENDBRANCH   2  18
TORSDOF 7
ENDMDL
MODEL 9
REMARK VINA RESULT:      -8.4      4.248      6.634
REMARK  Name = 
REMARK  7 active torsions:
REMARK  status: ('A' for Active; 'I' for Inactive)
REMARK    1  A    between atoms: C_2  and  C_3
REMARK    2  A    between atoms: C_3  and  S_4
REMARK    3  A    between atoms: S_4  and  C_5
REMARK    4  A    between atoms: N_9  and  C_10
REMARK    5  A    between atoms: N_16  and  C_17
REMARK    6  A    between atoms: C_22  and  C_23
REMARK    7  A    between atoms: C_23  and  C_24
REMARK                            x       y       z     vdW  Elec       q    Type
REMARK                         _______ _______ _______ _____ _____    ______ ____
ROOT
ATOM      1  O   UNL     1       2.498   8.229  16.863  0.00  0.00    +0.000 OA
ATOM      2  C   UNL     1       2.635   7.835  18.019  0.00  0.00    +0.000 C 
ATOM      3  N   UNL     1       3.421   6.769  18.432  0.00  0.00    +0.000 N 
ATOM      4  H   UNL     1       3.243   6.417  19.366  0.00  0.00    +0.000 HD
ENDROOT
BRANCH   3   5
ATOM      5  C   UNL     1       4.353   6.044  17.648  0.00  0.00    +0.000 A 
ATOM      6  C   UNL     1       5.597   6.594  17.308  0.00  0.00    +0.000 A 
ATOM      7  C   UNL     1       6.539   5.869  16.579  0.00  0.00    +0.000 A 
ATOM      8  C   UNL     1       6.264   4.568  16.185  0.00  0.00    +0.000 A 
ATOM      9  C   UNL     1       5.035   4.000  16.513  0.00  0.00    +0.000 A 
ATOM     10  C   UNL     1       4.059   4.726  17.231  0.00  0.00    +0.000 A 
BRANCH  10  11
ATOM     11  C   UNL     1       2.733   4.028  17.482  0.00  0.00    +0.000 C 
BRANCH  11  12
ATOM     12  C   UNL     1       2.425   3.599  18.906  0.00  0.00    +0.000 A 
ATOM     13  C   UNL     1       1.208   3.855  19.550  0.00  0.00    +0.000 A 
ATOM     14  C   UNL     1       1.011   3.476  20.881  0.00  0.00    +0.000 A 
ATOM     15  C   UNL     1       2.019   2.822  21.582  0.00  0.00    +0.000 A 
ATOM     16  C   UNL     1       3.227   2.537  20.951  0.00  0.00    +0.000 A 
ATOM     17  C   UNL     1       3.426   2.918  19.622  0.00  0.00    +0.000 A 
ENDBRANCH  11  12
ENDBRANCH  10  11
ENDBRANCH   3   5
BRANCH   2  18
ATOM     18  C   UNL     1       1.909   8.528  19.164  0.00  0.00    +0.000 C 
BRANCH  18  19
ATOM     19  S   UNL     1       1.565  10.258  18.759  0.00  0.00    +0.000 S 
BRANCH  19  20
ATOM     20  C   UNL     1       0.520  10.698  20.074  0.00  0.00    +0.000 A 
ATOM     21  N   UNL     1       0.941  10.921  21.300  0.00  0.00    +0.000 NA
ATOM     22  N   UNL     1      -0.080  11.523  21.988  0.00  0.00    +0.000 NA
ATOM     23  C   UNL     1      -1.093  11.649  21.160  0.00  0.00    +0.000 A 
ATOM     24  N   UNL     1      -0.803  11.081  19.940  0.00  0.00    +0.000 N 
BRANCH  24  25
ATOM     25  C   UNL     1      -1.695  10.953  18.842  0.00  0.00    +0.000 A 
ATOM     26  C   UNL     1      -2.846  11.750  18.777  0.00  0.00    +0.000 A 
ATOM     27  C   UNL     1      -3.691  11.667  17.666  0.00  0.00    +0.000 A 
ATOM     28  C   UNL     1      -3.411  10.772  16.636  0.00  0.00    +0.000 A 
ATOM     29  C   UNL     1      -2.295   9.943  16.719  0.00  0.00    +0.000 A 
ATOM     30  C   UNL     1      -1.440  10.028  17.820  0.00  0.00    +0.000 A 
ENDBRANCH  24  25
ENDBRANCH  19  20
ENDBRANCH  18  19
ENDBRANCH   2  18
TORSDOF 7
ENDMDL
