MODEL 1
REMARK VINA RESULT:      -7.3      0.000      0.000
REMARK  Name = 
REMARK  8 active torsions:
REMARK  status: ('A' for Active; 'I' for Inactive)
REMARK    1  A    between atoms: C_1  and  C_2
REMARK    2  A    between atoms: C_6  and  C_7
REMARK    3  A    between atoms: C_16  and  C_18
REMARK    4  A    between atoms: C_18  and  C_19
REMARK    5  A    between atoms: C_20  and  C_21
REMARK    6  A    between atoms: C_20  and  C_22
REMARK    7  A    between atoms: C_23  and  C_24
REMARK    8  A    between atoms: C_23  and  C_25
REMARK                            x       y       z     vdW  Elec       q    Type
REMARK                         _______ _______ _______ _____ _____    ______ ____
ROOT
ATOM      1  C   UNL     1       5.361   4.208  18.372  0.00  0.00    +0.000 C 
ATOM      2  O   UNL     1       6.048   3.953  19.367  0.00  0.00    +0.000 OA
ATOM      3  N   UNL     1       3.996   3.899  18.378  0.00  0.00    +0.000 N 
ATOM      4  C   UNL     1       2.891   3.879  17.364  0.00  0.00    +0.000 C 
ATOM      5  C   UNL     1       2.481   2.399  17.376  0.00  0.00    +0.000 C 
ATOM      6  C   UNL     1       3.016   1.901  18.727  0.00  0.00    +0.000 C 
ATOM      7  C   UNL     1       3.459   3.164  19.502  0.00  0.00    +0.000 C 
ATOM      8  C   UNL     1       2.342   4.052  20.147  0.00  0.00    +0.000 C 
ATOM      9  N   UNL     1       1.873   5.133  19.228  0.00  0.00    +0.000 N 
ATOM     10  C   UNL     1       2.435   6.411  19.336  0.00  0.00    +0.000 C 
ATOM     11  O   UNL     1       3.303   6.688  20.165  0.00  0.00    +0.000 OA
ATOM     12  C   UNL     1       1.618   4.630  17.892  0.00  0.00    +0.000 C 
ENDROOT
BRANCH   1  18
ATOM     13  C   UNL     1       7.456   6.789  17.969  0.00  0.00    +0.000 C 
ATOM     14  C   UNL     1       6.840   5.840  17.011  0.00  0.00    +0.000 A 
ATOM     15  N   UNL     1       7.158   5.949  15.664  0.00  0.00    +0.000 NA
ATOM     16  C   UNL     1       6.454   4.986  15.111  0.00  0.00    +0.000 A 
ATOM     17  O   UNL     1       5.714   4.245  15.956  0.00  0.00    +0.000 OA
ATOM     18  C   UNL     1       5.963   4.777  17.193  0.00  0.00    +0.000 A 
ENDBRANCH   1  18
BRANCH  10  19
ATOM     19  C   UNL     1       1.861   7.501  18.417  0.00  0.00    +0.000 C 
BRANCH  19  20
ATOM     20  C   UNL     1       1.868   8.841  19.084  0.00  0.00    +0.000 C 
ATOM     21  C   UNL     1       0.893   9.218  20.195  0.00  0.00    +0.000 C 
ATOM     22  C   UNL     1      -0.228   8.289  20.610  0.00  0.00    +0.000 C 
ATOM     23  C   UNL     1       1.477   9.960  21.383  0.00  0.00    +0.000 C 
ATOM     24  C   UNL     1       0.835   9.910  18.822  0.00  0.00    +0.000 C 
ATOM     25  C   UNL     1       1.376  11.315  18.645  0.00  0.00    +0.000 C 
ATOM     26  C   UNL     1      -0.316   9.644  17.871  0.00  0.00    +0.000 C 
ENDBRANCH  19  20
ENDBRANCH  10  19
TORSDOF 3
ENDMDL
MODEL 2
REMARK VINA RESULT:      -7.3      1.433      2.407
REMARK  Name = 
REMARK  8 active torsions:
REMARK  status: ('A' for Active; 'I' for Inactive)
REMARK    1  A    between atoms: C_1  and  C_2
REMARK    2  A    between atoms: C_6  and  C_7
REMARK    3  A    between atoms: C_16  and  C_18
REMARK    4  A    between atoms: C_18  and  C_19
REMARK    5  A    between atoms: C_20  and  C_21
REMARK    6  A    between atoms: C_20  and  C_22
REMARK    7  A    between atoms: C_23  and  C_24
REMARK    8  A    between atoms: C_23  and  C_25
REMARK                            x       y       z     vdW  Elec       q    Type
REMARK                         _______ _______ _______ _____ _____    ______ ____
ROOT
ATOM      1  C   UNL     1       4.941   3.662  19.317  0.00  0.00    +0.000 C 
ATOM      2  O   UNL     1       5.115   2.817  20.201  0.00  0.00    +0.000 OA
ATOM      3  N   UNL     1       3.681   3.790  18.723  0.00  0.00    +0.000 N 
ATOM      4  C   UNL     1       3.113   4.529  17.548  0.00  0.00    +0.000 C 
ATOM      5  C   UNL     1       2.603   3.378  16.669  0.00  0.00    +0.000 C 
ATOM      6  C   UNL     1       2.467   2.215  17.664  0.00  0.00    +0.000 C 
ATOM      7  C   UNL     1       2.653   2.832  19.069  0.00  0.00    +0.000 C 
ATOM      8  C   UNL     1       1.454   3.638  19.676  0.00  0.00    +0.000 C 
ATOM      9  N   UNL     1       1.520   5.093  19.344  0.00  0.00    +0.000 N 
ATOM     10  C   UNL     1       2.097   5.976  20.265  0.00  0.00    +0.000 C 
ATOM     11  O   UNL     1       2.552   5.605  21.347  0.00  0.00    +0.000 OA
ATOM     12  C   UNL     1       1.810   5.312  17.940  0.00  0.00    +0.000 C 
ENDROOT
BRANCH   1  18
ATOM     13  C   UNL     1       6.310   4.068  16.287  0.00  0.00    +0.000 C 
ATOM     14  C   UNL     1       6.608   4.669  17.610  0.00  0.00    +0.000 A 
ATOM     15  N   UNL     1       7.619   5.615  17.701  0.00  0.00    +0.000 NA
ATOM     16  C   UNL     1       7.623   5.927  18.980  0.00  0.00    +0.000 A 
ATOM     17  O   UNL     1       6.711   5.292  19.738  0.00  0.00    +0.000 OA
ATOM     18  C   UNL     1       6.035   4.482  18.863  0.00  0.00    +0.000 A 
ENDBRANCH   1  18
BRANCH  10  19
ATOM     19  C   UNL     1       2.068   7.470  19.903  0.00  0.00    +0.000 C 
BRANCH  19  20
ATOM     20  C   UNL     1       0.773   8.106  20.302  0.00  0.00    +0.000 C 
ATOM     21  C   UNL     1       0.478   9.589  20.091  0.00  0.00    +0.000 C 
ATOM     22  C   UNL     1       1.537  10.536  19.567  0.00  0.00    +0.000 C 
ATOM     23  C   UNL     1      -0.899   9.934  19.557  0.00  0.00    +0.000 C 
ATOM     24  C   UNL     1       0.619   9.003  21.506  0.00  0.00    +0.000 C 
ATOM     25  C   UNL     1      -0.608   8.749  22.360  0.00  0.00    +0.000 C 
ATOM     26  C   UNL     1       1.822   9.341  22.366  0.00  0.00    +0.000 C 
ENDBRANCH  19  20
ENDBRANCH  10  19
TORSDOF 3
ENDMDL
MODEL 3
REMARK VINA RESULT:      -7.1      0.909      1.295
REMARK  Name = 
REMARK  8 active torsions:
REMARK  status: ('A' for Active; 'I' for Inactive)
REMARK    1  A    between atoms: C_1  and  C_2
REMARK    2  A    between atoms: C_6  and  C_7
REMARK    3  A    between atoms: C_16  and  C_18
REMARK    4  A    between atoms: C_18  and  C_19
REMARK    5  A    between atoms: C_20  and  C_21
REMARK    6  A    between atoms: C_20  and  C_22
REMARK    7  A    between atoms: C_23  and  C_24
REMARK    8  A    between atoms: C_23  and  C_25
REMARK                            x       y       z     vdW  Elec       q    Type
REMARK                         _______ _______ _______ _____ _____    ______ ____
ROOT
ATOM      1  C   UNL     1       5.321   4.283  18.744  0.00  0.00    +0.000 C 
ATOM      2  O   UNL     1       5.856   3.830  19.761  0.00  0.00    +0.000 OA
ATOM      3  N   UNL     1       3.982   3.980  18.476  0.00  0.00    +0.000 N 
ATOM      4  C   UNL     1       3.045   4.168  17.319  0.00  0.00    +0.000 C 
ATOM      5  C   UNL     1       2.683   2.717  16.969  0.00  0.00    +0.000 C 
ATOM      6  C   UNL     1       3.022   1.953  18.258  0.00  0.00    +0.000 C 
ATOM      7  C   UNL     1       3.303   3.031  19.331  0.00  0.00    +0.000 C 
ATOM      8  C   UNL     1       2.073   3.771  19.960  0.00  0.00    +0.000 C 
ATOM      9  N   UNL     1       1.717   5.016  19.216  0.00  0.00    +0.000 N 
ATOM     10  C   UNL     1       2.216   6.245  19.665  0.00  0.00    +0.000 C 
ATOM     11  O   UNL     1       2.939   6.347  20.658  0.00  0.00    +0.000 OA
ATOM     12  C   UNL     1       1.684   4.796  17.783  0.00  0.00    +0.000 C 
ENDROOT
BRANCH   1  18
ATOM     13  C   UNL     1       6.137   3.779  15.535  0.00  0.00    +0.000 C 
ATOM     14  C   UNL     1       6.416   4.889  16.478  0.00  0.00    +0.000 A 
ATOM     15  N   UNL     1       7.126   5.991  16.020  0.00  0.00    +0.000 NA
ATOM     16  C   UNL     1       7.200   6.761  17.083  0.00  0.00    +0.000 A 
ATOM     17  O   UNL     1       6.603   6.286  18.191  0.00  0.00    +0.000 OA
ATOM     18  C   UNL     1       6.078   5.079  17.812  0.00  0.00    +0.000 A 
ENDBRANCH   1  18
BRANCH  10  19
ATOM     19  C   UNL     1       1.755   7.500  18.906  0.00  0.00    +0.000 C 
BRANCH  19  20
ATOM     20  C   UNL     1       1.759   8.708  19.791  0.00  0.00    +0.000 C 
ATOM     21  C   UNL     1       0.735   8.925  20.902  0.00  0.00    +0.000 C 
ATOM     22  C   UNL     1      -0.428   7.976  21.098  0.00  0.00    +0.000 C 
ATOM     23  C   UNL     1       1.273   9.437  22.224  0.00  0.00    +0.000 C 
ATOM     24  C   UNL     1       0.767   9.839  19.664  0.00  0.00    +0.000 C 
ATOM     25  C   UNL     1       1.350  11.235  19.754  0.00  0.00    +0.000 C 
ATOM     26  C   UNL     1      -0.338   9.774  18.627  0.00  0.00    +0.000 C 
ENDBRANCH  19  20
ENDBRANCH  10  19
TORSDOF 3
ENDMDL
MODEL 4
REMARK VINA RESULT:      -6.6      6.603      9.444
REMARK  Name = 
REMARK  8 active torsions:
REMARK  status: ('A' for Active; 'I' for Inactive)
REMARK    1  A    between atoms: C_1  and  C_2
REMARK    2  A    between atoms: C_6  and  C_7
REMARK    3  A    between atoms: C_16  and  C_18
REMARK    4  A    between atoms: C_18  and  C_19
REMARK    5  A    between atoms: C_20  and  C_21
REMARK    6  A    between atoms: C_20  and  C_22
REMARK    7  A    between atoms: C_23  and  C_24
REMARK    8  A    between atoms: C_23  and  C_25
REMARK                            x       y       z     vdW  Elec       q    Type
REMARK                         _______ _______ _______ _____ _____    ______ ____
ROOT
ATOM      1  C   UNL     1      -1.301  12.147  18.273  0.00  0.00    +0.000 C 
ATOM      2  O   UNL     1      -0.774  13.052  17.617  0.00  0.00    +0.000 OA
ATOM      3  N   UNL     1      -0.555  11.478  19.248  0.00  0.00    +0.000 N 
ATOM      4  C   UNL     1      -0.746  10.260  20.104  0.00  0.00    +0.000 C 
ATOM      5  C   UNL     1       0.417   9.368  19.645  0.00  0.00    +0.000 C 
ATOM      6  C   UNL     1       1.391  10.368  19.004  0.00  0.00    +0.000 C 
ATOM      7  C   UNL     1       0.856  11.774  19.364  0.00  0.00    +0.000 C 
ATOM      8  C   UNL     1       1.103  12.297  20.820  0.00  0.00    +0.000 C 
ATOM      9  N   UNL     1      -0.017  11.949  21.746  0.00  0.00    +0.000 N 
ATOM     10  C   UNL     1      -1.027  12.892  21.976  0.00  0.00    +0.000 C 
ATOM     11  O   UNL     1      -1.032  14.004  21.448  0.00  0.00    +0.000 OA
ATOM     12  C   UNL     1      -0.419  10.563  21.609  0.00  0.00    +0.000 C 
ENDROOT
BRANCH   1  18
ATOM     13  C   UNL     1      -2.704  10.628  15.638  0.00  0.00    +0.000 C 
ATOM     14  C   UNL     1      -3.255  11.111  16.928  0.00  0.00    +0.000 A 
ATOM     15  N   UNL     1      -4.604  10.912  17.193  0.00  0.00    +0.000 NA
ATOM     16  C   UNL     1      -4.756  11.451  18.383  0.00  0.00    +0.000 A 
ATOM     17  O   UNL     1      -3.646  11.973  18.934  0.00  0.00    +0.000 OA
ATOM     18  C   UNL     1      -2.661  11.749  18.009  0.00  0.00    +0.000 A 
ENDBRANCH   1  18
BRANCH  10  19
ATOM     19  C   UNL     1      -2.112  12.509  22.996  0.00  0.00    +0.000 C 
BRANCH  19  20
ATOM     20  C   UNL     1      -3.372  13.286  22.773  0.00  0.00    +0.000 C 
ATOM     21  C   UNL     1      -3.762  14.493  23.623  0.00  0.00    +0.000 C 
ATOM     22  C   UNL     1      -2.945  14.905  24.829  0.00  0.00    +0.000 C 
ATOM     23  C   UNL     1      -4.310  15.695  22.877  0.00  0.00    +0.000 C 
ATOM     24  C   UNL     1      -4.581  13.191  23.672  0.00  0.00    +0.000 C 
ATOM     25  C   UNL     1      -5.918  13.096  22.964  0.00  0.00    +0.000 C 
ATOM     26  C   UNL     1      -4.551  12.306  24.903  0.00  0.00    +0.000 C 
ENDBRANCH  19  20
ENDBRANCH  10  19
TORSDOF 3
ENDMDL
MODEL 5
REMARK VINA RESULT:      -6.5      1.140      1.754
REMARK  Name = 
REMARK  8 active torsions:
REMARK  status: ('A' for Active; 'I' for Inactive)
REMARK    1  A    between atoms: C_1  and  C_2
REMARK    2  A    between atoms: C_6  and  C_7
REMARK    3  A    between atoms: C_16  and  C_18
REMARK    4  A    between atoms: C_18  and  C_19
REMARK    5  A    between atoms: C_20  and  C_21
REMARK    6  A    between atoms: C_20  and  C_22
REMARK    7  A    between atoms: C_23  and  C_24
REMARK    8  A    between atoms: C_23  and  C_25
REMARK                            x       y       z     vdW  Elec       q    Type
REMARK                         _______ _______ _______ _____ _____    ______ ____
ROOT
ATOM      1  C   UNL     1       5.414   4.835  18.933  0.00  0.00    +0.000 C 
ATOM      2  O   UNL     1       5.894   4.478  20.014  0.00  0.00    +0.000 OA
ATOM      3  N   UNL     1       4.084   4.523  18.632  0.00  0.00    +0.000 N 
ATOM      4  C   UNL     1       3.205   4.607  17.420  0.00  0.00    +0.000 C 
ATOM      5  C   UNL     1       2.837   3.133  17.195  0.00  0.00    +0.000 C 
ATOM      6  C   UNL     1       3.104   2.495  18.567  0.00  0.00    +0.000 C 
ATOM      7  C   UNL     1       3.351   3.670  19.542  0.00  0.00    +0.000 C 
ATOM      8  C   UNL     1       2.106   4.481  20.038  0.00  0.00    +0.000 C 
ATOM      9  N   UNL     1       1.804   5.652  19.160  0.00  0.00    +0.000 N 
ATOM     10  C   UNL     1       2.301   6.913  19.511  0.00  0.00    +0.000 C 
ATOM     11  O   UNL     1       2.979   7.102  20.522  0.00  0.00    +0.000 OA
ATOM     12  C   UNL     1       1.834   5.293  17.755  0.00  0.00    +0.000 C 
ENDROOT
BRANCH   1  18
ATOM     13  C   UNL     1       6.328   4.034  15.813  0.00  0.00    +0.000 C 
ATOM     14  C   UNL     1       6.606   5.214  16.666  0.00  0.00    +0.000 A 
ATOM     15  N   UNL     1       7.363   6.254  16.143  0.00  0.00    +0.000 NA
ATOM     16  C   UNL     1       7.421   7.112  17.138  0.00  0.00    +0.000 A 
ATOM     17  O   UNL     1       6.772   6.750  18.259  0.00  0.00    +0.000 OA
ATOM     18  C   UNL     1       6.226   5.528  17.965  0.00  0.00    +0.000 A 
ENDBRANCH   1  18
BRANCH  10  19
ATOM     19  C   UNL     1       1.896   8.093  18.613  0.00  0.00    +0.000 C 
BRANCH  19  20
ATOM     20  C   UNL     1       1.228   9.177  19.401  0.00  0.00    +0.000 C 
ATOM     21  C   UNL     1       0.002   9.932  18.895  0.00  0.00    +0.000 C 
ATOM     22  C   UNL     1      -0.544   9.706  17.502  0.00  0.00    +0.000 C 
ATOM     23  C   UNL     1      -1.107  10.169  19.903  0.00  0.00    +0.000 C 
ATOM     24  C   UNL     1       1.354  10.645  19.073  0.00  0.00    +0.000 C 
ATOM     25  C   UNL     1       1.591  11.563  20.256  0.00  0.00    +0.000 C 
ATOM     26  C   UNL     1       2.155  11.093  17.866  0.00  0.00    +0.000 C 
ENDBRANCH  19  20
ENDBRANCH  10  19
TORSDOF 3
ENDMDL
MODEL 6
REMARK VINA RESULT:      -6.4      8.700     10.340
REMARK  Name = 
REMARK  8 active torsions:
REMARK  status: ('A' for Active; 'I' for Inactive)
REMARK    1  A    between atoms: C_1  and  C_2
REMARK    2  A    between atoms: C_6  and  C_7
REMARK    3  A    between atoms: C_16  and  C_18
REMARK    4  A    between atoms: C_18  and  C_19
REMARK    5  A    between atoms: C_20  and  C_21
REMARK    6  A    between atoms: C_20  and  C_22
REMARK    7  A    between atoms: C_23  and  C_24
REMARK    8  A    between atoms: C_23  and  C_25
REMARK                            x       y       z     vdW  Elec       q    Type
REMARK                         _______ _______ _______ _____ _____    ______ ____
ROOT
ATOM      1  C   UNL     1       8.976  14.619  18.767  0.00  0.00    +0.000 C 
ATOM      2  O   UNL     1       9.745  15.581  18.669  0.00  0.00    +0.000 OA
ATOM      3  N   UNL     1       9.498  13.338  18.974  0.00  0.00    +0.000 N 
ATOM      4  C   UNL     1       8.954  11.940  18.971  0.00  0.00    +0.000 C 
ATOM      5  C   UNL     1       9.760  11.291  17.835  0.00  0.00    +0.000 C 
ATOM      6  C   UNL     1      10.983  12.212  17.708  0.00  0.00    +0.000 C 
ATOM      7  C   UNL     1      10.933  13.160  18.929  0.00  0.00    +0.000 C 
ATOM      8  C   UNL     1      11.372  12.583  20.318  0.00  0.00    +0.000 C 
ATOM      9  N   UNL     1      10.226  12.006  21.082  0.00  0.00    +0.000 N 
ATOM     10  C   UNL     1       9.574  12.799  22.034  0.00  0.00    +0.000 C 
ATOM     11  O   UNL     1       9.908  13.960  22.274  0.00  0.00    +0.000 OA
ATOM     12  C   UNL     1       9.402  11.150  20.252  0.00  0.00    +0.000 C 
ENDROOT
BRANCH   1  18
ATOM     13  C   UNL     1       6.770  16.386  20.563  0.00  0.00    +0.000 C 
ATOM     14  C   UNL     1       6.628  15.538  19.355  0.00  0.00    +0.000 A 
ATOM     15  N   UNL     1       5.376  15.415  18.768  0.00  0.00    +0.000 NA
ATOM     16  C   UNL     1       5.599  14.610  17.753  0.00  0.00    +0.000 A 
ATOM     17  O   UNL     1       6.871  14.198  17.603  0.00  0.00    +0.000 OA
ATOM     18  C   UNL     1       7.554  14.802  18.625  0.00  0.00    +0.000 A 
ENDBRANCH   1  18
BRANCH  10  19
ATOM     19  C   UNL     1       8.452  12.129  22.844  0.00  0.00    +0.000 C 
BRANCH  19  20
ATOM     20  C   UNL     1       8.173  12.872  24.113  0.00  0.00    +0.000 C 
ATOM     21  C   UNL     1       7.084  12.451  25.097  0.00  0.00    +0.000 C 
ATOM     22  C   UNL     1       6.136  11.313  24.784  0.00  0.00    +0.000 C 
ATOM     23  C   UNL     1       7.454  12.488  26.568  0.00  0.00    +0.000 C 
ATOM     24  C   UNL     1       6.974  13.768  24.309  0.00  0.00    +0.000 C 
ATOM     25  C   UNL     1       7.251  15.096  24.986  0.00  0.00    +0.000 C 
ATOM     26  C   UNL     1       5.946  13.923  23.204  0.00  0.00    +0.000 C 
ENDBRANCH  19  20
ENDBRANCH  10  19
TORSDOF 3
ENDMDL
MODEL 7
REMARK VINA RESULT:      -6.4      8.686     10.432
REMARK  Name = 
REMARK  8 active torsions:
REMARK  status: ('A' for Active; 'I' for Inactive)
REMARK    1  A    between atoms: C_1  and  C_2
REMARK    2  A    between atoms: C_6  and  C_7
REMARK    3  A    between atoms: C_16  and  C_18
REMARK    4  A    between atoms: C_18  and  C_19
REMARK    5  A    between atoms: C_20  and  C_21
REMARK    6  A    between atoms: C_20  and  C_22
REMARK    7  A    between atoms: C_23  and  C_24
REMARK    8  A    between atoms: C_23  and  C_25
REMARK                            x       y       z     vdW  Elec       q    Type
REMARK                         _______ _______ _______ _____ _____    ______ ____
ROOT
ATOM      1  C   UNL     1       8.920  14.614  18.524  0.00  0.00    +0.000 C 
ATOM      2  O   UNL     1       9.660  15.565  18.253  0.00  0.00    +0.000 OA
ATOM      3  N   UNL     1       9.479  13.362  18.804  0.00  0.00    +0.000 N 
ATOM      4  C   UNL     1       8.959  11.968  18.996  0.00  0.00    +0.000 C 
ATOM      5  C   UNL     1       9.658  11.213  17.856  0.00  0.00    +0.000 C 
ATOM      6  C   UNL     1      10.848  12.122  17.514  0.00  0.00    +0.000 C 
ATOM      7  C   UNL     1      10.905  13.188  18.633  0.00  0.00    +0.000 C 
ATOM      8  C   UNL     1      11.490  12.758  20.021  0.00  0.00    +0.000 C 
ATOM      9  N   UNL     1      10.435  12.254  20.951  0.00  0.00    +0.000 N 
ATOM     10  C   UNL     1       9.868  13.136  21.880  0.00  0.00    +0.000 C 
ATOM     11  O   UNL     1      10.206  14.317  21.967  0.00  0.00    +0.000 OA
ATOM     12  C   UNL     1       9.545  11.315  20.297  0.00  0.00    +0.000 C 
ENDROOT
BRANCH   1  18
ATOM     13  C   UNL     1       6.817  16.048  20.701  0.00  0.00    +0.000 C 
ATOM     14  C   UNL     1       6.604  15.373  19.398  0.00  0.00    +0.000 A 
ATOM     15  N   UNL     1       5.315  15.298  18.888  0.00  0.00    +0.000 NA
ATOM     16  C   UNL     1       5.478  14.649  17.755  0.00  0.00    +0.000 A 
ATOM     17  O   UNL     1       6.744  14.299  17.461  0.00  0.00    +0.000 OA
ATOM     18  C   UNL     1       7.487  14.773  18.509  0.00  0.00    +0.000 A 
ENDBRANCH   1  18
BRANCH  10  19
ATOM     19  C   UNL     1       8.843  12.545  22.861  0.00  0.00    +0.000 C 
BRANCH  19  20
ATOM     20  C   UNL     1       7.856  13.577  23.311  0.00  0.00    +0.000 C 
ATOM     21  C   UNL     1       7.622  13.915  24.781  0.00  0.00    +0.000 C 
ATOM     22  C   UNL     1       8.299  13.133  25.886  0.00  0.00    +0.000 C 
ATOM     23  C   UNL     1       7.504  15.387  25.124  0.00  0.00    +0.000 C 
ATOM     24  C   UNL     1       6.525  13.241  23.938  0.00  0.00    +0.000 C 
ATOM     25  C   UNL     1       5.341  14.042  23.434  0.00  0.00    +0.000 C 
ATOM     26  C   UNL     1       6.139  11.795  24.186  0.00  0.00    +0.000 C 
ENDBRANCH  19  20
ENDBRANCH  10  19
TORSDOF 3
ENDMDL
MODEL 8
REMARK VINA RESULT:      -6.4      0.693      1.190
REMARK  Name = 
REMARK  8 active torsions:
REMARK  status: ('A' for Active; 'I' for Inactive)
REMARK    1  A    between atoms: C_1  and  C_2
REMARK    2  A    between atoms: C_6  and  C_7
REMARK    3  A    between atoms: C_16  and  C_18
REMARK    4  A    between atoms: C_18  and  C_19
REMARK    5  A    between atoms: C_20  and  C_21
REMARK    6  A    between atoms: C_20  and  C_22
REMARK    7  A    between atoms: C_23  and  C_24
REMARK    8  A    between atoms: C_23  and  C_25
REMARK                            x       y       z     vdW  Elec       q    Type
REMARK                         _______ _______ _______ _____ _____    ______ ____
ROOT
ATOM      1  C   UNL     1       5.293   4.342  18.403  0.00  0.00    +0.000 C 
ATOM      2  O   UNL     1       5.962   4.045  19.399  0.00  0.00    +0.000 OA
ATOM      3  N   UNL     1       3.912   4.121  18.408  0.00  0.00    +0.000 N 
ATOM      4  C   UNL     1       2.809   4.169  17.392  0.00  0.00    +0.000 C 
ATOM      5  C   UNL     1       2.305   2.718  17.406  0.00  0.00    +0.000 C 
ATOM      6  C   UNL     1       2.806   2.189  18.759  0.00  0.00    +0.000 C 
ATOM      7  C   UNL     1       3.328   3.423  19.532  0.00  0.00    +0.000 C 
ATOM      8  C   UNL     1       2.269   4.382  20.174  0.00  0.00    +0.000 C 
ATOM      9  N   UNL     1       1.871   5.488  19.252  0.00  0.00    +0.000 N 
ATOM     10  C   UNL     1       2.513   6.728  19.360  0.00  0.00    +0.000 C 
ATOM     11  O   UNL     1       3.396   6.951  20.190  0.00  0.00    +0.000 OA
ATOM     12  C   UNL     1       1.586   5.000  17.917  0.00  0.00    +0.000 C 
ENDROOT
BRANCH   1  18
ATOM     13  C   UNL     1       7.486   6.839  17.989  0.00  0.00    +0.000 C 
ATOM     14  C   UNL     1       6.850   5.896  17.037  0.00  0.00    +0.000 A 
ATOM     15  N   UNL     1       7.190   5.973  15.694  0.00  0.00    +0.000 NA
ATOM     16  C   UNL     1       6.459   5.026  15.146  0.00  0.00    +0.000 A 
ATOM     17  O   UNL     1       5.681   4.327  15.992  0.00  0.00    +0.000 OA
ATOM     18  C   UNL     1       5.932   4.869  17.224  0.00  0.00    +0.000 A 
ENDBRANCH   1  18
BRANCH  10  19
ATOM     19  C   UNL     1       2.010   7.851  18.438  0.00  0.00    +0.000 C 
BRANCH  19  20
ATOM     20  C   UNL     1       1.348   8.945  19.217  0.00  0.00    +0.000 C 
ATOM     21  C   UNL     1       0.126   9.702  18.705  0.00  0.00    +0.000 C 
ATOM     22  C   UNL     1      -0.421   9.469  17.313  0.00  0.00    +0.000 C 
ATOM     23  C   UNL     1      -0.982   9.953  19.710  0.00  0.00    +0.000 C 
ATOM     24  C   UNL     1       1.481  10.409  18.878  0.00  0.00    +0.000 C 
ATOM     25  C   UNL     1       1.722  11.335  20.054  0.00  0.00    +0.000 C 
ATOM     26  C   UNL     1       2.285  10.844  17.667  0.00  0.00    +0.000 C 
ENDBRANCH  19  20
ENDBRANCH  10  19
TORSDOF 3
ENDMDL
MODEL 9
REMARK VINA RESULT:      -6.4      0.432      1.611
REMARK  Name = 
REMARK  8 active torsions:
REMARK  status: ('A' for Active; 'I' for Inactive)
REMARK    1  A    between atoms: C_1  and  C_2
REMARK    2  A    between atoms: C_6  and  C_7
REMARK    3  A    between atoms: C_16  and  C_18
REMARK    4  A    between atoms: C_18  and  C_19
REMARK    5  A    between atoms: C_20  and  C_21
REMARK    6  A    between atoms: C_20  and  C_22
REMARK    7  A    between atoms: C_23  and  C_24
REMARK    8  A    between atoms: C_23  and  C_25
REMARK                            x       y       z     vdW  Elec       q    Type
REMARK                         _______ _______ _______ _____ _____    ______ ____
ROOT
ATOM      1  C   UNL     1       5.408   4.180  18.382  0.00  0.00    +0.000 C 
ATOM      2  O   UNL     1       6.051   3.879  19.394  0.00  0.00    +0.000 OA
ATOM      3  N   UNL     1       4.022   3.993  18.364  0.00  0.00    +0.000 N 
ATOM      4  C   UNL     1       2.939   4.057  17.328  0.00  0.00    +0.000 C 
ATOM      5  C   UNL     1       2.399   2.619  17.349  0.00  0.00    +0.000 C 
ATOM      6  C   UNL     1       2.863   2.093  18.716  0.00  0.00    +0.000 C 
ATOM      7  C   UNL     1       3.401   3.322  19.485  0.00  0.00    +0.000 C 
ATOM      8  C   UNL     1       2.354   4.314  20.098  0.00  0.00    +0.000 C 
ATOM      9  N   UNL     1       2.000   5.419  19.157  0.00  0.00    +0.000 N 
ATOM     10  C   UNL     1       2.670   6.644  19.262  0.00  0.00    +0.000 C 
ATOM     11  O   UNL     1       3.543   6.854  20.105  0.00  0.00    +0.000 OA
ATOM     12  C   UNL     1       1.727   4.923  17.822  0.00  0.00    +0.000 C 
ENDROOT
BRANCH   1  18
ATOM     13  C   UNL     1       7.436   6.806  17.927  0.00  0.00    +0.000 C 
ATOM     14  C   UNL     1       6.931   5.759  17.007  0.00  0.00    +0.000 A 
ATOM     15  N   UNL     1       7.350   5.775  15.683  0.00  0.00    +0.000 NA
ATOM     16  C   UNL     1       6.726   4.742  15.160  0.00  0.00    +0.000 A 
ATOM     17  O   UNL     1       5.948   4.040  16.004  0.00  0.00    +0.000 OA
ATOM     18  C   UNL     1       6.081   4.679  17.209  0.00  0.00    +0.000 A 
ENDBRANCH   1  18
BRANCH  10  19
ATOM     19  C   UNL     1       2.212   7.768  18.319  0.00  0.00    +0.000 C 
BRANCH  19  20
ATOM     20  C   UNL     1       0.920   8.373  18.774  0.00  0.00    +0.000 C 
ATOM     21  C   UNL     1       0.636   9.871  18.700  0.00  0.00    +0.000 C 
ATOM     22  C   UNL     1       1.701  10.855  18.266  0.00  0.00    +0.000 C 
ATOM     23  C   UNL     1      -0.739  10.272  18.200  0.00  0.00    +0.000 C 
ATOM     24  C   UNL     1       0.772   9.157  20.056  0.00  0.00    +0.000 C 
ATOM     25  C   UNL     1      -0.457   8.834  20.882  0.00  0.00    +0.000 C 
ATOM     26  C   UNL     1       1.976   9.407  20.943  0.00  0.00    +0.000 C 
ENDBRANCH  19  20
ENDBRANCH  10  19
TORSDOF 3
ENDMDL
