MODEL 1
REMARK VINA RESULT:     -10.3      0.000      0.000
REMARK  Name = 
REMARK  4 active torsions:
REMARK  status: ('A' for Active; 'I' for Inactive)
REMARK    1  A    between atoms: C_2  and  C_18
REMARK    2  A    between atoms: N_3  and  C_4
REMARK    3  A    between atoms: C_8  and  S_9
REMARK    4  A    between atoms: S_9  and  C_12
REMARK                            x       y       z     vdW  Elec       q    Type
REMARK                         _______ _______ _______ _____ _____    ______ ____
ROOT
ATOM      1  O   UNL     1       4.610   7.076  17.106  0.00  0.00    +0.000 OA
ATOM      2  C   UNL     1       4.135   6.246  17.879  0.00  0.00    +0.000 C 
ATOM      3  N   UNL     1       3.179   6.506  18.861  0.00  0.00    +0.000 N 
ATOM      4  H   UNL     1       2.885   5.731  19.447  0.00  0.00    +0.000 HD
ENDROOT
BRANCH   2   5
ATOM      5  C   UNL     1       4.412   4.776  17.653  0.00  0.00    +0.000 A 
ATOM      6  C   UNL     1       3.266   4.120  17.363  0.00  0.00    +0.000 A 
ATOM      7  C   UNL     1       2.680   3.473  18.557  0.00  0.00    +0.000 A 
ATOM      8  C   UNL     1       1.302   3.527  18.768  0.00  0.00    +0.000 A 
ATOM      9  C   UNL     1       0.792   3.258  20.037  0.00  0.00    +0.000 A 
ATOM     10  C   UNL     1       1.647   2.874  21.073  0.00  0.00    +0.000 A 
ATOM     11  C   UNL     1       3.017   2.730  20.846  0.00  0.00    +0.000 A 
ATOM     12  C   UNL     1       3.529   3.069  19.599  0.00  0.00    +0.000 A 
ATOM     13  N   UNL     1       4.911   3.183  19.413  0.00  0.00    +0.000 N 
ATOM     14  C   UNL     1       5.418   4.038  18.466  0.00  0.00    +0.000 A 
ATOM     15  O   UNL     1       6.618   4.274  18.375  0.00  0.00    +0.000 OA
ATOM     16  H   UNL     1       5.564   2.795  20.081  0.00  0.00    +0.000 HD
ENDBRANCH   2   5
BRANCH   3  17
ATOM     17  C   UNL     1       2.368   7.673  18.956  0.00  0.00    +0.000 A 
ATOM     18  C   UNL     1       1.897   8.368  17.838  0.00  0.00    +0.000 A 
ATOM     19  C   UNL     1       0.973   9.409  17.969  0.00  0.00    +0.000 A 
ATOM     20  C   UNL     1       0.498   9.775  19.225  0.00  0.00    +0.000 A 
ATOM     21  C   UNL     1       0.990   9.121  20.356  0.00  0.00    +0.000 A 
ATOM     22  C   UNL     1       1.936   8.087  20.229  0.00  0.00    +0.000 A 
BRANCH  21  23
ATOM     23  S   UNL     1       0.148   9.382  21.905  0.00  0.00    +0.000 S 
ATOM     24  O   UNL     1      -0.845   8.339  22.022  0.00  0.00    +0.000 OA
ATOM     25  O   UNL     1       1.174   9.532  22.929  0.00  0.00    +0.000 OA
BRANCH  23  26
ATOM     26  C   UNL     1      -0.736  10.938  21.782  0.00  0.00    +0.000 C 
ATOM     27  C   UNL     1       0.151  12.163  21.602  0.00  0.00    +0.000 C 
ATOM     28  C   UNL     1      -0.596  13.327  22.254  0.00  0.00    +0.000 C 
ATOM     29  C   UNL     1      -1.723  12.728  23.086  0.00  0.00    +0.000 C 
ATOM     30  C   UNL     1      -1.490  11.228  23.085  0.00  0.00    +0.000 C 
ENDBRANCH  23  26
ENDBRANCH  21  23
ENDBRANCH   3  17
TORSDOF 4
ENDMDL
MODEL 2
REMARK VINA RESULT:      -9.1      2.155      2.860
REMARK  Name = 
REMARK  4 active torsions:
REMARK  status: ('A' for Active; 'I' for Inactive)
REMARK    1  A    between atoms: C_2  and  C_18
REMARK    2  A    between atoms: N_3  and  C_4
REMARK    3  A    between atoms: C_8  and  S_9
REMARK    4  A    between atoms: S_9  and  C_12
REMARK                            x       y       z     vdW  Elec       q    Type
REMARK                         _______ _______ _______ _____ _____    ______ ____
ROOT
ATOM      1  O   UNL     1       3.197   7.690  17.496  0.00  0.00    +0.000 OA
ATOM      2  C   UNL     1       3.410   6.870  18.386  0.00  0.00    +0.000 C 
ATOM      3  N   UNL     1       2.882   6.917  19.677  0.00  0.00    +0.000 N 
ATOM      4  H   UNL     1       3.155   6.183  20.323  0.00  0.00    +0.000 HD
ENDROOT
BRANCH   2   5
ATOM      5  C   UNL     1       4.119   5.575  18.051  0.00  0.00    +0.000 A 
ATOM      6  C   UNL     1       3.256   4.695  17.496  0.00  0.00    +0.000 A 
ATOM      7  C   UNL     1       2.721   3.743  18.492  0.00  0.00    +0.000 A 
ATOM      8  C   UNL     1       1.368   3.401  18.466  0.00  0.00    +0.000 A 
ATOM      9  C   UNL     1       0.787   2.816  19.591  0.00  0.00    +0.000 A 
ATOM     10  C   UNL     1       1.567   2.515  20.710  0.00  0.00    +0.000 A 
ATOM     11  C   UNL     1       2.940   2.771  20.709  0.00  0.00    +0.000 A 
ATOM     12  C   UNL     1       3.499   3.420  19.615  0.00  0.00    +0.000 A 
ATOM     13  N   UNL     1       4.805   3.918  19.684  0.00  0.00    +0.000 N 
ATOM     14  C   UNL     1       5.173   5.011  18.938  0.00  0.00    +0.000 A 
ATOM     15  O   UNL     1       6.258   5.564  19.083  0.00  0.00    +0.000 OA
ATOM     16  H   UNL     1       5.444   3.617  20.407  0.00  0.00    +0.000 HD
ENDBRANCH   2   5
BRANCH   3  17
ATOM     17  C   UNL     1       1.790   7.723  20.107  0.00  0.00    +0.000 A 
ATOM     18  C   UNL     1       1.046   7.449  21.259  0.00  0.00    +0.000 A 
ATOM     19  C   UNL     1       0.091   8.352  21.736  0.00  0.00    +0.000 A 
ATOM     20  C   UNL     1      -0.138   9.552  21.069  0.00  0.00    +0.000 A 
ATOM     21  C   UNL     1       0.565   9.824  19.894  0.00  0.00    +0.000 A 
ATOM     22  C   UNL     1       1.511   8.907  19.400  0.00  0.00    +0.000 A 
BRANCH  21  23
ATOM     23  S   UNL     1       0.491  11.479  19.238  0.00  0.00    +0.000 S 
ATOM     24  O   UNL     1       0.333  12.368  20.365  0.00  0.00    +0.000 OA
ATOM     25  O   UNL     1       1.628  11.634  18.339  0.00  0.00    +0.000 OA
BRANCH  23  26
ATOM     26  C   UNL     1      -1.005  11.603  18.257  0.00  0.00    +0.000 C 
ATOM     27  C   UNL     1      -2.250  12.000  19.040  0.00  0.00    +0.000 C 
ATOM     28  C   UNL     1      -3.430  11.348  18.319  0.00  0.00    +0.000 C 
ATOM     29  C   UNL     1      -2.854  10.324  17.348  0.00  0.00    +0.000 C 
ATOM     30  C   UNL     1      -1.372  10.238  17.666  0.00  0.00    +0.000 C 
ENDBRANCH  23  26
ENDBRANCH  21  23
ENDBRANCH   3  17
TORSDOF 4
ENDMDL
MODEL 3
REMARK VINA RESULT:      -9.1      1.720      3.045
REMARK  Name = 
REMARK  4 active torsions:
REMARK  status: ('A' for Active; 'I' for Inactive)
REMARK    1  A    between atoms: C_2  and  C_18
REMARK    2  A    between atoms: N_3  and  C_4
REMARK    3  A    between atoms: C_8  and  S_9
REMARK    4  A    between atoms: S_9  and  C_12
REMARK                            x       y       z     vdW  Elec       q    Type
REMARK                         _______ _______ _______ _____ _____    ______ ____
ROOT
ATOM      1  O   UNL     1       1.691   5.086  20.186  0.00  0.00    +0.000 OA
ATOM      2  C   UNL     1       2.648   5.302  19.445  0.00  0.00    +0.000 C 
ATOM      3  N   UNL     1       2.854   6.466  18.703  0.00  0.00    +0.000 N 
ATOM      4  H   UNL     1       3.680   6.507  18.115  0.00  0.00    +0.000 HD
ENDROOT
BRANCH   2   5
ATOM      5  C   UNL     1       3.831   4.359  19.465  0.00  0.00    +0.000 A 
ATOM      6  C   UNL     1       4.984   5.046  19.300  0.00  0.00    +0.000 A 
ATOM      7  C   UNL     1       5.438   5.034  17.892  0.00  0.00    +0.000 A 
ATOM      8  C   UNL     1       5.947   6.200  17.320  0.00  0.00    +0.000 A 
ATOM      9  C   UNL     1       6.026   6.304  15.931  0.00  0.00    +0.000 A 
ATOM     10  C   UNL     1       5.660   5.225  15.122  0.00  0.00    +0.000 A 
ATOM     11  C   UNL     1       5.235   4.023  15.692  0.00  0.00    +0.000 A 
ATOM     12  C   UNL     1       5.089   3.950  17.072  0.00  0.00    +0.000 A 
ATOM     13  N   UNL     1       4.429   2.861  17.653  0.00  0.00    +0.000 N 
ATOM     14  C   UNL     1       3.762   3.007  18.844  0.00  0.00    +0.000 A 
ATOM     15  O   UNL     1       3.052   2.121  19.307  0.00  0.00    +0.000 OA
ATOM     16  H   UNL     1       4.266   2.009  17.134  0.00  0.00    +0.000 HD
ENDBRANCH   2   5
BRANCH   3  17
ATOM     17  C   UNL     1       2.183   7.708  18.888  0.00  0.00    +0.000 A 
ATOM     18  C   UNL     1       1.798   8.533  17.826  0.00  0.00    +0.000 A 
ATOM     19  C   UNL     1       0.999   9.661  18.039  0.00  0.00    +0.000 A 
ATOM     20  C   UNL     1       0.567   9.986  19.322  0.00  0.00    +0.000 A 
ATOM     21  C   UNL     1       0.977   9.198  20.399  0.00  0.00    +0.000 A 
ATOM     22  C   UNL     1       1.798   8.075  20.190  0.00  0.00    +0.000 A 
BRANCH  21  23
ATOM     23  S   UNL     1       0.167   9.439  21.968  0.00  0.00    +0.000 S 
ATOM     24  O   UNL     1      -0.788   8.366  22.115  0.00  0.00    +0.000 OA
ATOM     25  O   UNL     1       1.213   9.628  22.964  0.00  0.00    +0.000 OA
BRANCH  23  26
ATOM     26  C   UNL     1      -0.770  10.965  21.861  0.00  0.00    +0.000 C 
ATOM     27  C   UNL     1       0.076  12.225  21.727  0.00  0.00    +0.000 C 
ATOM     28  C   UNL     1      -0.727  13.346  22.389  0.00  0.00    +0.000 C 
ATOM     29  C   UNL     1      -1.848  12.688  23.183  0.00  0.00    +0.000 C 
ATOM     30  C   UNL     1      -1.561  11.197  23.153  0.00  0.00    +0.000 C 
ENDBRANCH  23  26
ENDBRANCH  21  23
ENDBRANCH   3  17
TORSDOF 4
ENDMDL
MODEL 4
REMARK VINA RESULT:      -9.1      2.652      4.096
REMARK  Name = 
REMARK  4 active torsions:
REMARK  status: ('A' for Active; 'I' for Inactive)
REMARK    1  A    between atoms: C_2  and  C_18
REMARK    2  A    between atoms: N_3  and  C_4
REMARK    3  A    between atoms: C_8  and  S_9
REMARK    4  A    between atoms: S_9  and  C_12
REMARK                            x       y       z     vdW  Elec       q    Type
REMARK                         _______ _______ _______ _____ _____    ______ ____
ROOT
ATOM      1  O   UNL     1       1.625   4.884  19.710  0.00  0.00    +0.000 OA
ATOM      2  C   UNL     1       2.652   5.559  19.701  0.00  0.00    +0.000 C 
ATOM      3  N   UNL     1       2.712   6.948  19.816  0.00  0.00    +0.000 N 
ATOM      4  H   UNL     1       3.628   7.384  19.775  0.00  0.00    +0.000 HD
ENDROOT
BRANCH   2   5
ATOM      5  C   UNL     1       3.997   4.869  19.792  0.00  0.00    +0.000 A 
ATOM      6  C   UNL     1       4.977   5.686  19.344  0.00  0.00    +0.000 A 
ATOM      7  C   UNL     1       5.320   5.415  17.932  0.00  0.00    +0.000 A 
ATOM      8  C   UNL     1       5.547   6.479  17.058  0.00  0.00    +0.000 A 
ATOM      9  C   UNL     1       5.502   6.258  15.682  0.00  0.00    +0.000 A 
ATOM     10  C   UNL     1       5.297   4.969  15.182  0.00  0.00    +0.000 A 
ATOM     11  C   UNL     1       5.159   3.885  16.051  0.00  0.00    +0.000 A 
ATOM     12  C   UNL     1       5.132   4.122  17.419  0.00  0.00    +0.000 A 
ATOM     13  N   UNL     1       4.743   3.107  18.302  0.00  0.00    +0.000 N 
ATOM     14  C   UNL     1       4.149   3.417  19.500  0.00  0.00    +0.000 A 
ATOM     15  O   UNL     1       3.663   2.559  20.229  0.00  0.00    +0.000 OA
ATOM     16  H   UNL     1       4.713   2.140  18.009  0.00  0.00    +0.000 HD
ENDBRANCH   2   5
BRANCH   3  17
ATOM     17  C   UNL     1       1.659   7.800  20.257  0.00  0.00    +0.000 A 
ATOM     18  C   UNL     1       0.985   7.615  21.468  0.00  0.00    +0.000 A 
ATOM     19  C   UNL     1       0.072   8.564  21.940  0.00  0.00    +0.000 A 
ATOM     20  C   UNL     1      -0.182   9.721  21.210  0.00  0.00    +0.000 A 
ATOM     21  C   UNL     1       0.451   9.902  19.979  0.00  0.00    +0.000 A 
ATOM     22  C   UNL     1       1.353   8.939  19.491  0.00  0.00    +0.000 A 
BRANCH  21  23
ATOM     23  S   UNL     1       0.358  11.512  19.219  0.00  0.00    +0.000 S 
ATOM     24  O   UNL     1       0.153  12.465  20.285  0.00  0.00    +0.000 OA
ATOM     25  O   UNL     1       1.514  11.637  18.340  0.00  0.00    +0.000 OA
BRANCH  23  26
ATOM     26  C   UNL     1      -1.115  11.542  18.197  0.00  0.00    +0.000 C 
ATOM     27  C   UNL     1      -2.390  11.944  18.928  0.00  0.00    +0.000 C 
ATOM     28  C   UNL     1      -3.533  11.220  18.215  0.00  0.00    +0.000 C 
ATOM     29  C   UNL     1      -2.905  10.164  17.315  0.00  0.00    +0.000 C 
ATOM     30  C   UNL     1      -1.429  10.137  17.671  0.00  0.00    +0.000 C 
ENDBRANCH  23  26
ENDBRANCH  21  23
ENDBRANCH   3  17
TORSDOF 4
ENDMDL
MODEL 5
REMARK VINA RESULT:      -9.1      0.718      1.026
REMARK  Name = 
REMARK  4 active torsions:
REMARK  status: ('A' for Active; 'I' for Inactive)
REMARK    1  A    between atoms: C_2  and  C_18
REMARK    2  A    between atoms: N_3  and  C_4
REMARK    3  A    between atoms: C_8  and  S_9
REMARK    4  A    between atoms: S_9  and  C_12
REMARK                            x       y       z     vdW  Elec       q    Type
REMARK                         _______ _______ _______ _____ _____    ______ ____
ROOT
ATOM      1  O   UNL     1       4.607   6.995  16.968  0.00  0.00    +0.000 OA
ATOM      2  C   UNL     1       4.157   6.198  17.789  0.00  0.00    +0.000 C 
ATOM      3  N   UNL     1       3.225   6.496  18.783  0.00  0.00    +0.000 N 
ATOM      4  H   UNL     1       2.951   5.746  19.409  0.00  0.00    +0.000 HD
ENDROOT
BRANCH   2   5
ATOM      5  C   UNL     1       4.436   4.720  17.621  0.00  0.00    +0.000 A 
ATOM      6  C   UNL     1       3.294   4.054  17.340  0.00  0.00    +0.000 A 
ATOM      7  C   UNL     1       2.694   3.451  18.549  0.00  0.00    +0.000 A 
ATOM      8  C   UNL     1       1.312   3.513  18.740  0.00  0.00    +0.000 A 
ATOM      9  C   UNL     1       0.786   3.290  20.013  0.00  0.00    +0.000 A 
ATOM     10  C   UNL     1       1.628   2.944  21.072  0.00  0.00    +0.000 A 
ATOM     11  C   UNL     1       3.001   2.793  20.868  0.00  0.00    +0.000 A 
ATOM     12  C   UNL     1       3.528   3.086  19.617  0.00  0.00    +0.000 A 
ATOM     13  N   UNL     1       4.913   3.193  19.444  0.00  0.00    +0.000 N 
ATOM     14  C   UNL     1       5.432   4.013  18.472  0.00  0.00    +0.000 A 
ATOM     15  O   UNL     1       6.633   4.246  18.388  0.00  0.00    +0.000 OA
ATOM     16  H   UNL     1       5.558   2.830  20.133  0.00  0.00    +0.000 HD
ENDBRANCH   2   5
BRANCH   3  17
ATOM     17  C   UNL     1       2.411   7.663  18.847  0.00  0.00    +0.000 A 
ATOM     18  C   UNL     1       1.846   8.263  17.717  0.00  0.00    +0.000 A 
ATOM     19  C   UNL     1       0.923   9.306  17.837  0.00  0.00    +0.000 A 
ATOM     20  C   UNL     1       0.542   9.769  19.093  0.00  0.00    +0.000 A 
ATOM     21  C   UNL     1       1.127   9.210  20.231  0.00  0.00    +0.000 A 
ATOM     22  C   UNL     1       2.073   8.175  20.113  0.00  0.00    +0.000 A 
BRANCH  21  23
ATOM     23  S   UNL     1       0.405   9.591  21.815  0.00  0.00    +0.000 S 
ATOM     24  O   UNL     1      -0.819   8.831  21.909  0.00  0.00    +0.000 OA
ATOM     25  O   UNL     1       1.452   9.417  22.815  0.00  0.00    +0.000 OA
BRANCH  23  26
ATOM     26  C   UNL     1      -0.053  11.325  21.796  0.00  0.00    +0.000 C 
ATOM     27  C   UNL     1      -1.394  11.623  21.137  0.00  0.00    +0.000 C 
ATOM     28  C   UNL     1      -1.273  13.028  20.546  0.00  0.00    +0.000 C 
ATOM     29  C   UNL     1       0.205  13.397  20.564  0.00  0.00    +0.000 C 
ATOM     30  C   UNL     1       0.946  12.133  20.961  0.00  0.00    +0.000 C 
ENDBRANCH  23  26
ENDBRANCH  21  23
ENDBRANCH   3  17
TORSDOF 4
ENDMDL
MODEL 6
REMARK VINA RESULT:      -9.0      3.042      8.430
REMARK  Name = 
REMARK  4 active torsions:
REMARK  status: ('A' for Active; 'I' for Inactive)
REMARK    1  A    between atoms: C_2  and  C_18
REMARK    2  A    between atoms: N_3  and  C_4
REMARK    3  A    between atoms: C_8  and  S_9
REMARK    4  A    between atoms: S_9  and  C_12
REMARK                            x       y       z     vdW  Elec       q    Type
REMARK                         _______ _______ _______ _____ _____    ______ ____
ROOT
ATOM      1  O   UNL     1       1.811   8.134  21.093  0.00  0.00    +0.000 OA
ATOM      2  C   UNL     1       1.441   8.622  20.027  0.00  0.00    +0.000 C 
ATOM      3  N   UNL     1       1.811   8.175  18.757  0.00  0.00    +0.000 N 
ATOM      4  H   UNL     1       1.446   8.682  17.957  0.00  0.00    +0.000 HD
ENDROOT
BRANCH   2   5
ATOM      5  C   UNL     1       0.330   9.651  20.025  0.00  0.00    +0.000 A 
ATOM      6  C   UNL     1       0.370  10.385  18.890  0.00  0.00    +0.000 A 
ATOM      7  C   UNL     1       1.086  11.664  19.084  0.00  0.00    +0.000 A 
ATOM      8  C   UNL     1       1.968  12.119  18.102  0.00  0.00    +0.000 A 
ATOM      9  C   UNL     1       2.905  13.100  18.424  0.00  0.00    +0.000 A 
ATOM     10  C   UNL     1       2.919  13.669  19.700  0.00  0.00    +0.000 A 
ATOM     11  C   UNL     1       1.981  13.283  20.660  0.00  0.00    +0.000 A 
ATOM     12  C   UNL     1       1.098  12.254  20.357  0.00  0.00    +0.000 A 
ATOM     13  N   UNL     1       0.324  11.671  21.367  0.00  0.00    +0.000 N 
ATOM     14  C   UNL     1      -0.076  10.361  21.269  0.00  0.00    +0.000 A 
ATOM     15  O   UNL     1      -0.625   9.775  22.195  0.00  0.00    +0.000 OA
ATOM     16  H   UNL     1       0.201  12.124  22.263  0.00  0.00    +0.000 HD
ENDBRANCH   2   5
BRANCH   3  17
ATOM     17  C   UNL     1       2.420   6.925  18.453  0.00  0.00    +0.000 A 
ATOM     18  C   UNL     1       1.818   5.694  18.733  0.00  0.00    +0.000 A 
ATOM     19  C   UNL     1       2.372   4.496  18.272  0.00  0.00    +0.000 A 
ATOM     20  C   UNL     1       3.542   4.505  17.517  0.00  0.00    +0.000 A 
ATOM     21  C   UNL     1       4.179   5.721  17.263  0.00  0.00    +0.000 A 
ATOM     22  C   UNL     1       3.635   6.927  17.744  0.00  0.00    +0.000 A 
BRANCH  21  23
ATOM     23  S   UNL     1       5.480   5.746  16.046  0.00  0.00    +0.000 S 
ATOM     24  O   UNL     1       5.507   4.436  15.437  0.00  0.00    +0.000 OA
ATOM     25  O   UNL     1       5.273   6.930  15.223  0.00  0.00    +0.000 OA
BRANCH  23  26
ATOM     26  C   UNL     1       7.033   5.950  16.921  0.00  0.00    +0.000 C 
ATOM     27  C   UNL     1       7.136   5.172  18.227  0.00  0.00    +0.000 C 
ATOM     28  C   UNL     1       8.059   5.988  19.134  0.00  0.00    +0.000 C 
ATOM     29  C   UNL     1       8.210   7.365  18.499  0.00  0.00    +0.000 C 
ATOM     30  C   UNL     1       7.213   7.409  17.355  0.00  0.00    +0.000 C 
ENDBRANCH  23  26
ENDBRANCH  21  23
ENDBRANCH   3  17
TORSDOF 4
ENDMDL
MODEL 7
REMARK VINA RESULT:      -8.9      2.420      3.326
REMARK  Name = 
REMARK  4 active torsions:
REMARK  status: ('A' for Active; 'I' for Inactive)
REMARK    1  A    between atoms: C_2  and  C_18
REMARK    2  A    between atoms: N_3  and  C_4
REMARK    3  A    between atoms: C_8  and  S_9
REMARK    4  A    between atoms: S_9  and  C_12
REMARK                            x       y       z     vdW  Elec       q    Type
REMARK                         _______ _______ _______ _____ _____    ______ ____
ROOT
ATOM      1  O   UNL     1       3.001   8.312  18.026  0.00  0.00    +0.000 OA
ATOM      2  C   UNL     1       2.816   7.243  18.604  0.00  0.00    +0.000 C 
ATOM      3  N   UNL     1       2.212   7.089  19.853  0.00  0.00    +0.000 N 
ATOM      4  H   UNL     1       2.138   6.148  20.225  0.00  0.00    +0.000 HD
ENDROOT
BRANCH   2   5
ATOM      5  C   UNL     1       3.044   5.945  17.860  0.00  0.00    +0.000 A 
ATOM      6  C   UNL     1       1.949   5.157  17.939  0.00  0.00    +0.000 A 
ATOM      7  C   UNL     1       2.065   4.156  19.021  0.00  0.00    +0.000 A 
ATOM      8  C   UNL     1       0.964   3.887  19.836  0.00  0.00    +0.000 A 
ATOM      9  C   UNL     1       1.157   3.244  21.058  0.00  0.00    +0.000 A 
ATOM     10  C   UNL     1       2.432   2.815  21.435  0.00  0.00    +0.000 A 
ATOM     11  C   UNL     1       3.523   3.001  20.584  0.00  0.00    +0.000 A 
ATOM     12  C   UNL     1       3.338   3.706  19.401  0.00  0.00    +0.000 A 
ATOM     13  N   UNL     1       4.443   4.130  18.654  0.00  0.00    +0.000 N 
ATOM     14  C   UNL     1       4.366   5.259  17.876  0.00  0.00    +0.000 A 
ATOM     15  O   UNL     1       5.350   5.743  17.328  0.00  0.00    +0.000 OA
ATOM     16  H   UNL     1       5.364   3.740  18.810  0.00  0.00    +0.000 HD
ENDBRANCH   2   5
BRANCH   3  17
ATOM     17  C   UNL     1       1.443   8.071  20.539  0.00  0.00    +0.000 A 
ATOM     18  C   UNL     1       1.581   8.330  21.907  0.00  0.00    +0.000 A 
ATOM     19  C   UNL     1       0.928   9.410  22.508  0.00  0.00    +0.000 A 
ATOM     20  C   UNL     1       0.125  10.258  21.751  0.00  0.00    +0.000 A 
ATOM     21  C   UNL     1      -0.058   9.990  20.393  0.00  0.00    +0.000 A 
ATOM     22  C   UNL     1       0.580   8.891  19.790  0.00  0.00    +0.000 A 
BRANCH  21  23
ATOM     23  S   UNL     1      -0.822  11.248  19.388  0.00  0.00    +0.000 S 
ATOM     24  O   UNL     1      -1.462  12.174  20.293  0.00  0.00    +0.000 OA
ATOM     25  O   UNL     1       0.190  11.722  18.453  0.00  0.00    +0.000 OA
BRANCH  23  26
ATOM     26  C   UNL     1      -2.123  10.461  18.436  0.00  0.00    +0.000 C 
ATOM     27  C   UNL     1      -1.671   9.873  17.104  0.00  0.00    +0.000 C 
ATOM     28  C   UNL     1      -2.880   9.960  16.172  0.00  0.00    +0.000 C 
ATOM     29  C   UNL     1      -3.896  10.881  16.836  0.00  0.00    +0.000 C 
ATOM     30  C   UNL     1      -3.187  11.488  18.034  0.00  0.00    +0.000 C 
ENDBRANCH  23  26
ENDBRANCH  21  23
ENDBRANCH   3  17
TORSDOF 4
ENDMDL
MODEL 8
REMARK VINA RESULT:      -8.9      1.881      3.326
REMARK  Name = 
REMARK  4 active torsions:
REMARK  status: ('A' for Active; 'I' for Inactive)
REMARK    1  A    between atoms: C_2  and  C_18
REMARK    2  A    between atoms: N_3  and  C_4
REMARK    3  A    between atoms: C_8  and  S_9
REMARK    4  A    between atoms: S_9  and  C_12
REMARK                            x       y       z     vdW  Elec       q    Type
REMARK                         _______ _______ _______ _____ _____    ______ ____
ROOT
ATOM      1  O   UNL     1       2.789   5.315  20.605  0.00  0.00    +0.000 OA
ATOM      2  C   UNL     1       2.836   5.206  19.381  0.00  0.00    +0.000 C 
ATOM      3  N   UNL     1       2.416   6.169  18.463  0.00  0.00    +0.000 N 
ATOM      4  H   UNL     1       2.494   5.943  17.477  0.00  0.00    +0.000 HD
ENDROOT
BRANCH   2   5
ATOM      5  C   UNL     1       3.598   4.051  18.767  0.00  0.00    +0.000 A 
ATOM      6  C   UNL     1       4.836   3.964  19.303  0.00  0.00    +0.000 A 
ATOM      7  C   UNL     1       5.852   4.632  18.462  0.00  0.00    +0.000 A 
ATOM      8  C   UNL     1       6.845   5.409  19.060  0.00  0.00    +0.000 A 
ATOM      9  C   UNL     1       7.561   6.321  18.286  0.00  0.00    +0.000 A 
ATOM     10  C   UNL     1       7.332   6.410  16.911  0.00  0.00    +0.000 A 
ATOM     11  C   UNL     1       6.404   5.572  16.290  0.00  0.00    +0.000 A 
ATOM     12  C   UNL     1       5.642   4.717  17.077  0.00  0.00    +0.000 A 
ATOM     13  N   UNL     1       4.536   4.056  16.530  0.00  0.00    +0.000 N 
ATOM     14  C   UNL     1       3.469   3.713  17.323  0.00  0.00    +0.000 A 
ATOM     15  O   UNL     1       2.425   3.269  16.856  0.00  0.00    +0.000 OA
ATOM     16  H   UNL     1       4.409   3.985  15.529  0.00  0.00    +0.000 HD
ENDBRANCH   2   5
BRANCH   3  17
ATOM     17  C   UNL     1       2.144   7.537  18.748  0.00  0.00    +0.000 A 
ATOM     18  C   UNL     1       2.166   8.540  17.773  0.00  0.00    +0.000 A 
ATOM     19  C   UNL     1       1.735   9.838  18.060  0.00  0.00    +0.000 A 
ATOM     20  C   UNL     1       1.269  10.161  19.332  0.00  0.00    +0.000 A 
ATOM     21  C   UNL     1       1.280   9.184  20.329  0.00  0.00    +0.000 A 
ATOM     22  C   UNL     1       1.733   7.882  20.049  0.00  0.00    +0.000 A 
BRANCH  21  23
ATOM     23  S   UNL     1       0.398   9.522  21.840  0.00  0.00    +0.000 S 
ATOM     24  O   UNL     1      -0.706   8.593  21.896  0.00  0.00    +0.000 OA
ATOM     25  O   UNL     1       1.383   9.552  22.913  0.00  0.00    +0.000 OA
BRANCH  23  26
ATOM     26  C   UNL     1      -0.306  11.166  21.697  0.00  0.00    +0.000 C 
ATOM     27  C   UNL     1      -1.130  11.614  22.898  0.00  0.00    +0.000 C 
ATOM     28  C   UNL     1      -2.195  12.565  22.351  0.00  0.00    +0.000 C 
ATOM     29  C   UNL     1      -2.203  12.407  20.836  0.00  0.00    +0.000 C 
ATOM     30  C   UNL     1      -1.305  11.220  20.536  0.00  0.00    +0.000 C 
ENDBRANCH  23  26
ENDBRANCH  21  23
ENDBRANCH   3  17
TORSDOF 4
ENDMDL
MODEL 9
REMARK VINA RESULT:      -8.8      2.653      4.215
REMARK  Name = 
REMARK  4 active torsions:
REMARK  status: ('A' for Active; 'I' for Inactive)
REMARK    1  A    between atoms: C_2  and  C_18
REMARK    2  A    between atoms: N_3  and  C_4
REMARK    3  A    between atoms: C_8  and  S_9
REMARK    4  A    between atoms: S_9  and  C_12
REMARK                            x       y       z     vdW  Elec       q    Type
REMARK                         _______ _______ _______ _____ _____    ______ ____
ROOT
ATOM      1  O   UNL     1       2.405   7.330  18.200  0.00  0.00    +0.000 OA
ATOM      2  C   UNL     1       2.505   6.635  19.210  0.00  0.00    +0.000 C 
ATOM      3  N   UNL     1       2.159   7.029  20.503  0.00  0.00    +0.000 N 
ATOM      4  H   UNL     1       2.309   6.361  21.252  0.00  0.00    +0.000 HD
ENDROOT
BRANCH   2   5
ATOM      5  C   UNL     1       2.817   5.161  19.070  0.00  0.00    +0.000 A 
ATOM      6  C   UNL     1       3.971   4.861  19.707  0.00  0.00    +0.000 A 
ATOM      7  C   UNL     1       5.124   4.841  18.781  0.00  0.00    +0.000 A 
ATOM      8  C   UNL     1       6.338   5.406  19.175  0.00  0.00    +0.000 A 
ATOM      9  C   UNL     1       7.293   5.721  18.208  0.00  0.00    +0.000 A 
ATOM     10  C   UNL     1       7.062   5.414  16.865  0.00  0.00    +0.000 A 
ATOM     11  C   UNL     1       5.888   4.767  16.476  0.00  0.00    +0.000 A 
ATOM     12  C   UNL     1       4.910   4.521  17.432  0.00  0.00    +0.000 A 
ATOM     13  N   UNL     1       3.630   4.112  17.040  0.00  0.00    +0.000 N 
ATOM     14  C   UNL     1       2.536   4.420  17.810  0.00  0.00    +0.000 A 
ATOM     15  O   UNL     1       1.389   4.210  17.428  0.00  0.00    +0.000 OA
ATOM     16  H   UNL     1       3.454   3.755  16.110  0.00  0.00    +0.000 HD
ENDBRANCH   2   5
BRANCH   3  17
ATOM     17  C   UNL     1       1.366   8.158  20.852  0.00  0.00    +0.000 A 
ATOM     18  C   UNL     1       0.908   8.398  22.152  0.00  0.00    +0.000 A 
ATOM     19  C   UNL     1       0.273   9.598  22.486  0.00  0.00    +0.000 A 
ATOM     20  C   UNL     1       0.085  10.587  21.524  0.00  0.00    +0.000 A 
ATOM     21  C   UNL     1       0.498  10.348  20.212  0.00  0.00    +0.000 A 
ATOM     22  C   UNL     1       1.117   9.133  19.868  0.00  0.00    +0.000 A 
BRANCH  21  23
ATOM     23  S   UNL     1       0.536  11.727  19.084  0.00  0.00    +0.000 S 
ATOM     24  O   UNL     1       0.553  12.926  19.889  0.00  0.00    +0.000 OA
ATOM     25  O   UNL     1       1.611  11.471  18.133  0.00  0.00    +0.000 OA
BRANCH  23  26
ATOM     26  C   UNL     1      -1.011  11.724  18.176  0.00  0.00    +0.000 C 
ATOM     27  C   UNL     1      -2.225  12.162  18.986  0.00  0.00    +0.000 C 
ATOM     28  C   UNL     1      -3.422  11.418  18.392  0.00  0.00    +0.000 C 
ATOM     29  C   UNL     1      -2.866  10.323  17.489  0.00  0.00    +0.000 C 
ATOM     30  C   UNL     1      -1.368  10.301  17.733  0.00  0.00    +0.000 C 
ENDBRANCH  23  26
ENDBRANCH  21  23
ENDBRANCH   3  17
TORSDOF 4
ENDMDL
