MODEL 1
REMARK VINA RESULT:      -9.1      0.000      0.000
REMARK  Name = 
REMARK  1 active torsions:
REMARK  status: ('A' for Active; 'I' for Inactive)
REMARK    1  A    between atoms: C_2  and  C_3
REMARK                            x       y       z     vdW  Elec       q    Type
REMARK                         _______ _______ _______ _____ _____    ______ ____
ROOT
ATOM      1  O   UNL     1       4.442   7.363  17.487  0.00  0.00    +0.000 OA
ATOM      2  C   UNL     1       3.380   6.837  17.832  0.00  0.00    +0.000 C 
ATOM      3  N   UNL     1       3.085   5.498  17.526  0.00  0.00    +0.000 N 
ATOM      4  C   UNL     1       4.136   4.714  16.853  0.00  0.00    +0.000 C 
ATOM      5  C   UNL     1       4.820   3.699  17.781  0.00  0.00    +0.000 C 
ATOM      6  O   UNL     1       3.943   2.619  18.148  0.00  0.00    +0.000 OA
ATOM      7  C   UNL     1       3.224   2.931  19.272  0.00  0.00    +0.000 A 
ATOM      8  C   UNL     1       3.437   2.157  20.413  0.00  0.00    +0.000 A 
ATOM      9  C   UNL     1       2.722   2.425  21.581  0.00  0.00    +0.000 A 
ATOM     10  C   UNL     1       1.778   3.450  21.593  0.00  0.00    +0.000 A 
ATOM     11  C   UNL     1       1.551   4.191  20.438  0.00  0.00    +0.000 A 
ATOM     12  F   UNL     1       0.607   5.142  20.462  0.00  0.00    +0.000 F 
ATOM     13  C   UNL     1       2.263   3.944  19.263  0.00  0.00    +0.000 A 
ATOM     14  C   UNL     1       1.956   4.699  18.008  0.00  0.00    +0.000 C 
ENDROOT
BRANCH   2  15
ATOM     15  C   UNL     1       2.464   7.694  18.640  0.00  0.00    +0.000 A 
ATOM     16  C   UNL     1       1.706   8.674  17.935  0.00  0.00    +0.000 A 
ATOM     17  C   UNL     1       0.851   9.566  18.598  0.00  0.00    +0.000 A 
ATOM     18  C   UNL     1       0.799   9.459  19.964  0.00  0.00    +0.000 A 
ATOM     19  N   UNL     1       0.119  10.234  20.897  0.00  0.00    +0.000 N 
ATOM     20  C   UNL     1       0.420   9.758  22.182  0.00  0.00    +0.000 A 
ATOM     21  O   UNL     1       0.033  10.221  23.240  0.00  0.00    +0.000 OA
ATOM     22  N   UNL     1       1.267   8.654  22.012  0.00  0.00    +0.000 N 
ATOM     23  C   UNL     1       1.500   8.475  20.653  0.00  0.00    +0.000 A 
ATOM     24  C   UNL     1       2.283   7.539  20.019  0.00  0.00    +0.000 A 
ATOM     25  H   UNL     1      -0.462  11.036  20.720  0.00  0.00    +0.000 HD
ATOM     26  H   UNL     1       1.679   8.144  22.777  0.00  0.00    +0.000 HD
ENDBRANCH   2  15
TORSDOF 1
ENDMDL
MODEL 2
REMARK VINA RESULT:      -8.9      3.151      6.669
REMARK  Name = 
REMARK  1 active torsions:
REMARK  status: ('A' for Active; 'I' for Inactive)
REMARK    1  A    between atoms: C_2  and  C_3
REMARK                            x       y       z     vdW  Elec       q    Type
REMARK                         _______ _______ _______ _____ _____    ______ ____
ROOT
ATOM      1  O   UNL     1       4.926   2.200  19.772  0.00  0.00    +0.000 OA
ATOM      2  C   UNL     1       4.379   2.973  18.981  0.00  0.00    +0.000 C 
ATOM      3  N   UNL     1       2.997   3.223  19.029  0.00  0.00    +0.000 N 
ATOM      4  C   UNL     1       2.237   2.595  20.123  0.00  0.00    +0.000 C 
ATOM      5  C   UNL     1       1.822   3.588  21.219  0.00  0.00    +0.000 C 
ATOM      6  O   UNL     1       0.822   4.517  20.764  0.00  0.00    +0.000 OA
ATOM      7  C   UNL     1       1.401   5.621  20.195  0.00  0.00    +0.000 A 
ATOM      8  C   UNL     1       1.193   6.853  20.816  0.00  0.00    +0.000 A 
ATOM      9  C   UNL     1       1.750   8.011  20.271  0.00  0.00    +0.000 A 
ATOM     10  C   UNL     1       2.490   7.933  19.093  0.00  0.00    +0.000 A 
ATOM     11  C   UNL     1       2.659   6.703  18.466  0.00  0.00    +0.000 A 
ATOM     12  F   UNL     1       3.337   6.661  17.309  0.00  0.00    +0.000 F 
ATOM     13  C   UNL     1       2.118   5.533  19.000  0.00  0.00    +0.000 A 
ATOM     14  C   UNL     1       2.245   4.229  18.276  0.00  0.00    +0.000 C 
ENDROOT
BRANCH   2  15
ATOM     15  C   UNL     1       5.284   3.663  18.016  0.00  0.00    +0.000 A 
ATOM     16  C   UNL     1       6.092   4.719  18.529  0.00  0.00    +0.000 A 
ATOM     17  C   UNL     1       6.942   5.469  17.704  0.00  0.00    +0.000 A 
ATOM     18  C   UNL     1       6.938   5.146  16.372  0.00  0.00    +0.000 A 
ATOM     19  N   UNL     1       7.600   5.742  15.304  0.00  0.00    +0.000 N 
ATOM     20  C   UNL     1       7.238   5.079  14.123  0.00  0.00    +0.000 A 
ATOM     21  O   UNL     1       7.595   5.357  12.991  0.00  0.00    +0.000 OA
ATOM     22  N   UNL     1       6.372   4.041  14.495  0.00  0.00    +0.000 N 
ATOM     23  C   UNL     1       6.188   4.086  15.873  0.00  0.00    +0.000 A 
ATOM     24  C   UNL     1       5.408   3.287  16.674  0.00  0.00    +0.000 A 
ATOM     25  H   UNL     1       8.206   6.545  15.331  0.00  0.00    +0.000 HD
ATOM     26  H   UNL     1       5.919   3.429  13.835  0.00  0.00    +0.000 HD
ENDBRANCH   2  15
TORSDOF 1
ENDMDL
MODEL 3
REMARK VINA RESULT:      -8.6      1.218      1.796
REMARK  Name = 
REMARK  1 active torsions:
REMARK  status: ('A' for Active; 'I' for Inactive)
REMARK    1  A    between atoms: C_2  and  C_3
REMARK                            x       y       z     vdW  Elec       q    Type
REMARK                         _______ _______ _______ _____ _____    ______ ____
ROOT
ATOM      1  O   UNL     1       4.611   7.332  17.483  0.00  0.00    +0.000 OA
ATOM      2  C   UNL     1       3.521   6.824  17.756  0.00  0.00    +0.000 C 
ATOM      3  N   UNL     1       3.245   5.474  17.483  0.00  0.00    +0.000 N 
ATOM      4  C   UNL     1       4.345   4.659  16.937  0.00  0.00    +0.000 C 
ATOM      5  C   UNL     1       4.940   3.683  17.963  0.00  0.00    +0.000 C 
ATOM      6  O   UNL     1       4.028   2.622  18.299  0.00  0.00    +0.000 OA
ATOM      7  C   UNL     1       3.217   2.984  19.342  0.00  0.00    +0.000 A 
ATOM      8  C   UNL     1       3.326   2.258  20.529  0.00  0.00    +0.000 A 
ATOM      9  C   UNL     1       2.515   2.578  21.618  0.00  0.00    +0.000 A 
ATOM     10  C   UNL     1       1.579   3.605  21.505  0.00  0.00    +0.000 A 
ATOM     11  C   UNL     1       1.458   4.297  20.305  0.00  0.00    +0.000 A 
ATOM     12  F   UNL     1       0.520   5.250  20.206  0.00  0.00    +0.000 F 
ATOM     13  C   UNL     1       2.266   3.998  19.207  0.00  0.00    +0.000 A 
ATOM     14  C   UNL     1       2.073   4.699  17.899  0.00  0.00    +0.000 C 
ENDROOT
BRANCH   2  15
ATOM     15  C   UNL     1       2.543   7.717  18.445  0.00  0.00    +0.000 A 
ATOM     16  C   UNL     1       2.400   7.555  19.854  0.00  0.00    +0.000 A 
ATOM     17  C   UNL     1       1.476   8.304  20.595  0.00  0.00    +0.000 A 
ATOM     18  C   UNL     1       0.701   9.187  19.889  0.00  0.00    +0.000 A 
ATOM     19  N   UNL     1      -0.340  10.004  20.315  0.00  0.00    +0.000 N 
ATOM     20  C   UNL     1      -0.856  10.692  19.206  0.00  0.00    +0.000 A 
ATOM     21  O   UNL     1      -1.799  11.463  19.201  0.00  0.00    +0.000 OA
ATOM     22  N   UNL     1      -0.083  10.308  18.101  0.00  0.00    +0.000 N 
ATOM     23  C   UNL     1       0.868   9.384  18.521  0.00  0.00    +0.000 A 
ATOM     24  C   UNL     1       1.820   8.718  17.787  0.00  0.00    +0.000 A 
ATOM     25  H   UNL     1      -0.718  10.079  21.245  0.00  0.00    +0.000 HD
ATOM     26  H   UNL     1      -0.265  10.616  17.160  0.00  0.00    +0.000 HD
ENDBRANCH   2  15
TORSDOF 1
ENDMDL
MODEL 4
REMARK VINA RESULT:      -7.9      2.993      6.290
REMARK  Name = 
REMARK  1 active torsions:
REMARK  status: ('A' for Active; 'I' for Inactive)
REMARK    1  A    between atoms: C_2  and  C_3
REMARK                            x       y       z     vdW  Elec       q    Type
REMARK                         _______ _______ _______ _____ _____    ______ ____
ROOT
ATOM      1  O   UNL     1       3.242   8.028  17.826  0.00  0.00    +0.000 OA
ATOM      2  C   UNL     1       3.780   6.981  18.195  0.00  0.00    +0.000 C 
ATOM      3  N   UNL     1       3.422   6.350  19.399  0.00  0.00    +0.000 N 
ATOM      4  C   UNL     1       2.309   6.941  20.163  0.00  0.00    +0.000 C 
ATOM      5  C   UNL     1       1.013   6.121  20.074  0.00  0.00    +0.000 C 
ATOM      6  O   UNL     1       1.113   4.865  20.768  0.00  0.00    +0.000 OA
ATOM      7  C   UNL     1       1.608   3.887  19.945  0.00  0.00    +0.000 A 
ATOM      8  C   UNL     1       0.775   2.807  19.651  0.00  0.00    +0.000 A 
ATOM      9  C   UNL     1       1.234   1.778  18.828  0.00  0.00    +0.000 A 
ATOM     10  C   UNL     1       2.533   1.822  18.325  0.00  0.00    +0.000 A 
ATOM     11  C   UNL     1       3.363   2.888  18.656  0.00  0.00    +0.000 A 
ATOM     12  F   UNL     1       4.623   2.886  18.197  0.00  0.00    +0.000 F 
ATOM     13  C   UNL     1       2.920   3.931  19.470  0.00  0.00    +0.000 A 
ATOM     14  C   UNL     1       3.847   5.033  19.878  0.00  0.00    +0.000 C 
ENDROOT
BRANCH   2  15
ATOM     15  C   UNL     1       4.787   6.403  17.258  0.00  0.00    +0.000 A 
ATOM     16  C   UNL     1       6.148   6.777  17.458  0.00  0.00    +0.000 A 
ATOM     17  C   UNL     1       7.171   6.333  16.609  0.00  0.00    +0.000 A 
ATOM     18  C   UNL     1       6.789   5.538  15.559  0.00  0.00    +0.000 A 
ATOM     19  N   UNL     1       7.541   5.010  14.516  0.00  0.00    +0.000 N 
ATOM     20  C   UNL     1       6.688   4.299  13.660  0.00  0.00    +0.000 A 
ATOM     21  O   UNL     1       6.996   3.739  12.623  0.00  0.00    +0.000 OA
ATOM     22  N   UNL     1       5.406   4.369  14.223  0.00  0.00    +0.000 N 
ATOM     23  C   UNL     1       5.470   5.131  15.384  0.00  0.00    +0.000 A 
ATOM     24  C   UNL     1       4.462   5.489  16.249  0.00  0.00    +0.000 A 
ATOM     25  H   UNL     1       8.525   5.137  14.345  0.00  0.00    +0.000 HD
ATOM     26  H   UNL     1       4.584   3.982  13.788  0.00  0.00    +0.000 HD
ENDBRANCH   2  15
TORSDOF 1
ENDMDL
MODEL 5
REMARK VINA RESULT:      -7.6      6.161      8.906
REMARK  Name = 
REMARK  1 active torsions:
REMARK  status: ('A' for Active; 'I' for Inactive)
REMARK    1  A    between atoms: C_2  and  C_3
REMARK                            x       y       z     vdW  Elec       q    Type
REMARK                         _______ _______ _______ _____ _____    ______ ____
ROOT
ATOM      1  O   UNL     1      -0.484  11.782  23.154  0.00  0.00    +0.000 OA
ATOM      2  C   UNL     1      -1.122  12.389  22.291  0.00  0.00    +0.000 C 
ATOM      3  N   UNL     1      -0.679  12.462  20.959  0.00  0.00    +0.000 N 
ATOM      4  C   UNL     1       0.536  11.705  20.612  0.00  0.00    +0.000 C 
ATOM      5  C   UNL     1       0.246  10.440  19.790  0.00  0.00    +0.000 C 
ATOM      6  O   UNL     1      -0.208  10.746  18.460  0.00  0.00    +0.000 OA
ATOM      7  C   UNL     1      -1.571  10.895  18.428  0.00  0.00    +0.000 A 
ATOM      8  C   UNL     1      -2.303   9.985  17.665  0.00  0.00    +0.000 A 
ATOM      9  C   UNL     1      -3.692  10.098  17.589  0.00  0.00    +0.000 A 
ATOM     10  C   UNL     1      -4.338  11.138  18.256  0.00  0.00    +0.000 A 
ATOM     11  C   UNL     1      -3.591  12.058  18.984  0.00  0.00    +0.000 A 
ATOM     12  F   UNL     1      -4.230  13.075  19.579  0.00  0.00    +0.000 F 
ATOM     13  C   UNL     1      -2.202  11.956  19.079  0.00  0.00    +0.000 A 
ATOM     14  C   UNL     1      -1.405  12.995  19.804  0.00  0.00    +0.000 C 
ENDROOT
BRANCH   2  15
ATOM     15  C   UNL     1      -2.415  12.986  22.738  0.00  0.00    +0.000 A 
ATOM     16  C   UNL     1      -2.387  14.348  23.158  0.00  0.00    +0.000 A 
ATOM     17  C   UNL     1      -3.531  14.997  23.643  0.00  0.00    +0.000 A 
ATOM     18  C   UNL     1      -4.675  14.243  23.714  0.00  0.00    +0.000 A 
ATOM     19  N   UNL     1      -5.931  14.568  24.213  0.00  0.00    +0.000 N 
ATOM     20  C   UNL     1      -6.761  13.442  24.110  0.00  0.00    +0.000 A 
ATOM     21  O   UNL     1      -7.916  13.351  24.486  0.00  0.00    +0.000 OA
ATOM     22  N   UNL     1      -5.998  12.436  23.501  0.00  0.00    +0.000 N 
ATOM     23  C   UNL     1      -4.720  12.928  23.262  0.00  0.00    +0.000 A 
ATOM     24  C   UNL     1      -3.631  12.296  22.709  0.00  0.00    +0.000 A 
ATOM     25  H   UNL     1      -6.218  15.438  24.630  0.00  0.00    +0.000 HD
ATOM     26  H   UNL     1      -6.333  11.499  23.345  0.00  0.00    +0.000 HD
ENDBRANCH   2  15
TORSDOF 1
ENDMDL
MODEL 6
REMARK VINA RESULT:      -7.6      2.064      3.594
REMARK  Name = 
REMARK  1 active torsions:
REMARK  status: ('A' for Active; 'I' for Inactive)
REMARK    1  A    between atoms: C_2  and  C_3
REMARK                            x       y       z     vdW  Elec       q    Type
REMARK                         _______ _______ _______ _____ _____    ______ ____
ROOT
ATOM      1  O   UNL     1       1.091   4.533  20.149  0.00  0.00    +0.000 OA
ATOM      2  C   UNL     1       2.064   5.264  19.948  0.00  0.00    +0.000 C 
ATOM      3  N   UNL     1       3.363   4.745  19.814  0.00  0.00    +0.000 N 
ATOM      4  C   UNL     1       3.507   3.279  19.833  0.00  0.00    +0.000 C 
ATOM      5  C   UNL     1       3.800   2.683  18.447  0.00  0.00    +0.000 C 
ATOM      6  O   UNL     1       5.114   3.027  17.972  0.00  0.00    +0.000 OA
ATOM      7  C   UNL     1       5.094   4.214  17.289  0.00  0.00    +0.000 A 
ATOM      8  C   UNL     1       5.425   4.187  15.934  0.00  0.00    +0.000 A 
ATOM      9  C   UNL     1       5.431   5.370  15.194  0.00  0.00    +0.000 A 
ATOM     10  C   UNL     1       5.133   6.578  15.820  0.00  0.00    +0.000 A 
ATOM     11  C   UNL     1       4.839   6.595  17.180  0.00  0.00    +0.000 A 
ATOM     12  F   UNL     1       4.600   7.775  17.770  0.00  0.00    +0.000 F 
ATOM     13  C   UNL     1       4.819   5.421  17.935  0.00  0.00    +0.000 A 
ATOM     14  C   UNL     1       4.574   5.463  19.411  0.00  0.00    +0.000 C 
ENDROOT
BRANCH   2  15
ATOM     15  C   UNL     1       1.764   6.718  19.799  0.00  0.00    +0.000 A 
ATOM     16  C   UNL     1       1.791   7.252  18.478  0.00  0.00    +0.000 A 
ATOM     17  C   UNL     1       1.573   8.613  18.224  0.00  0.00    +0.000 A 
ATOM     18  C   UNL     1       1.355   9.409  19.319  0.00  0.00    +0.000 A 
ATOM     19  N   UNL     1       1.186  10.787  19.406  0.00  0.00    +0.000 N 
ATOM     20  C   UNL     1       1.042  11.139  20.755  0.00  0.00    +0.000 A 
ATOM     21  O   UNL     1       0.915  12.264  21.206  0.00  0.00    +0.000 OA
ATOM     22  N   UNL     1       1.086   9.945  21.489  0.00  0.00    +0.000 N 
ATOM     23  C   UNL     1       1.281   8.887  20.607  0.00  0.00    +0.000 A 
ATOM     24  C   UNL     1       1.413   7.545  20.872  0.00  0.00    +0.000 A 
ATOM     25  H   UNL     1       1.207  11.454  18.652  0.00  0.00    +0.000 HD
ATOM     26  H   UNL     1       1.054   9.907  22.495  0.00  0.00    +0.000 HD
ENDBRANCH   2  15
TORSDOF 1
ENDMDL
MODEL 7
REMARK VINA RESULT:      -7.4      5.852      8.717
REMARK  Name = 
REMARK  1 active torsions:
REMARK  status: ('A' for Active; 'I' for Inactive)
REMARK    1  A    between atoms: C_2  and  C_3
REMARK                            x       y       z     vdW  Elec       q    Type
REMARK                         _______ _______ _______ _____ _____    ______ ____
ROOT
ATOM      1  O   UNL     1      -0.025  10.859  23.056  0.00  0.00    +0.000 OA
ATOM      2  C   UNL     1      -0.583  11.710  22.359  0.00  0.00    +0.000 C 
ATOM      3  N   UNL     1      -0.306  11.840  20.987  0.00  0.00    +0.000 N 
ATOM      4  C   UNL     1       0.614  10.856  20.390  0.00  0.00    +0.000 C 
ATOM      5  C   UNL     1      -0.099   9.817  19.511  0.00  0.00    +0.000 C 
ATOM      6  O   UNL     1      -0.618  10.393  18.299  0.00  0.00    +0.000 OA
ATOM      7  C   UNL     1      -1.886  10.877  18.490  0.00  0.00    +0.000 A 
ATOM      8  C   UNL     1      -2.921  10.282  17.769  0.00  0.00    +0.000 A 
ATOM      9  C   UNL     1      -4.230  10.743  17.917  0.00  0.00    +0.000 A 
ATOM     10  C   UNL     1      -4.491  11.817  18.766  0.00  0.00    +0.000 A 
ATOM     11  C   UNL     1      -3.444  12.423  19.452  0.00  0.00    +0.000 A 
ATOM     12  F   UNL     1      -3.714  13.483  20.228  0.00  0.00    +0.000 F 
ATOM     13  C   UNL     1      -2.130  11.970  19.324  0.00  0.00    +0.000 A 
ATOM     14  C   UNL     1      -1.005  12.678  20.010  0.00  0.00    +0.000 C 
ENDROOT
BRANCH   2  15
ATOM     15  C   UNL     1      -1.607  12.547  23.050  0.00  0.00    +0.000 A 
ATOM     16  C   UNL     1      -2.882  11.952  23.278  0.00  0.00    +0.000 A 
ATOM     17  C   UNL     1      -3.934  12.660  23.875  0.00  0.00    +0.000 A 
ATOM     18  C   UNL     1      -3.678  13.966  24.207  0.00  0.00    +0.000 A 
ATOM     19  N   UNL     1      -4.522  14.938  24.732  0.00  0.00    +0.000 N 
ATOM     20  C   UNL     1      -3.806  16.138  24.853  0.00  0.00    +0.000 A 
ATOM     21  O   UNL     1      -4.239  17.209  25.240  0.00  0.00    +0.000 OA
ATOM     22  N   UNL     1      -2.497  15.869  24.428  0.00  0.00    +0.000 N 
ATOM     23  C   UNL     1      -2.423  14.538  24.030  0.00  0.00    +0.000 A 
ATOM     24  C   UNL     1      -1.354  13.840  23.520  0.00  0.00    +0.000 A 
ATOM     25  H   UNL     1      -5.499  14.845  24.955  0.00  0.00    +0.000 HD
ATOM     26  H   UNL     1      -1.776  16.569  24.365  0.00  0.00    +0.000 HD
ENDBRANCH   2  15
TORSDOF 1
ENDMDL
MODEL 8
REMARK VINA RESULT:      -7.2      4.092      5.298
REMARK  Name = 
REMARK  1 active torsions:
REMARK  status: ('A' for Active; 'I' for Inactive)
REMARK    1  A    between atoms: C_2  and  C_3
REMARK                            x       y       z     vdW  Elec       q    Type
REMARK                         _______ _______ _______ _____ _____    ______ ____
ROOT
ATOM      1  O   UNL     1       5.676   2.968  16.012  0.00  0.00    +0.000 OA
ATOM      2  C   UNL     1       5.148   3.916  16.599  0.00  0.00    +0.000 C 
ATOM      3  N   UNL     1       3.754   4.007  16.752  0.00  0.00    +0.000 N 
ATOM      4  C   UNL     1       2.948   2.876  16.261  0.00  0.00    +0.000 C 
ATOM      5  C   UNL     1       2.387   1.998  17.390  0.00  0.00    +0.000 C 
ATOM      6  O   UNL     1       1.373   2.674  18.153  0.00  0.00    +0.000 OA
ATOM      7  C   UNL     1       1.927   3.383  19.187  0.00  0.00    +0.000 A 
ATOM      8  C   UNL     1       1.595   2.999  20.486  0.00  0.00    +0.000 A 
ATOM      9  C   UNL     1       2.123   3.694  21.575  0.00  0.00    +0.000 A 
ATOM     10  C   UNL     1       2.958   4.788  21.356  0.00  0.00    +0.000 A 
ATOM     11  C   UNL     1       3.252   5.182  20.055  0.00  0.00    +0.000 A 
ATOM     12  F   UNL     1       4.021   6.264  19.870  0.00  0.00    +0.000 F 
ATOM     13  C   UNL     1       2.741   4.493  18.953  0.00  0.00    +0.000 A 
ATOM     14  C   UNL     1       3.005   4.972  17.561  0.00  0.00    +0.000 C 
ENDROOT
BRANCH   2  15
ATOM     15  C   UNL     1       6.084   4.920  17.183  0.00  0.00    +0.000 A 
ATOM     16  C   UNL     1       6.804   4.532  18.350  0.00  0.00    +0.000 A 
ATOM     17  C   UNL     1       7.673   5.412  19.012  0.00  0.00    +0.000 A 
ATOM     18  C   UNL     1       7.776   6.675  18.488  0.00  0.00    +0.000 A 
ATOM     19  N   UNL     1       8.480   7.781  18.950  0.00  0.00    +0.000 N 
ATOM     20  C   UNL     1       8.232   8.863  18.093  0.00  0.00    +0.000 A 
ATOM     21  O   UNL     1       8.652  10.000  18.214  0.00  0.00    +0.000 OA
ATOM     22  N   UNL     1       7.392   8.385  17.077  0.00  0.00    +0.000 N 
ATOM     23  C   UNL     1       7.112   7.046  17.323  0.00  0.00    +0.000 A 
ATOM     24  C   UNL     1       6.317   6.177  16.613  0.00  0.00    +0.000 A 
ATOM     25  H   UNL     1       9.045   7.843  19.781  0.00  0.00    +0.000 HD
ATOM     26  H   UNL     1       7.014   8.967  16.347  0.00  0.00    +0.000 HD
ENDBRANCH   2  15
TORSDOF 1
ENDMDL
MODEL 9
REMARK VINA RESULT:      -7.2      2.316      3.972
REMARK  Name = 
REMARK  1 active torsions:
REMARK  status: ('A' for Active; 'I' for Inactive)
REMARK    1  A    between atoms: C_2  and  C_3
REMARK                            x       y       z     vdW  Elec       q    Type
REMARK                         _______ _______ _______ _____ _____    ______ ____
ROOT
ATOM      1  O   UNL     1       0.947   4.398  19.890  0.00  0.00    +0.000 OA
ATOM      2  C   UNL     1       1.979   5.067  19.787  0.00  0.00    +0.000 C 
ATOM      3  N   UNL     1       3.231   4.466  19.568  0.00  0.00    +0.000 N 
ATOM      4  C   UNL     1       3.251   3.006  19.374  0.00  0.00    +0.000 C 
ATOM      5  C   UNL     1       3.496   2.593  17.915  0.00  0.00    +0.000 C 
ATOM      6  O   UNL     1       4.836   2.890  17.482  0.00  0.00    +0.000 OA
ATOM      7  C   UNL     1       4.918   4.161  16.977  0.00  0.00    +0.000 A 
ATOM      8  C   UNL     1       5.249   4.301  15.629  0.00  0.00    +0.000 A 
ATOM      9  C   UNL     1       5.357   5.573  15.066  0.00  0.00    +0.000 A 
ATOM     10  C   UNL     1       5.160   6.700  15.863  0.00  0.00    +0.000 A 
ATOM     11  C   UNL     1       4.865   6.545  17.213  0.00  0.00    +0.000 A 
ATOM     12  F   UNL     1       4.723   7.644  17.968  0.00  0.00    +0.000 F 
ATOM     13  C   UNL     1       4.743   5.281  17.792  0.00  0.00    +0.000 A 
ATOM     14  C   UNL     1       4.499   5.131  19.261  0.00  0.00    +0.000 C 
ENDROOT
BRANCH   2  15
ATOM     15  C   UNL     1       1.803   6.547  19.851  0.00  0.00    +0.000 A 
ATOM     16  C   UNL     1       1.524   7.111  21.130  0.00  0.00    +0.000 A 
ATOM     17  C   UNL     1       1.292   8.483  21.300  0.00  0.00    +0.000 A 
ATOM     18  C   UNL     1       1.324   9.252  20.166  0.00  0.00    +0.000 A 
ATOM     19  N   UNL     1       1.063  10.606  19.994  0.00  0.00    +0.000 N 
ATOM     20  C   UNL     1       1.180  10.919  18.632  0.00  0.00    +0.000 A 
ATOM     21  O   UNL     1       0.981  12.003  18.112  0.00  0.00    +0.000 OA
ATOM     22  N   UNL     1       1.557   9.736  17.980  0.00  0.00    +0.000 N 
ATOM     23  C   UNL     1       1.642   8.715  18.921  0.00  0.00    +0.000 A 
ATOM     24  C   UNL     1       1.950   7.388  18.742  0.00  0.00    +0.000 A 
ATOM     25  H   UNL     1       0.787  11.270  20.698  0.00  0.00    +0.000 HD
ATOM     26  H   UNL     1       1.666   9.659  16.982  0.00  0.00    +0.000 HD
ENDBRANCH   2  15
TORSDOF 1
ENDMDL
