MODEL 1
REMARK VINA RESULT:      -8.5      0.000      0.000
REMARK  Name = 
REMARK  2 active torsions:
REMARK  status: ('A' for Active; 'I' for Inactive)
REMARK    1  A    between atoms: C_9  and  N_10
REMARK    2  A    between atoms: C_15  and  C_16
REMARK                            x       y       z     vdW  Elec       q    Type
REMARK                         _______ _______ _______ _____ _____    ______ ____
ROOT
ATOM      1  N   UNL     1       1.144   8.941  18.800  0.00  0.00    +0.000 N 
ATOM      2  C   UNL     1       1.461  10.242  18.511  0.00  0.00    +0.000 C 
ATOM      3  O   UNL     1       2.542  10.567  18.018  0.00  0.00    +0.000 OA
ATOM      4  N   UNL     1       0.520  11.191  18.818  0.00  0.00    +0.000 N 
ATOM      5  C   UNL     1      -0.861  11.058  19.247  0.00  0.00    +0.000 C 
ATOM      6  C   UNL     1      -1.309  12.493  19.649  0.00  0.00    +0.000 C 
ATOM      7  C   UNL     1      -0.018  13.370  19.483  0.00  0.00    +0.000 C 
ATOM      8  C   UNL     1       0.391  14.251  20.775  0.00  0.00    +0.000 C 
ATOM      9  C   UNL     1      -0.273  15.447  20.042  0.00  0.00    +0.000 C 
ATOM     10  C   UNL     1       0.213  14.782  18.771  0.00  0.00    +0.000 C 
ATOM     11  C   UNL     1       0.851  12.553  18.526  0.00  0.00    +0.000 C 
ATOM     12  H   UNL     1       0.206   8.660  18.554  0.00  0.00    +0.000 HD
ENDROOT
BRANCH   1  21
ATOM     13  O   UNL     1       6.508   5.817  15.266  0.00  0.00    +0.000 OA
ATOM     14  C   UNL     1       5.690   5.748  16.181  0.00  0.00    +0.000 C 
ATOM     15  C   UNL     1       5.501   4.498  17.005  0.00  0.00    +0.000 C 
ATOM     16  C   UNL     1       5.104   4.805  18.443  0.00  0.00    +0.000 C 
ATOM     17  C   UNL     1       4.027   5.857  18.530  0.00  0.00    +0.000 A 
ATOM     18  C   UNL     1       3.207   5.974  19.656  0.00  0.00    +0.000 A 
ATOM     19  C   UNL     1       2.287   7.022  19.749  0.00  0.00    +0.000 A 
ATOM     20  F   UNL     1       1.496   7.102  20.836  0.00  0.00    +0.000 F 
ATOM     21  C   UNL     1       2.151   7.942  18.709  0.00  0.00    +0.000 A 
ATOM     22  C   UNL     1       2.992   7.848  17.594  0.00  0.00    +0.000 A 
ATOM     23  C   UNL     1       3.933   6.818  17.511  0.00  0.00    +0.000 A 
ATOM     24  N   UNL     1       4.807   6.766  16.418  0.00  0.00    +0.000 N 
ATOM     25  H   UNL     1       4.850   7.535  15.758  0.00  0.00    +0.000 HD
ENDBRANCH   1  21
BRANCH   6  26
ATOM     26  C   UNL     1      -1.874  12.508  21.065  0.00  0.00    +0.000 A 
ATOM     27  C   UNL     1      -3.043  13.230  21.381  0.00  0.00    +0.000 A 
ATOM     28  C   UNL     1      -3.691  13.045  22.604  0.00  0.00    +0.000 A 
ATOM     29  C   UNL     1      -3.149  12.184  23.552  0.00  0.00    +0.000 A 
ATOM     30  C   UNL     1      -1.941  11.537  23.291  0.00  0.00    +0.000 A 
ATOM     31  C   UNL     1      -1.306  11.698  22.056  0.00  0.00    +0.000 A 
ENDBRANCH   6  26
TORSDOF 2
ENDMDL
MODEL 2
REMARK VINA RESULT:      -8.3      0.664      1.114
REMARK  Name = 
REMARK  2 active torsions:
REMARK  status: ('A' for Active; 'I' for Inactive)
REMARK    1  A    between atoms: C_9  and  N_10
REMARK    2  A    between atoms: C_15  and  C_16
REMARK                            x       y       z     vdW  Elec       q    Type
REMARK                         _______ _______ _______ _____ _____    ______ ____
ROOT
ATOM      1  N   UNL     1       1.537   8.478  18.516  0.00  0.00    +0.000 N 
ATOM      2  C   UNL     1       1.811   9.796  18.263  0.00  0.00    +0.000 C 
ATOM      3  O   UNL     1       2.894  10.174  17.815  0.00  0.00    +0.000 OA
ATOM      4  N   UNL     1       0.821  10.701  18.553  0.00  0.00    +0.000 N 
ATOM      5  C   UNL     1      -0.567  10.504  18.929  0.00  0.00    +0.000 C 
ATOM      6  C   UNL     1      -1.088  11.911  19.340  0.00  0.00    +0.000 C 
ATOM      7  C   UNL     1       0.171  12.842  19.237  0.00  0.00    +0.000 C 
ATOM      8  C   UNL     1       0.498  13.714  20.559  0.00  0.00    +0.000 C 
ATOM      9  C   UNL     1      -0.188  14.896  19.824  0.00  0.00    +0.000 C 
ATOM     10  C   UNL     1       0.370  14.276  18.559  0.00  0.00    +0.000 C 
ATOM     11  C   UNL     1       1.107  12.080  18.297  0.00  0.00    +0.000 C 
ATOM     12  H   UNL     1       0.620   8.164  18.231  0.00  0.00    +0.000 HD
ENDROOT
BRANCH   1  21
ATOM     13  O   UNL     1       7.337   5.840  15.289  0.00  0.00    +0.000 OA
ATOM     14  C   UNL     1       6.437   5.667  16.108  0.00  0.00    +0.000 C 
ATOM     15  C   UNL     1       6.219   4.344  16.802  0.00  0.00    +0.000 C 
ATOM     16  C   UNL     1       5.672   4.512  18.214  0.00  0.00    +0.000 C 
ATOM     17  C   UNL     1       4.551   5.519  18.280  0.00  0.00    +0.000 A 
ATOM     18  C   UNL     1       3.622   5.512  19.323  0.00  0.00    +0.000 A 
ATOM     19  C   UNL     1       2.657   6.520  19.412  0.00  0.00    +0.000 A 
ATOM     20  F   UNL     1       1.761   6.481  20.416  0.00  0.00    +0.000 F 
ATOM     21  C   UNL     1       2.587   7.522  18.443  0.00  0.00    +0.000 A 
ATOM     22  C   UNL     1       3.535   7.551  17.415  0.00  0.00    +0.000 A 
ATOM     23  C   UNL     1       4.520   6.562  17.340  0.00  0.00    +0.000 A 
ATOM     24  N   UNL     1       5.497   6.633  16.340  0.00  0.00    +0.000 N 
ATOM     25  H   UNL     1       5.574   7.457  15.754  0.00  0.00    +0.000 HD
ENDBRANCH   1  21
BRANCH   6  26
ATOM     26  C   UNL     1      -1.703  11.876  20.735  0.00  0.00    +0.000 A 
ATOM     27  C   UNL     1      -1.067  11.207  21.800  0.00  0.00    +0.000 A 
ATOM     28  C   UNL     1      -1.499  11.381  23.117  0.00  0.00    +0.000 A 
ATOM     29  C   UNL     1      -2.607  12.179  23.382  0.00  0.00    +0.000 A 
ATOM     30  C   UNL     1      -3.304  12.770  22.329  0.00  0.00    +0.000 A 
ATOM     31  C   UNL     1      -2.857  12.619  21.013  0.00  0.00    +0.000 A 
ENDBRANCH   6  26
TORSDOF 2
ENDMDL
MODEL 3
REMARK VINA RESULT:      -8.1      9.091     11.308
REMARK  Name = 
REMARK  2 active torsions:
REMARK  status: ('A' for Active; 'I' for Inactive)
REMARK    1  A    between atoms: C_9  and  N_10
REMARK    2  A    between atoms: C_15  and  C_16
REMARK                            x       y       z     vdW  Elec       q    Type
REMARK                         _______ _______ _______ _____ _____    ______ ____
ROOT
ATOM      1  N   UNL     1       7.694  13.198  22.260  0.00  0.00    +0.000 N 
ATOM      2  C   UNL     1       8.517  12.447  21.462  0.00  0.00    +0.000 C 
ATOM      3  O   UNL     1       8.933  11.336  21.795  0.00  0.00    +0.000 OA
ATOM      4  N   UNL     1       8.886  12.999  20.261  0.00  0.00    +0.000 N 
ATOM      5  C   UNL     1       8.419  14.192  19.579  0.00  0.00    +0.000 C 
ATOM      6  C   UNL     1       9.390  14.389  18.378  0.00  0.00    +0.000 C 
ATOM      7  C   UNL     1      10.459  13.252  18.547  0.00  0.00    +0.000 C 
ATOM      8  C   UNL     1      11.999  13.745  18.540  0.00  0.00    +0.000 C 
ATOM      9  C   UNL     1      12.034  13.282  17.059  0.00  0.00    +0.000 C 
ATOM     10  C   UNL     1      11.061  12.207  17.498  0.00  0.00    +0.000 C 
ATOM     11  C   UNL     1       9.753  12.221  19.428  0.00  0.00    +0.000 C 
ATOM     12  H   UNL     1       6.930  13.654  21.784  0.00  0.00    +0.000 HD
ENDROOT
BRANCH   1  21
ATOM     13  O   UNL     1       3.972   9.377  27.011  0.00  0.00    +0.000 OA
ATOM     14  C   UNL     1       4.776  10.286  26.812  0.00  0.00    +0.000 C 
ATOM     15  C   UNL     1       5.264  11.190  27.918  0.00  0.00    +0.000 C 
ATOM     16  C   UNL     1       6.697  11.657  27.696  0.00  0.00    +0.000 C 
ATOM     17  C   UNL     1       6.941  12.109  26.277  0.00  0.00    +0.000 A 
ATOM     18  C   UNL     1       7.992  12.971  25.955  0.00  0.00    +0.000 A 
ATOM     19  C   UNL     1       8.254  13.290  24.619  0.00  0.00    +0.000 A 
ATOM     20  F   UNL     1       9.261  14.137  24.335  0.00  0.00    +0.000 F 
ATOM     21  C   UNL     1       7.452  12.781  23.597  0.00  0.00    +0.000 A 
ATOM     22  C   UNL     1       6.419  11.891  23.913  0.00  0.00    +0.000 A 
ATOM     23  C   UNL     1       6.173  11.547  25.245  0.00  0.00    +0.000 A 
ATOM     24  N   UNL     1       5.174  10.613  25.544  0.00  0.00    +0.000 N 
ATOM     25  H   UNL     1       4.719  10.092  24.803  0.00  0.00    +0.000 HD
ENDBRANCH   1  21
BRANCH   6  26
ATOM     26  C   UNL     1       9.988  15.791  18.390  0.00  0.00    +0.000 A 
ATOM     27  C   UNL     1      10.216  16.502  17.194  0.00  0.00    +0.000 A 
ATOM     28  C   UNL     1      10.528  17.863  17.217  0.00  0.00    +0.000 A 
ATOM     29  C   UNL     1      10.677  18.519  18.434  0.00  0.00    +0.000 A 
ATOM     30  C   UNL     1      10.549  17.806  19.626  0.00  0.00    +0.000 A 
ATOM     31  C   UNL     1      10.209  16.451  19.606  0.00  0.00    +0.000 A 
ENDBRANCH   6  26
TORSDOF 2
ENDMDL
MODEL 4
REMARK VINA RESULT:      -8.0      2.562      9.503
REMARK  Name = 
REMARK  2 active torsions:
REMARK  status: ('A' for Active; 'I' for Inactive)
REMARK    1  A    between atoms: C_9  and  N_10
REMARK    2  A    between atoms: C_15  and  C_16
REMARK                            x       y       z     vdW  Elec       q    Type
REMARK                         _______ _______ _______ _____ _____    ______ ____
ROOT
ATOM      1  N   UNL     1       1.565   9.083  18.810  0.00  0.00    +0.000 N 
ATOM      2  C   UNL     1       1.737   8.028  19.669  0.00  0.00    +0.000 C 
ATOM      3  O   UNL     1       1.533   8.119  20.880  0.00  0.00    +0.000 OA
ATOM      4  N   UNL     1       2.173   6.849  19.120  0.00  0.00    +0.000 N 
ATOM      5  C   UNL     1       2.330   6.444  17.735  0.00  0.00    +0.000 C 
ATOM      6  C   UNL     1       3.077   5.080  17.784  0.00  0.00    +0.000 C 
ATOM      7  C   UNL     1       3.380   4.853  19.307  0.00  0.00    +0.000 C 
ATOM      8  C   UNL     1       4.926   4.539  19.665  0.00  0.00    +0.000 C 
ATOM      9  C   UNL     1       4.500   3.048  19.733  0.00  0.00    +0.000 C 
ATOM     10  C   UNL     1       3.175   3.574  20.244  0.00  0.00    +0.000 C 
ATOM     11  C   UNL     1       2.362   5.747  20.015  0.00  0.00    +0.000 C 
ATOM     12  H   UNL     1       1.108   8.860  17.938  0.00  0.00    +0.000 HD
ENDROOT
BRANCH   1  21
ATOM     13  O   UNL     1      -1.479  13.362  23.651  0.00  0.00    +0.000 OA
ATOM     14  C   UNL     1      -0.909  13.264  22.566  0.00  0.00    +0.000 C 
ATOM     15  C   UNL     1      -0.747  14.436  21.629  0.00  0.00    +0.000 C 
ATOM     16  C   UNL     1       0.542  14.358  20.820  0.00  0.00    +0.000 C 
ATOM     17  C   UNL     1       0.781  12.982  20.252  0.00  0.00    +0.000 A 
ATOM     18  C   UNL     1       1.612  12.781  19.146  0.00  0.00    +0.000 A 
ATOM     19  C   UNL     1       1.895  11.485  18.706  0.00  0.00    +0.000 A 
ATOM     20  F   UNL     1       2.684  11.318  17.628  0.00  0.00    +0.000 F 
ATOM     21  C   UNL     1       1.326  10.380  19.341  0.00  0.00    +0.000 A 
ATOM     22  C   UNL     1       0.520  10.574  20.468  0.00  0.00    +0.000 A 
ATOM     23  C   UNL     1       0.259  11.868  20.928  0.00  0.00    +0.000 A 
ATOM     24  N   UNL     1      -0.503  12.048  22.089  0.00  0.00    +0.000 N 
ATOM     25  H   UNL     1      -0.756  11.254  22.667  0.00  0.00    +0.000 HD
ENDBRANCH   1  21
BRANCH   6  26
ATOM     26  C   UNL     1       4.329   5.116  16.915  0.00  0.00    +0.000 A 
ATOM     27  C   UNL     1       5.161   6.254  16.873  0.00  0.00    +0.000 A 
ATOM     28  C   UNL     1       6.423   6.198  16.279  0.00  0.00    +0.000 A 
ATOM     29  C   UNL     1       6.849   5.024  15.666  0.00  0.00    +0.000 A 
ATOM     30  C   UNL     1       5.998   3.920  15.616  0.00  0.00    +0.000 A 
ATOM     31  C   UNL     1       4.746   3.964  16.235  0.00  0.00    +0.000 A 
ENDBRANCH   6  26
TORSDOF 2
ENDMDL
MODEL 5
REMARK VINA RESULT:      -8.0      2.759      9.157
REMARK  Name = 
REMARK  2 active torsions:
REMARK  status: ('A' for Active; 'I' for Inactive)
REMARK    1  A    between atoms: C_9  and  N_10
REMARK    2  A    between atoms: C_15  and  C_16
REMARK                            x       y       z     vdW  Elec       q    Type
REMARK                         _______ _______ _______ _____ _____    ______ ____
ROOT
ATOM      1  N   UNL     1       1.545   9.212  18.068  0.00  0.00    +0.000 N 
ATOM      2  C   UNL     1       1.759   8.314  19.080  0.00  0.00    +0.000 C 
ATOM      3  O   UNL     1       1.574   8.593  20.266  0.00  0.00    +0.000 OA
ATOM      4  N   UNL     1       2.219   7.073  18.718  0.00  0.00    +0.000 N 
ATOM      5  C   UNL     1       2.363   6.455  17.413  0.00  0.00    +0.000 C 
ATOM      6  C   UNL     1       3.149   5.135  17.664  0.00  0.00    +0.000 C 
ATOM      7  C   UNL     1       3.484   5.163  19.197  0.00  0.00    +0.000 C 
ATOM      8  C   UNL     1       5.043   4.948  19.568  0.00  0.00    +0.000 C 
ATOM      9  C   UNL     1       4.660   3.478  19.883  0.00  0.00    +0.000 C 
ATOM     10  C   UNL     1       3.329   4.047  20.331  0.00  0.00    +0.000 C 
ATOM     11  C   UNL     1       2.453   6.134  19.774  0.00  0.00    +0.000 C 
ATOM     12  H   UNL     1       1.079   8.841  17.252  0.00  0.00    +0.000 HD
ENDROOT
BRANCH   1  21
ATOM     13  O   UNL     1       3.675  16.006  18.632  0.00  0.00    +0.000 OA
ATOM     14  C   UNL     1       2.832  15.157  18.914  0.00  0.00    +0.000 C 
ATOM     15  C   UNL     1       1.692  15.433  19.863  0.00  0.00    +0.000 C 
ATOM     16  C   UNL     1       0.433  14.655  19.501  0.00  0.00    +0.000 C 
ATOM     17  C   UNL     1       0.724  13.212  19.173  0.00  0.00    +0.000 A 
ATOM     18  C   UNL     1      -0.266  12.229  19.256  0.00  0.00    +0.000 A 
ATOM     19  C   UNL     1       0.008  10.920  18.849  0.00  0.00    +0.000 A 
ATOM     20  F   UNL     1      -0.957   9.987  18.955  0.00  0.00    +0.000 F 
ATOM     21  C   UNL     1       1.278  10.571  18.389  0.00  0.00    +0.000 A 
ATOM     22  C   UNL     1       2.263  11.559  18.274  0.00  0.00    +0.000 A 
ATOM     23  C   UNL     1       1.983  12.875  18.653  0.00  0.00    +0.000 A 
ATOM     24  N   UNL     1       2.957  13.866  18.480  0.00  0.00    +0.000 N 
ATOM     25  H   UNL     1       3.810  13.665  17.968  0.00  0.00    +0.000 HD
ENDBRANCH   1  21
BRANCH   6  26
ATOM     26  C   UNL     1       4.384   5.062  16.774  0.00  0.00    +0.000 A 
ATOM     27  C   UNL     1       5.215   6.184  16.578  0.00  0.00    +0.000 A 
ATOM     28  C   UNL     1       6.466   6.053  15.972  0.00  0.00    +0.000 A 
ATOM     29  C   UNL     1       6.881   4.812  15.499  0.00  0.00    +0.000 A 
ATOM     30  C   UNL     1       6.029   3.712  15.601  0.00  0.00    +0.000 A 
ATOM     31  C   UNL     1       4.789   3.834  16.232  0.00  0.00    +0.000 A 
ENDBRANCH   6  26
TORSDOF 2
ENDMDL
MODEL 6
REMARK VINA RESULT:      -8.0      2.964      4.729
REMARK  Name = 
REMARK  2 active torsions:
REMARK  status: ('A' for Active; 'I' for Inactive)
REMARK    1  A    between atoms: C_9  and  N_10
REMARK    2  A    between atoms: C_15  and  C_16
REMARK                            x       y       z     vdW  Elec       q    Type
REMARK                         _______ _______ _______ _____ _____    ______ ____
ROOT
ATOM      1  N   UNL     1      -1.354  11.763  21.061  0.00  0.00    +0.000 N 
ATOM      2  C   UNL     1      -0.934  12.855  21.774  0.00  0.00    +0.000 C 
ATOM      3  O   UNL     1       0.239  13.012  22.118  0.00  0.00    +0.000 OA
ATOM      4  N   UNL     1      -1.892  13.775  22.118  0.00  0.00    +0.000 N 
ATOM      5  C   UNL     1      -3.279  13.902  21.711  0.00  0.00    +0.000 C 
ATOM      6  C   UNL     1      -3.880  15.009  22.625  0.00  0.00    +0.000 C 
ATOM      7  C   UNL     1      -2.714  15.383  23.607  0.00  0.00    +0.000 C 
ATOM      8  C   UNL     1      -3.089  15.327  25.179  0.00  0.00    +0.000 C 
ATOM      9  C   UNL     1      -3.241  16.869  25.093  0.00  0.00    +0.000 C 
ATOM     10  C   UNL     1      -2.132  16.800  24.063  0.00  0.00    +0.000 C 
ATOM     11  C   UNL     1      -1.458  14.913  22.872  0.00  0.00    +0.000 C 
ATOM     12  H   UNL     1      -2.000  11.960  20.310  0.00  0.00    +0.000 HD
ENDROOT
BRANCH   1  21
ATOM     13  O   UNL     1       3.270   8.177  16.964  0.00  0.00    +0.000 OA
ATOM     14  C   UNL     1       2.556   8.179  17.966  0.00  0.00    +0.000 C 
ATOM     15  C   UNL     1       2.345   6.947  18.811  0.00  0.00    +0.000 C 
ATOM     16  C   UNL     1       2.141   7.280  20.283  0.00  0.00    +0.000 C 
ATOM     17  C   UNL     1       1.182   8.427  20.485  0.00  0.00    +0.000 A 
ATOM     18  C   UNL     1       0.507   8.613  21.694  0.00  0.00    +0.000 A 
ATOM     19  C   UNL     1      -0.296   9.741  21.885  0.00  0.00    +0.000 A 
ATOM     20  F   UNL     1      -0.950   9.888  23.052  0.00  0.00    +0.000 F 
ATOM     21  C   UNL     1      -0.461  10.676  20.862  0.00  0.00    +0.000 A 
ATOM     22  C   UNL     1       0.238  10.511  19.661  0.00  0.00    +0.000 A 
ATOM     23  C   UNL     1       1.065   9.399  19.478  0.00  0.00    +0.000 A 
ATOM     24  N   UNL     1       1.804   9.273  18.295  0.00  0.00    +0.000 N 
ATOM     25  H   UNL     1       1.844  10.038  17.631  0.00  0.00    +0.000 HD
ENDBRANCH   1  21
BRANCH   6  26
ATOM     26  C   UNL     1      -5.132  14.507  23.334  0.00  0.00    +0.000 A 
ATOM     27  C   UNL     1      -6.243  15.348  23.546  0.00  0.00    +0.000 A 
ATOM     28  C   UNL     1      -7.468  14.826  23.967  0.00  0.00    +0.000 A 
ATOM     29  C   UNL     1      -7.585  13.467  24.240  0.00  0.00    +0.000 A 
ATOM     30  C   UNL     1      -6.468  12.639  24.128  0.00  0.00    +0.000 A 
ATOM     31  C   UNL     1      -5.249  13.154  23.679  0.00  0.00    +0.000 A 
ENDBRANCH   6  26
TORSDOF 2
ENDMDL
MODEL 7
REMARK VINA RESULT:      -7.9      2.633      3.897
REMARK  Name = 
REMARK  2 active torsions:
REMARK  status: ('A' for Active; 'I' for Inactive)
REMARK    1  A    between atoms: C_9  and  N_10
REMARK    2  A    between atoms: C_15  and  C_16
REMARK                            x       y       z     vdW  Elec       q    Type
REMARK                         _______ _______ _______ _____ _____    ______ ____
ROOT
ATOM      1  N   UNL     1       0.437  10.701  19.554  0.00  0.00    +0.000 N 
ATOM      2  C   UNL     1       0.413  11.196  20.832  0.00  0.00    +0.000 C 
ATOM      3  O   UNL     1       1.115  10.739  21.735  0.00  0.00    +0.000 OA
ATOM      4  N   UNL     1      -0.457  12.228  21.080  0.00  0.00    +0.000 N 
ATOM      5  C   UNL     1      -1.259  13.034  20.177  0.00  0.00    +0.000 C 
ATOM      6  C   UNL     1      -2.195  13.874  21.092  0.00  0.00    +0.000 C 
ATOM      7  C   UNL     1      -1.880  13.370  22.545  0.00  0.00    +0.000 C 
ATOM      8  C   UNL     1      -3.164  12.903  23.409  0.00  0.00    +0.000 C 
ATOM      9  C   UNL     1      -3.084  14.294  24.091  0.00  0.00    +0.000 C 
ATOM     10  C   UNL     1      -1.587  14.169  23.898  0.00  0.00    +0.000 C 
ATOM     11  C   UNL     1      -0.492  12.742  22.415  0.00  0.00    +0.000 C 
ATOM     12  H   UNL     1       0.430  11.396  18.822  0.00  0.00    +0.000 HD
ENDROOT
BRANCH   1  21
ATOM     13  O   UNL     1       2.340   4.057  21.357  0.00  0.00    +0.000 OA
ATOM     14  C   UNL     1       2.549   5.039  20.647  0.00  0.00    +0.000 C 
ATOM     15  C   UNL     1       3.743   5.135  19.729  0.00  0.00    +0.000 C 
ATOM     16  C   UNL     1       3.444   5.938  18.469  0.00  0.00    +0.000 C 
ATOM     17  C   UNL     1       2.697   7.214  18.765  0.00  0.00    +0.000 A 
ATOM     18  C   UNL     1       2.712   8.293  17.877  0.00  0.00    +0.000 A 
ATOM     19  C   UNL     1       1.928   9.422  18.130  0.00  0.00    +0.000 A 
ATOM     20  F   UNL     1       1.973  10.456  17.269  0.00  0.00    +0.000 F 
ATOM     21  C   UNL     1       1.151   9.502  19.286  0.00  0.00    +0.000 A 
ATOM     22  C   UNL     1       1.108   8.411  20.162  0.00  0.00    +0.000 A 
ATOM     23  C   UNL     1       1.868   7.268  19.896  0.00  0.00    +0.000 A 
ATOM     24  N   UNL     1       1.774   6.162  20.749  0.00  0.00    +0.000 N 
ATOM     25  H   UNL     1       1.069   6.133  21.478  0.00  0.00    +0.000 HD
ENDBRANCH   1  21
BRANCH   6  26
ATOM     26  C   UNL     1      -3.654  13.691  20.691  0.00  0.00    +0.000 A 
ATOM     27  C   UNL     1      -4.585  14.744  20.804  0.00  0.00    +0.000 A 
ATOM     28  C   UNL     1      -5.846  14.653  20.212  0.00  0.00    +0.000 A 
ATOM     29  C   UNL     1      -6.218  13.488  19.550  0.00  0.00    +0.000 A 
ATOM     30  C   UNL     1      -5.344  12.403  19.512  0.00  0.00    +0.000 A 
ATOM     31  C   UNL     1      -4.070  12.501  20.079  0.00  0.00    +0.000 A 
ENDBRANCH   6  26
TORSDOF 2
ENDMDL
MODEL 8
REMARK VINA RESULT:      -7.9      2.175      3.108
REMARK  Name = 
REMARK  2 active torsions:
REMARK  status: ('A' for Active; 'I' for Inactive)
REMARK    1  A    between atoms: C_9  and  N_10
REMARK    2  A    between atoms: C_15  and  C_16
REMARK                            x       y       z     vdW  Elec       q    Type
REMARK                         _______ _______ _______ _____ _____    ______ ____
ROOT
ATOM      1  N   UNL     1      -0.236  10.693  20.478  0.00  0.00    +0.000 N 
ATOM      2  C   UNL     1       0.312  11.832  21.007  0.00  0.00    +0.000 C 
ATOM      3  O   UNL     1       1.524  11.968  21.179  0.00  0.00    +0.000 OA
ATOM      4  N   UNL     1      -0.560  12.829  21.365  0.00  0.00    +0.000 N 
ATOM      5  C   UNL     1      -1.984  12.979  21.125  0.00  0.00    +0.000 C 
ATOM      6  C   UNL     1      -2.421  14.204  21.980  0.00  0.00    +0.000 C 
ATOM      7  C   UNL     1      -1.124  14.622  22.759  0.00  0.00    +0.000 C 
ATOM      8  C   UNL     1      -1.291  14.751  24.362  0.00  0.00    +0.000 C 
ATOM      9  C   UNL     1      -1.401  16.281  24.125  0.00  0.00    +0.000 C 
ATOM     10  C   UNL     1      -0.440  16.050  22.977  0.00  0.00    +0.000 C 
ATOM     11  C   UNL     1       0.007  14.017  21.926  0.00  0.00    +0.000 C 
ATOM     12  H   UNL     1      -0.967  10.840  19.797  0.00  0.00    +0.000 HD
ENDROOT
BRANCH   1  21
ATOM     13  O   UNL     1       4.417   6.950  16.557  0.00  0.00    +0.000 OA
ATOM     14  C   UNL     1       3.627   6.960  17.500  0.00  0.00    +0.000 C 
ATOM     15  C   UNL     1       3.257   5.710  18.260  0.00  0.00    +0.000 C 
ATOM     16  C   UNL     1       2.961   5.988  19.728  0.00  0.00    +0.000 C 
ATOM     17  C   UNL     1       2.079   7.197  19.917  0.00  0.00    +0.000 A 
ATOM     18  C   UNL     1       1.326   7.377  21.080  0.00  0.00    +0.000 A 
ATOM     19  C   UNL     1       0.598   8.556  21.270  0.00  0.00    +0.000 A 
ATOM     20  F   UNL     1      -0.135   8.698  22.391  0.00  0.00    +0.000 F 
ATOM     21  C   UNL     1       0.586   9.548  20.289  0.00  0.00    +0.000 A 
ATOM     22  C   UNL     1       1.364   9.386  19.138  0.00  0.00    +0.000 A 
ATOM     23  C   UNL     1       2.117   8.221  18.959  0.00  0.00    +0.000 A 
ATOM     24  N   UNL     1       2.936   8.094  17.830  0.00  0.00    +0.000 N 
ATOM     25  H   UNL     1       3.087   8.884  17.213  0.00  0.00    +0.000 HD
ENDBRANCH   1  21
BRANCH   6  26
ATOM     26  C   UNL     1      -3.586  13.840  22.893  0.00  0.00    +0.000 A 
ATOM     27  C   UNL     1      -4.763  14.616  22.926  0.00  0.00    +0.000 A 
ATOM     28  C   UNL     1      -5.911  14.149  23.569  0.00  0.00    +0.000 A 
ATOM     29  C   UNL     1      -5.883  12.931  24.239  0.00  0.00    +0.000 A 
ATOM     30  C   UNL     1      -4.698  12.198  24.297  0.00  0.00    +0.000 A 
ATOM     31  C   UNL     1      -3.556  12.649  23.630  0.00  0.00    +0.000 A 
ENDBRANCH   6  26
TORSDOF 2
ENDMDL
MODEL 9
REMARK VINA RESULT:      -7.8      2.501      4.036
REMARK  Name = 
REMARK  2 active torsions:
REMARK  status: ('A' for Active; 'I' for Inactive)
REMARK    1  A    between atoms: C_9  and  N_10
REMARK    2  A    between atoms: C_15  and  C_16
REMARK                            x       y       z     vdW  Elec       q    Type
REMARK                         _______ _______ _______ _____ _____    ______ ____
ROOT
ATOM      1  N   UNL     1       1.318   9.860  20.468  0.00  0.00    +0.000 N 
ATOM      2  C   UNL     1       0.181   9.897  21.231  0.00  0.00    +0.000 C 
ATOM      3  O   UNL     1      -0.462   8.885  21.514  0.00  0.00    +0.000 OA
ATOM      4  N   UNL     1      -0.238  11.132  21.658  0.00  0.00    +0.000 N 
ATOM      5  C   UNL     1       0.410  12.429  21.597  0.00  0.00    +0.000 C 
ATOM      6  C   UNL     1      -0.674  13.455  22.039  0.00  0.00    +0.000 C 
ATOM      7  C   UNL     1      -1.969  12.592  22.245  0.00  0.00    +0.000 C 
ATOM      8  C   UNL     1      -3.279  13.111  21.451  0.00  0.00    +0.000 C 
ATOM      9  C   UNL     1      -3.723  13.737  22.800  0.00  0.00    +0.000 C 
ATOM     10  C   UNL     1      -3.030  12.552  23.440  0.00  0.00    +0.000 C 
ATOM     11  C   UNL     1      -1.431  11.176  22.448  0.00  0.00    +0.000 C 
ATOM     12  H   UNL     1       2.076  10.442  20.794  0.00  0.00    +0.000 HD
ENDROOT
BRANCH   1  21
ATOM     13  O   UNL     1       3.057   2.937  20.727  0.00  0.00    +0.000 OA
ATOM     14  C   UNL     1       3.024   3.974  20.067  0.00  0.00    +0.000 C 
ATOM     15  C   UNL     1       3.656   4.084  18.702  0.00  0.00    +0.000 C 
ATOM     16  C   UNL     1       2.902   5.041  17.788  0.00  0.00    +0.000 C 
ATOM     17  C   UNL     1       2.531   6.327  18.482  0.00  0.00    +0.000 A 
ATOM     18  C   UNL     1       2.256   7.493  17.764  0.00  0.00    +0.000 A 
ATOM     19  C   UNL     1       1.817   8.642  18.429  0.00  0.00    +0.000 A 
ATOM     20  F   UNL     1       1.576   9.758  17.717  0.00  0.00    +0.000 F 
ATOM     21  C   UNL     1       1.681   8.649  19.818  0.00  0.00    +0.000 A 
ATOM     22  C   UNL     1       1.924   7.474  20.538  0.00  0.00    +0.000 A 
ATOM     23  C   UNL     1       2.335   6.316  19.872  0.00  0.00    +0.000 A 
ATOM     24  N   UNL     1       2.521   5.132  20.595  0.00  0.00    +0.000 N 
ATOM     25  H   UNL     1       2.239   5.073  21.568  0.00  0.00    +0.000 HD
ENDBRANCH   1  21
BRANCH   6  26
ATOM     26  C   UNL     1      -0.837  14.554  20.997  0.00  0.00    +0.000 A 
ATOM     27  C   UNL     1      -1.250  15.853  21.358  0.00  0.00    +0.000 A 
ATOM     28  C   UNL     1      -1.161  16.912  20.452  0.00  0.00    +0.000 A 
ATOM     29  C   UNL     1      -0.717  16.678  19.155  0.00  0.00    +0.000 A 
ATOM     30  C   UNL     1      -0.396  15.381  18.755  0.00  0.00    +0.000 A 
ATOM     31  C   UNL     1      -0.457  14.325  19.668  0.00  0.00    +0.000 A 
ENDBRANCH   6  26
TORSDOF 2
ENDMDL
