MODEL 1
REMARK VINA RESULT:      -8.7      0.000      0.000
REMARK  Name = 
REMARK  6 active torsions:
REMARK  status: ('A' for Active; 'I' for Inactive)
REMARK    1  A    between atoms: C_1  and  C_2
REMARK    2  A    between atoms: C_5  and  N_6
REMARK    3  A    between atoms: C_7  and  C_9
REMARK    4  A    between atoms: C_9  and  N_10
REMARK    5  A    between atoms: C_14  and  C_15
REMARK    6  A    between atoms: C_17  and  C_18
REMARK                            x       y       z     vdW  Elec       q    Type
REMARK                         _______ _______ _______ _____ _____    ______ ____
ROOT
ATOM      1  N   UNL     1       2.599   4.371  18.933  0.00  0.00    +0.000 NA
ATOM      2  C   UNL     1       1.458   3.460  18.926  0.00  0.00    +0.000 C 
ATOM      3  C   UNL     1       2.024   2.055  18.905  0.00  0.00    +0.000 C 
ATOM      4  C   UNL     1       3.377   2.208  18.244  0.00  0.00    +0.000 C 
ATOM      5  C   UNL     1       3.825   3.621  18.612  0.00  0.00    +0.000 C 
ENDROOT
BRANCH   5   6
ATOM      6  C   UNL     1       4.483   4.295  17.451  0.00  0.00    +0.000 A 
ATOM      7  N   UNL     1       5.035   3.681  16.422  0.00  0.00    +0.000 NA
ATOM      8  C   UNL     1       5.356   4.660  15.520  0.00  0.00    +0.000 A 
ATOM      9  C   UNL     1       5.069   5.898  16.043  0.00  0.00    +0.000 A 
ATOM     10  N   UNL     1       4.517   5.656  17.272  0.00  0.00    +0.000 N 
ATOM     11  H   UNL     1       4.154   6.351  17.911  0.00  0.00    +0.000 HD
BRANCH   8  12
ATOM     12  C   UNL     1       5.912   4.350  14.222  0.00  0.00    +0.000 A 
ATOM     13  C   UNL     1       5.148   3.600  13.313  0.00  0.00    +0.000 A 
ATOM     14  C   UNL     1       5.640   3.300  12.041  0.00  0.00    +0.000 A 
ATOM     15  C   UNL     1       6.899   3.760  11.657  0.00  0.00    +0.000 A 
ATOM     16  C   UNL     1       7.659   4.521  12.544  0.00  0.00    +0.000 A 
ATOM     17  C   UNL     1       7.166   4.810  13.815  0.00  0.00    +0.000 A 
ATOM     18  F   UNL     1       7.922   5.569  14.625  0.00  0.00    +0.000 F 
ENDBRANCH   8  12
ENDBRANCH   5   6
BRANCH   1  19
ATOM     19  C   UNL     1       2.728   5.211  20.127  0.00  0.00    +0.000 C 
BRANCH  19  21
ATOM     20  N   UNL     1       1.621   7.217  20.989  0.00  0.00    +0.000 N 
ATOM     21  C   UNL     1       2.214   6.636  19.878  0.00  0.00    +0.000 C 
ATOM     22  O   UNL     1       2.308   7.125  18.755  0.00  0.00    +0.000 OA
ATOM     23  H   UNL     1       1.660   6.645  21.833  0.00  0.00    +0.000 HD
BRANCH  20  28
ATOM     24  C   UNL     1      -0.672  12.451  21.533  0.00  0.00    +0.000 C 
ATOM     25  C   UNL     1      -0.080  11.081  21.383  0.00  0.00    +0.000 A 
ATOM     26  C   UNL     1       0.455  10.674  20.158  0.00  0.00    +0.000 A 
ATOM     27  C   UNL     1       1.014   9.402  20.012  0.00  0.00    +0.000 A 
ATOM     28  C   UNL     1       1.055   8.506  21.082  0.00  0.00    +0.000 A 
ATOM     29  C   UNL     1       0.513   8.908  22.308  0.00  0.00    +0.000 A 
ATOM     30  C   UNL     1      -0.048  10.188  22.459  0.00  0.00    +0.000 A 
ENDBRANCH  20  28
ENDBRANCH  19  21
ENDBRANCH   1  19
TORSDOF 5
ENDMDL
MODEL 2
REMARK VINA RESULT:      -8.1      0.943      1.309
REMARK  Name = 
REMARK  6 active torsions:
REMARK  status: ('A' for Active; 'I' for Inactive)
REMARK    1  A    between atoms: C_1  and  C_2
REMARK    2  A    between atoms: C_5  and  N_6
REMARK    3  A    between atoms: C_7  and  C_9
REMARK    4  A    between atoms: C_9  and  N_10
REMARK    5  A    between atoms: C_14  and  C_15
REMARK    6  A    between atoms: C_17  and  C_18
REMARK                            x       y       z     vdW  Elec       q    Type
REMARK                         _______ _______ _______ _____ _____    ______ ____
ROOT
ATOM      1  N   UNL     1       2.540   4.755  18.859  0.00  0.00    +0.000 NA
ATOM      2  C   UNL     1       1.348   3.916  18.767  0.00  0.00    +0.000 C 
ATOM      3  C   UNL     1       1.831   2.484  18.666  0.00  0.00    +0.000 C 
ATOM      4  C   UNL     1       3.208   2.597  18.046  0.00  0.00    +0.000 C 
ATOM      5  C   UNL     1       3.727   3.955  18.516  0.00  0.00    +0.000 C 
ENDROOT
BRANCH   5   6
ATOM      6  C   UNL     1       4.453   4.661  17.416  0.00  0.00    +0.000 A 
ATOM      7  N   UNL     1       5.094   4.076  16.423  0.00  0.00    +0.000 NA
ATOM      8  C   UNL     1       5.458   5.076  15.561  0.00  0.00    +0.000 A 
ATOM      9  C   UNL     1       5.103   6.299  16.078  0.00  0.00    +0.000 A 
ATOM     10  N   UNL     1       4.467   6.025  17.259  0.00  0.00    +0.000 N 
ATOM     11  H   UNL     1       4.042   6.702  17.879  0.00  0.00    +0.000 HD
BRANCH   8  12
ATOM     12  C   UNL     1       6.116   4.799  14.304  0.00  0.00    +0.000 A 
ATOM     13  C   UNL     1       7.380   5.360  14.056  0.00  0.00    +0.000 A 
ATOM     14  C   UNL     1       8.057   5.097  12.863  0.00  0.00    +0.000 A 
ATOM     15  C   UNL     1       7.485   4.257  11.909  0.00  0.00    +0.000 A 
ATOM     16  C   UNL     1       6.239   3.680  12.153  0.00  0.00    +0.000 A 
ATOM     17  C   UNL     1       5.563   3.953  13.341  0.00  0.00    +0.000 A 
ATOM     18  F   UNL     1       4.379   3.353  13.543  0.00  0.00    +0.000 F 
ENDBRANCH   8  12
ENDBRANCH   5   6
BRANCH   1  19
ATOM     19  C   UNL     1       2.687   5.506  20.108  0.00  0.00    +0.000 C 
BRANCH  19  21
ATOM     20  N   UNL     1       1.421   7.371  21.065  0.00  0.00    +0.000 N 
ATOM     21  C   UNL     1       2.161   6.942  19.973  0.00  0.00    +0.000 C 
ATOM     22  O   UNL     1       2.372   7.568  18.937  0.00  0.00    +0.000 OA
ATOM     23  H   UNL     1       1.378   6.699  21.832  0.00  0.00    +0.000 HD
BRANCH  20  28
ATOM     24  C   UNL     1      -1.051  12.474  21.956  0.00  0.00    +0.000 C 
ATOM     25  C   UNL     1      -0.413  11.137  21.715  0.00  0.00    +0.000 A 
ATOM     26  C   UNL     1       0.029  10.787  20.438  0.00  0.00    +0.000 A 
ATOM     27  C   UNL     1       0.631   9.547  20.207  0.00  0.00    +0.000 A 
ATOM     28  C   UNL     1       0.807   8.629  21.244  0.00  0.00    +0.000 A 
ATOM     29  C   UNL     1       0.358   8.974  22.524  0.00  0.00    +0.000 A 
ATOM     30  C   UNL     1      -0.246  10.222  22.759  0.00  0.00    +0.000 A 
ENDBRANCH  20  28
ENDBRANCH  19  21
ENDBRANCH   1  19
TORSDOF 5
ENDMDL
MODEL 3
REMARK VINA RESULT:      -8.1      1.028      1.534
REMARK  Name = 
REMARK  6 active torsions:
REMARK  status: ('A' for Active; 'I' for Inactive)
REMARK    1  A    between atoms: C_1  and  C_2
REMARK    2  A    between atoms: C_5  and  N_6
REMARK    3  A    between atoms: C_7  and  C_9
REMARK    4  A    between atoms: C_9  and  N_10
REMARK    5  A    between atoms: C_14  and  C_15
REMARK    6  A    between atoms: C_17  and  C_18
REMARK                            x       y       z     vdW  Elec       q    Type
REMARK                         _______ _______ _______ _____ _____    ______ ____
ROOT
ATOM      1  N   UNL     1       2.636   4.145  18.983  0.00  0.00    +0.000 NA
ATOM      2  C   UNL     1       1.453   3.290  18.947  0.00  0.00    +0.000 C 
ATOM      3  C   UNL     1       1.950   1.866  18.802  0.00  0.00    +0.000 C 
ATOM      4  C   UNL     1       3.288   2.007  18.108  0.00  0.00    +0.000 C 
ATOM      5  C   UNL     1       3.814   3.366  18.565  0.00  0.00    +0.000 C 
ENDROOT
BRANCH   5   6
ATOM      6  C   UNL     1       4.468   4.096  17.436  0.00  0.00    +0.000 A 
ATOM      7  N   UNL     1       5.045   3.532  16.392  0.00  0.00    +0.000 NA
ATOM      8  C   UNL     1       5.352   4.550  15.529  0.00  0.00    +0.000 A 
ATOM      9  C   UNL     1       5.030   5.762  16.092  0.00  0.00    +0.000 A 
ATOM     10  N   UNL     1       4.471   5.463  17.306  0.00  0.00    +0.000 N 
ATOM     11  H   UNL     1       4.086   6.126  17.964  0.00  0.00    +0.000 HD
BRANCH   8  12
ATOM     12  C   UNL     1       5.929   4.299  14.227  0.00  0.00    +0.000 A 
ATOM     13  C   UNL     1       5.209   3.529  13.298  0.00  0.00    +0.000 A 
ATOM     14  C   UNL     1       5.721   3.284  12.022  0.00  0.00    +0.000 A 
ATOM     15  C   UNL     1       6.955   3.820  11.654  0.00  0.00    +0.000 A 
ATOM     16  C   UNL     1       7.669   4.601  12.562  0.00  0.00    +0.000 A 
ATOM     17  C   UNL     1       7.157   4.835  13.836  0.00  0.00    +0.000 A 
ATOM     18  F   UNL     1       7.868   5.615  14.667  0.00  0.00    +0.000 F 
ENDBRANCH   8  12
ENDBRANCH   5   6
BRANCH   1  19
ATOM     19  C   UNL     1       2.841   4.884  20.231  0.00  0.00    +0.000 C 
BRANCH  19  21
ATOM     20  N   UNL     1       2.342   7.197  19.605  0.00  0.00    +0.000 N 
ATOM     21  C   UNL     1       1.909   6.099  20.332  0.00  0.00    +0.000 C 
ATOM     22  O   UNL     1       0.918   6.042  21.057  0.00  0.00    +0.000 OA
ATOM     23  H   UNL     1       3.186   7.031  19.056  0.00  0.00    +0.000 HD
BRANCH  20  28
ATOM     24  C   UNL     1      -0.224  12.295  18.992  0.00  0.00    +0.000 C 
ATOM     25  C   UNL     1       0.454  10.967  19.160  0.00  0.00    +0.000 A 
ATOM     26  C   UNL     1       0.457  10.329  20.402  0.00  0.00    +0.000 A 
ATOM     27  C   UNL     1       1.079   9.089  20.565  0.00  0.00    +0.000 A 
ATOM     28  C   UNL     1       1.712   8.455  19.494  0.00  0.00    +0.000 A 
ATOM     29  C   UNL     1       1.717   9.095  18.250  0.00  0.00    +0.000 A 
ATOM     30  C   UNL     1       1.090  10.342  18.083  0.00  0.00    +0.000 A 
ENDBRANCH  20  28
ENDBRANCH  19  21
ENDBRANCH   1  19
TORSDOF 5
ENDMDL
MODEL 4
REMARK VINA RESULT:      -8.0      0.792      1.241
REMARK  Name = 
REMARK  6 active torsions:
REMARK  status: ('A' for Active; 'I' for Inactive)
REMARK    1  A    between atoms: C_1  and  C_2
REMARK    2  A    between atoms: C_5  and  N_6
REMARK    3  A    between atoms: C_7  and  C_9
REMARK    4  A    between atoms: C_9  and  N_10
REMARK    5  A    between atoms: C_14  and  C_15
REMARK    6  A    between atoms: C_17  and  C_18
REMARK                            x       y       z     vdW  Elec       q    Type
REMARK                         _______ _______ _______ _____ _____    ______ ____
ROOT
ATOM      1  N   UNL     1       2.591   4.984  18.824  0.00  0.00    +0.000 NA
ATOM      2  C   UNL     1       1.425   4.106  18.877  0.00  0.00    +0.000 C 
ATOM      3  C   UNL     1       1.952   2.693  19.020  0.00  0.00    +0.000 C 
ATOM      4  C   UNL     1       3.327   2.741  18.389  0.00  0.00    +0.000 C 
ATOM      5  C   UNL     1       3.804   4.174  18.622  0.00  0.00    +0.000 C 
ENDROOT
BRANCH   5   6
ATOM      6  C   UNL     1       4.512   4.705  17.418  0.00  0.00    +0.000 A 
ATOM      7  N   UNL     1       4.977   3.979  16.420  0.00  0.00    +0.000 NA
ATOM      8  C   UNL     1       5.390   4.865  15.460  0.00  0.00    +0.000 A 
ATOM      9  C   UNL     1       5.249   6.154  15.916  0.00  0.00    +0.000 A 
ATOM     10  N   UNL     1       4.693   6.042  17.162  0.00  0.00    +0.000 N 
ATOM     11  H   UNL     1       4.420   6.808  17.764  0.00  0.00    +0.000 HD
BRANCH   8  12
ATOM     12  C   UNL     1       5.886   4.424  14.177  0.00  0.00    +0.000 A 
ATOM     13  C   UNL     1       5.061   3.635  13.359  0.00  0.00    +0.000 A 
ATOM     14  C   UNL     1       5.496   3.209  12.102  0.00  0.00    +0.000 A 
ATOM     15  C   UNL     1       6.758   3.580  11.641  0.00  0.00    +0.000 A 
ATOM     16  C   UNL     1       7.579   4.379  12.436  0.00  0.00    +0.000 A 
ATOM     17  C   UNL     1       7.143   4.793  13.693  0.00  0.00    +0.000 A 
ATOM     18  F   UNL     1       7.957   5.583  14.412  0.00  0.00    +0.000 F 
ENDBRANCH   8  12
ENDBRANCH   5   6
BRANCH   1  19
ATOM     19  C   UNL     1       2.709   5.941  19.928  0.00  0.00    +0.000 C 
BRANCH  19  21
ATOM     20  N   UNL     1       1.443   7.993  20.351  0.00  0.00    +0.000 N 
ATOM     21  C   UNL     1       2.330   7.362  19.491  0.00  0.00    +0.000 C 
ATOM     22  O   UNL     1       2.771   7.808  18.434  0.00  0.00    +0.000 OA
ATOM     23  H   UNL     1       1.211   7.452  21.184  0.00  0.00    +0.000 HD
BRANCH  20  28
ATOM     24  C   UNL     1      -0.819  13.230  19.716  0.00  0.00    +0.000 C 
ATOM     25  C   UNL     1      -0.218  11.866  19.884  0.00  0.00    +0.000 A 
ATOM     26  C   UNL     1       0.339  11.487  21.108  0.00  0.00    +0.000 A 
ATOM     27  C   UNL     1       0.895  10.216  21.275  0.00  0.00    +0.000 A 
ATOM     28  C   UNL     1       0.907   9.293  20.228  0.00  0.00    +0.000 A 
ATOM     29  C   UNL     1       0.357   9.672  18.998  0.00  0.00    +0.000 A 
ATOM     30  C   UNL     1      -0.205  10.950  18.828  0.00  0.00    +0.000 A 
ENDBRANCH  20  28
ENDBRANCH  19  21
ENDBRANCH   1  19
TORSDOF 5
ENDMDL
MODEL 5
REMARK VINA RESULT:      -8.0      4.797      7.828
REMARK  Name = 
REMARK  6 active torsions:
REMARK  status: ('A' for Active; 'I' for Inactive)
REMARK    1  A    between atoms: C_1  and  C_2
REMARK    2  A    between atoms: C_5  and  N_6
REMARK    3  A    between atoms: C_7  and  C_9
REMARK    4  A    between atoms: C_9  and  N_10
REMARK    5  A    between atoms: C_14  and  C_15
REMARK    6  A    between atoms: C_17  and  C_18
REMARK                            x       y       z     vdW  Elec       q    Type
REMARK                         _______ _______ _______ _____ _____    ______ ____
ROOT
ATOM      1  N   UNL     1       6.438   5.890  17.050  0.00  0.00    +0.000 NA
ATOM      2  C   UNL     1       7.074   4.589  16.856  0.00  0.00    +0.000 C 
ATOM      3  C   UNL     1       6.175   3.802  15.924  0.00  0.00    +0.000 C 
ATOM      4  C   UNL     1       4.797   4.385  16.153  0.00  0.00    +0.000 C 
ATOM      5  C   UNL     1       5.058   5.840  16.541  0.00  0.00    +0.000 C 
ENDROOT
BRANCH   5   6
ATOM      6  C   UNL     1       4.147   6.272  17.644  0.00  0.00    +0.000 A 
ATOM      7  N   UNL     1       3.503   7.423  17.699  0.00  0.00    +0.000 NA
ATOM      8  C   UNL     1       2.657   7.337  18.773  0.00  0.00    +0.000 A 
ATOM      9  C   UNL     1       2.848   6.145  19.431  0.00  0.00    +0.000 A 
ATOM     10  N   UNL     1       3.798   5.476  18.707  0.00  0.00    +0.000 N 
ATOM     11  H   UNL     1       4.144   4.545  18.894  0.00  0.00    +0.000 HD
BRANCH   8  12
ATOM     12  C   UNL     1       1.726   8.394  19.097  0.00  0.00    +0.000 A 
ATOM     13  C   UNL     1       1.253   9.227  18.070  0.00  0.00    +0.000 A 
ATOM     14  C   UNL     1       0.335  10.244  18.339  0.00  0.00    +0.000 A 
ATOM     15  C   UNL     1      -0.135  10.430  19.638  0.00  0.00    +0.000 A 
ATOM     16  C   UNL     1       0.313   9.596  20.663  0.00  0.00    +0.000 A 
ATOM     17  C   UNL     1       1.236   8.589  20.390  0.00  0.00    +0.000 A 
ATOM     18  F   UNL     1       1.618   7.794  21.403  0.00  0.00    +0.000 F 
ENDBRANCH   8  12
ENDBRANCH   5   6
BRANCH   1  19
ATOM     19  C   UNL     1       7.198   7.042  16.558  0.00  0.00    +0.000 C 
BRANCH  19  21
ATOM     20  N   UNL     1       8.068   9.162  17.421  0.00  0.00    +0.000 N 
ATOM     21  C   UNL     1       7.855   7.822  17.706  0.00  0.00    +0.000 C 
ATOM     22  O   UNL     1       8.183   7.227  18.731  0.00  0.00    +0.000 OA
ATOM     23  H   UNL     1       7.706   9.460  16.514  0.00  0.00    +0.000 HD
BRANCH  20  28
ATOM     24  C   UNL     1      10.354  13.241  20.749  0.00  0.00    +0.000 C 
ATOM     25  C   UNL     1       9.766  12.169  19.879  0.00  0.00    +0.000 A 
ATOM     26  C   UNL     1       9.718  10.847  20.325  0.00  0.00    +0.000 A 
ATOM     27  C   UNL     1       9.166   9.844  19.524  0.00  0.00    +0.000 A 
ATOM     28  C   UNL     1       8.648  10.136  18.261  0.00  0.00    +0.000 A 
ATOM     29  C   UNL     1       8.701  11.459  17.808  0.00  0.00    +0.000 A 
ATOM     30  C   UNL     1       9.255  12.470  18.613  0.00  0.00    +0.000 A 
ENDBRANCH  20  28
ENDBRANCH  19  21
ENDBRANCH   1  19
TORSDOF 5
ENDMDL
MODEL 6
REMARK VINA RESULT:      -7.9      2.259      8.699
REMARK  Name = 
REMARK  6 active torsions:
REMARK  status: ('A' for Active; 'I' for Inactive)
REMARK    1  A    between atoms: C_1  and  C_2
REMARK    2  A    between atoms: C_5  and  N_6
REMARK    3  A    between atoms: C_7  and  C_9
REMARK    4  A    between atoms: C_9  and  N_10
REMARK    5  A    between atoms: C_14  and  C_15
REMARK    6  A    between atoms: C_17  and  C_18
REMARK                            x       y       z     vdW  Elec       q    Type
REMARK                         _______ _______ _______ _____ _____    ______ ____
ROOT
ATOM      1  N   UNL     1       3.791   5.254  19.483  0.00  0.00    +0.000 NA
ATOM      2  C   UNL     1       3.372   3.855  19.455  0.00  0.00    +0.000 C 
ATOM      3  C   UNL     1       2.475   3.695  18.245  0.00  0.00    +0.000 C 
ATOM      4  C   UNL     1       1.891   5.074  18.027  0.00  0.00    +0.000 C 
ATOM      5  C   UNL     1       2.967   6.030  18.541  0.00  0.00    +0.000 C 
ENDROOT
BRANCH   5   6
ATOM      6  C   UNL     1       2.357   7.167  19.295  0.00  0.00    +0.000 A 
ATOM      7  N   UNL     1       1.927   8.295  18.765  0.00  0.00    +0.000 NA
ATOM      8  C   UNL     1       1.293   8.975  19.771  0.00  0.00    +0.000 A 
ATOM      9  C   UNL     1       1.410   8.285  20.954  0.00  0.00    +0.000 A 
ATOM     10  N   UNL     1       2.091   7.139  20.642  0.00  0.00    +0.000 N 
ATOM     11  H   UNL     1       2.314   6.385  21.280  0.00  0.00    +0.000 HD
BRANCH   8  12
ATOM     12  C   UNL     1       0.618  10.231  19.536  0.00  0.00    +0.000 A 
ATOM     13  C   UNL     1      -0.641  10.449  20.120  0.00  0.00    +0.000 A 
ATOM     14  C   UNL     1      -1.315  11.658  19.937  0.00  0.00    +0.000 A 
ATOM     15  C   UNL     1      -0.731  12.672  19.179  0.00  0.00    +0.000 A 
ATOM     16  C   UNL     1       0.527  12.473  18.609  0.00  0.00    +0.000 A 
ATOM     17  C   UNL     1       1.191  11.261  18.789  0.00  0.00    +0.000 A 
ATOM     18  F   UNL     1       2.411  11.125  18.244  0.00  0.00    +0.000 F 
ENDBRANCH   8  12
ENDBRANCH   5   6
BRANCH   1  19
ATOM     19  C   UNL     1       5.230   5.484  19.321  0.00  0.00    +0.000 C 
BRANCH  19  21
ATOM     20  N   UNL     1       5.808   4.580  17.121  0.00  0.00    +0.000 N 
ATOM     21  C   UNL     1       5.603   5.739  17.854  0.00  0.00    +0.000 C 
ATOM     22  O   UNL     1       5.742   6.894  17.457  0.00  0.00    +0.000 OA
ATOM     23  H   UNL     1       5.626   3.719  17.638  0.00  0.00    +0.000 HD
BRANCH  20  28
ATOM     24  C   UNL     1       7.085   4.131  11.543  0.00  0.00    +0.000 C 
ATOM     25  C   UNL     1       6.760   4.243  13.004  0.00  0.00    +0.000 A 
ATOM     26  C   UNL     1       7.636   4.899  13.872  0.00  0.00    +0.000 A 
ATOM     27  C   UNL     1       7.338   5.013  15.232  0.00  0.00    +0.000 A 
ATOM     28  C   UNL     1       6.161   4.478  15.758  0.00  0.00    +0.000 A 
ATOM     29  C   UNL     1       5.285   3.814  14.892  0.00  0.00    +0.000 A 
ATOM     30  C   UNL     1       5.581   3.699  13.523  0.00  0.00    +0.000 A 
ENDBRANCH  20  28
ENDBRANCH  19  21
ENDBRANCH   1  19
TORSDOF 5
ENDMDL
MODEL 7
REMARK VINA RESULT:      -7.9      2.670      8.721
REMARK  Name = 
REMARK  6 active torsions:
REMARK  status: ('A' for Active; 'I' for Inactive)
REMARK    1  A    between atoms: C_1  and  C_2
REMARK    2  A    between atoms: C_5  and  N_6
REMARK    3  A    between atoms: C_7  and  C_9
REMARK    4  A    between atoms: C_9  and  N_10
REMARK    5  A    between atoms: C_14  and  C_15
REMARK    6  A    between atoms: C_17  and  C_18
REMARK                            x       y       z     vdW  Elec       q    Type
REMARK                         _______ _______ _______ _____ _____    ______ ____
ROOT
ATOM      1  N   UNL     1       3.639   5.453  19.571  0.00  0.00    +0.000 NA
ATOM      2  C   UNL     1       3.194   4.072  19.743  0.00  0.00    +0.000 C 
ATOM      3  C   UNL     1       2.252   3.774  18.595  0.00  0.00    +0.000 C 
ATOM      4  C   UNL     1       1.685   5.126  18.216  0.00  0.00    +0.000 C 
ATOM      5  C   UNL     1       2.796   6.116  18.563  0.00  0.00    +0.000 C 
ENDROOT
BRANCH   5   6
ATOM      6  C   UNL     1       2.234   7.356  19.180  0.00  0.00    +0.000 A 
ATOM      7  N   UNL     1       1.869   8.441  18.524  0.00  0.00    +0.000 NA
ATOM      8  C   UNL     1       1.256   9.255  19.440  0.00  0.00    +0.000 A 
ATOM      9  C   UNL     1       1.322   8.691  20.692  0.00  0.00    +0.000 A 
ATOM     10  N   UNL     1       1.948   7.486  20.517  0.00  0.00    +0.000 N 
ATOM     11  H   UNL     1       2.123   6.795  21.235  0.00  0.00    +0.000 HD
BRANCH   8  12
ATOM     12  C   UNL     1       0.649  10.510  19.060  0.00  0.00    +0.000 A 
ATOM     13  C   UNL     1       1.423  11.682  19.097  0.00  0.00    +0.000 A 
ATOM     14  C   UNL     1       0.879  12.910  18.715  0.00  0.00    +0.000 A 
ATOM     15  C   UNL     1      -0.443  12.979  18.278  0.00  0.00    +0.000 A 
ATOM     16  C   UNL     1      -1.215  11.819  18.220  0.00  0.00    +0.000 A 
ATOM     17  C   UNL     1      -0.670  10.598  18.610  0.00  0.00    +0.000 A 
ATOM     18  F   UNL     1      -1.442   9.504  18.512  0.00  0.00    +0.000 F 
ENDBRANCH   8  12
ENDBRANCH   5   6
BRANCH   1  19
ATOM     19  C   UNL     1       5.075   5.627  19.333  0.00  0.00    +0.000 C 
BRANCH  19  21
ATOM     20  N   UNL     1       5.649   4.658  17.160  0.00  0.00    +0.000 N 
ATOM     21  C   UNL     1       5.383   5.834  17.844  0.00  0.00    +0.000 C 
ATOM     22  O   UNL     1       5.424   6.975  17.388  0.00  0.00    +0.000 OA
ATOM     23  H   UNL     1       5.547   3.813  17.722  0.00  0.00    +0.000 HD
BRANCH  20  28
ATOM     24  C   UNL     1       7.096   4.095  11.634  0.00  0.00    +0.000 C 
ATOM     25  C   UNL     1       6.709   4.249  13.075  0.00  0.00    +0.000 A 
ATOM     26  C   UNL     1       5.464   3.802  13.523  0.00  0.00    +0.000 A 
ATOM     27  C   UNL     1       5.099   3.935  14.864  0.00  0.00    +0.000 A 
ATOM     28  C   UNL     1       5.966   4.515  15.792  0.00  0.00    +0.000 A 
ATOM     29  C   UNL     1       7.212   4.970  15.346  0.00  0.00    +0.000 A 
ATOM     30  C   UNL     1       7.582   4.836  13.996  0.00  0.00    +0.000 A 
ENDBRANCH  20  28
ENDBRANCH  19  21
ENDBRANCH   1  19
TORSDOF 5
ENDMDL
MODEL 8
REMARK VINA RESULT:      -7.9      0.982      1.174
REMARK  Name = 
REMARK  6 active torsions:
REMARK  status: ('A' for Active; 'I' for Inactive)
REMARK    1  A    between atoms: C_1  and  C_2
REMARK    2  A    between atoms: C_5  and  N_6
REMARK    3  A    between atoms: C_7  and  C_9
REMARK    4  A    between atoms: C_9  and  N_10
REMARK    5  A    between atoms: C_14  and  C_15
REMARK    6  A    between atoms: C_17  and  C_18
REMARK                            x       y       z     vdW  Elec       q    Type
REMARK                         _______ _______ _______ _____ _____    ______ ____
ROOT
ATOM      1  N   UNL     1       2.387   4.363  19.377  0.00  0.00    +0.000 NA
ATOM      2  C   UNL     1       1.097   3.852  18.920  0.00  0.00    +0.000 C 
ATOM      3  C   UNL     1       1.180   2.341  18.989  0.00  0.00    +0.000 C 
ATOM      4  C   UNL     1       2.656   2.040  18.834  0.00  0.00    +0.000 C 
ATOM      5  C   UNL     1       3.358   3.258  19.434  0.00  0.00    +0.000 C 
ENDROOT
BRANCH   5   6
ATOM      6  C   UNL     1       4.545   3.649  18.614  0.00  0.00    +0.000 A 
ATOM      7  N   UNL     1       4.651   3.514  17.307  0.00  0.00    +0.000 NA
ATOM      8  C   UNL     1       5.810   4.150  16.948  0.00  0.00    +0.000 A 
ATOM      9  C   UNL     1       6.462   4.611  18.068  0.00  0.00    +0.000 A 
ATOM     10  N   UNL     1       5.651   4.286  19.122  0.00  0.00    +0.000 N 
ATOM     11  H   UNL     1       5.815   4.516  20.093  0.00  0.00    +0.000 HD
BRANCH   8  12
ATOM     12  C   UNL     1       6.216   4.277  15.567  0.00  0.00    +0.000 A 
ATOM     13  C   UNL     1       5.627   3.443  14.602  0.00  0.00    +0.000 A 
ATOM     14  C   UNL     1       5.975   3.552  13.254  0.00  0.00    +0.000 A 
ATOM     15  C   UNL     1       6.907   4.507  12.852  0.00  0.00    +0.000 A 
ATOM     16  C   UNL     1       7.484   5.354  13.798  0.00  0.00    +0.000 A 
ATOM     17  C   UNL     1       7.139   5.235  15.143  0.00  0.00    +0.000 A 
ATOM     18  F   UNL     1       7.701   6.089  16.014  0.00  0.00    +0.000 F 
ENDBRANCH   8  12
ENDBRANCH   5   6
BRANCH   1  19
ATOM     19  C   UNL     1       2.348   5.165  20.603  0.00  0.00    +0.000 C 
BRANCH  19  21
ATOM     20  N   UNL     1       1.280   7.244  21.332  0.00  0.00    +0.000 N 
ATOM     21  C   UNL     1       1.992   6.630  20.313  0.00  0.00    +0.000 C 
ATOM     22  O   UNL     1       2.298   7.123  19.229  0.00  0.00    +0.000 OA
ATOM     23  H   UNL     1       1.141   6.660  22.157  0.00  0.00    +0.000 HD
BRANCH  20  28
ATOM     24  C   UNL     1      -0.657  12.638  21.643  0.00  0.00    +0.000 C 
ATOM     25  C   UNL     1      -0.157  11.227  21.552  0.00  0.00    +0.000 A 
ATOM     26  C   UNL     1       0.550  10.800  20.425  0.00  0.00    +0.000 A 
ATOM     27  C   UNL     1       1.025   9.489  20.337  0.00  0.00    +0.000 A 
ATOM     28  C   UNL     1       0.808   8.574  21.368  0.00  0.00    +0.000 A 
ATOM     29  C   UNL     1       0.095   8.996  22.495  0.00  0.00    +0.000 A 
ATOM     30  C   UNL     1      -0.383  10.315  22.588  0.00  0.00    +0.000 A 
ENDBRANCH  20  28
ENDBRANCH  19  21
ENDBRANCH   1  19
TORSDOF 5
ENDMDL
MODEL 9
REMARK VINA RESULT:      -7.9      1.316      1.533
REMARK  Name = 
REMARK  6 active torsions:
REMARK  status: ('A' for Active; 'I' for Inactive)
REMARK    1  A    between atoms: C_1  and  C_2
REMARK    2  A    between atoms: C_5  and  N_6
REMARK    3  A    between atoms: C_7  and  C_9
REMARK    4  A    between atoms: C_9  and  N_10
REMARK    5  A    between atoms: C_14  and  C_15
REMARK    6  A    between atoms: C_17  and  C_18
REMARK                            x       y       z     vdW  Elec       q    Type
REMARK                         _______ _______ _______ _____ _____    ______ ____
ROOT
ATOM      1  N   UNL     1       3.143   5.269  18.392  0.00  0.00    +0.000 NA
ATOM      2  C   UNL     1       1.740   5.065  18.040  0.00  0.00    +0.000 C 
ATOM      3  C   UNL     1       1.457   3.589  18.226  0.00  0.00    +0.000 C 
ATOM      4  C   UNL     1       2.801   2.922  18.025  0.00  0.00    +0.000 C 
ATOM      5  C   UNL     1       3.817   3.964  18.490  0.00  0.00    +0.000 C 
ENDROOT
BRANCH   5   6
ATOM      6  C   UNL     1       5.006   3.994  17.585  0.00  0.00    +0.000 A 
ATOM      7  N   UNL     1       4.970   3.905  16.269  0.00  0.00    +0.000 NA
ATOM      8  C   UNL     1       6.245   4.149  15.834  0.00  0.00    +0.000 A 
ATOM      9  C   UNL     1       7.089   4.310  16.907  0.00  0.00    +0.000 A 
ATOM     10  N   UNL     1       6.293   4.207  18.016  0.00  0.00    +0.000 N 
ATOM     11  H   UNL     1       6.591   4.317  18.976  0.00  0.00    +0.000 HD
BRANCH   8  12
ATOM     12  C   UNL     1       6.572   4.215  14.427  0.00  0.00    +0.000 A 
ATOM     13  C   UNL     1       5.911   3.359  13.531  0.00  0.00    +0.000 A 
ATOM     14  C   UNL     1       6.182   3.409  12.162  0.00  0.00    +0.000 A 
ATOM     15  C   UNL     1       7.109   4.327  11.670  0.00  0.00    +0.000 A 
ATOM     16  C   UNL     1       7.758   5.195  12.548  0.00  0.00    +0.000 A 
ATOM     17  C   UNL     1       7.490   5.135  13.914  0.00  0.00    +0.000 A 
ATOM     18  F   UNL     1       8.119   6.007  14.718  0.00  0.00    +0.000 F 
ENDBRANCH   8  12
ENDBRANCH   5   6
BRANCH   1  19
ATOM     19  C   UNL     1       3.383   6.135  19.550  0.00  0.00    +0.000 C 
BRANCH  19  21
ATOM     20  N   UNL     1       2.093   8.187  19.203  0.00  0.00    +0.000 N 
ATOM     21  C   UNL     1       2.150   6.984  19.890  0.00  0.00    +0.000 C 
ATOM     22  O   UNL     1       1.361   6.588  20.745  0.00  0.00    +0.000 OA
ATOM     23  H   UNL     1       2.843   8.318  18.524  0.00  0.00    +0.000 HD
BRANCH  20  28
ATOM     24  C   UNL     1      -1.903  12.274  19.719  0.00  0.00    +0.000 C 
ATOM     25  C   UNL     1      -0.866  11.199  19.581  0.00  0.00    +0.000 A 
ATOM     26  C   UNL     1      -0.609  10.624  18.334  0.00  0.00    +0.000 A 
ATOM     27  C   UNL     1       0.360   9.627  18.195  0.00  0.00    +0.000 A 
ATOM     28  C   UNL     1       1.095   9.180  19.294  0.00  0.00    +0.000 A 
ATOM     29  C   UNL     1       0.834   9.749  20.546  0.00  0.00    +0.000 A 
ATOM     30  C   UNL     1      -0.139  10.753  20.688  0.00  0.00    +0.000 A 
ENDBRANCH  20  28
ENDBRANCH  19  21
ENDBRANCH   1  19
TORSDOF 5
ENDMDL
