MODEL 1
REMARK VINA RESULT:      -9.5      0.000      0.000
REMARK  Name = 
REMARK  4 active torsions:
REMARK  status: ('A' for Active; 'I' for Inactive)
REMARK    1  A    between atoms: C_1  and  N_2
REMARK    2  A    between atoms: C_9  and  C_10
REMARK    3  A    between atoms: C_14  and  C_15
REMARK    4  A    between atoms: C_21  and  C_22
REMARK                            x       y       z     vdW  Elec       q    Type
REMARK                         _______ _______ _______ _____ _____    ______ ____
ROOT
ATOM      1  C   UNL     1       2.220   6.684  19.630  0.00  0.00    +0.000 A 
ATOM      2  C   UNL     1       1.682   5.999  20.729  0.00  0.00    +0.000 A 
ATOM      3  C   UNL     1       2.036   4.670  20.997  0.00  0.00    +0.000 A 
ATOM      4  C   UNL     1       2.989   4.022  20.209  0.00  0.00    +0.000 A 
ATOM      5  C   UNL     1       3.591   4.699  19.147  0.00  0.00    +0.000 A 
ATOM      6  C   UNL     1       3.137   5.978  18.825  0.00  0.00    +0.000 A 
ENDROOT
BRANCH   1  15
ATOM      7  C   UNL     1      -0.486  11.010  21.813  0.00  0.00    +0.000 C 
ATOM      8  N   UNL     1       0.096  11.146  20.510  0.00  0.00    +0.000 N 
ATOM      9  C   UNL     1       0.057  12.285  19.682  0.00  0.00    +0.000 A 
ATOM     10  O   UNL     1      -0.466  13.358  19.923  0.00  0.00    +0.000 OA
ATOM     11  N   UNL     1       0.738  11.947  18.506  0.00  0.00    +0.000 N 
ATOM     12  C   UNL     1       1.197  10.642  18.600  0.00  0.00    +0.000 A 
ATOM     13  N   UNL     1       1.879   9.960  17.681  0.00  0.00    +0.000 NA
ATOM     14  C   UNL     1       2.190   8.687  18.061  0.00  0.00    +0.000 A 
ATOM     15  C   UNL     1       1.867   8.084  19.301  0.00  0.00    +0.000 A 
ATOM     16  C   UNL     1       1.146   8.876  20.214  0.00  0.00    +0.000 A 
ATOM     17  C   UNL     1       0.809  10.153  19.835  0.00  0.00    +0.000 A 
ATOM     18  H   UNL     1       0.886  12.558  17.722  0.00  0.00    +0.000 HD
ENDBRANCH   1  15
BRANCH   5  19
ATOM     19  C   UNL     1       4.633   4.012  18.335  0.00  0.00    +0.000 C 
ATOM     20  O   UNL     1       4.394   2.859  17.976  0.00  0.00    +0.000 OA
ATOM     21  N   UNL     1       5.825   4.657  17.990  0.00  0.00    +0.000 N 
ATOM     22  C   UNL     1       6.366   5.929  18.488  0.00  0.00    +0.000 C 
ATOM     23  C   UNL     1       6.624   6.860  17.299  0.00  0.00    +0.000 C 
ATOM     24  O   UNL     1       7.523   6.249  16.359  0.00  0.00    +0.000 OA
ATOM     25  C   UNL     1       7.045   4.967  15.862  0.00  0.00    +0.000 C 
ATOM     26  C   UNL     1       6.720   4.013  17.022  0.00  0.00    +0.000 C 
BRANCH  25  27
ATOM     27  C   UNL     1       5.897   5.052  14.839  0.00  0.00    +0.000 C 
ATOM     28  F   UNL     1       6.329   4.844  13.573  0.00  0.00    +0.000 F 
ATOM     29  F   UNL     1       4.965   4.102  15.096  0.00  0.00    +0.000 F 
ATOM     30  F   UNL     1       5.263   6.243  14.843  0.00  0.00    +0.000 F 
ENDBRANCH  25  27
ENDBRANCH   5  19
TORSDOF 3
ENDMDL
MODEL 2
REMARK VINA RESULT:      -9.3      3.710      5.078
REMARK  Name = 
REMARK  4 active torsions:
REMARK  status: ('A' for Active; 'I' for Inactive)
REMARK    1  A    between atoms: C_1  and  N_2
REMARK    2  A    between atoms: C_9  and  C_10
REMARK    3  A    between atoms: C_14  and  C_15
REMARK    4  A    between atoms: C_21  and  C_22
REMARK                            x       y       z     vdW  Elec       q    Type
REMARK                         _______ _______ _______ _____ _____    ______ ____
ROOT
ATOM      1  C   UNL     1       1.517   8.782  19.572  0.00  0.00    +0.000 A 
ATOM      2  C   UNL     1       1.702   9.369  18.311  0.00  0.00    +0.000 A 
ATOM      3  C   UNL     1       2.527   8.771  17.350  0.00  0.00    +0.000 A 
ATOM      4  C   UNL     1       3.128   7.538  17.605  0.00  0.00    +0.000 A 
ATOM      5  C   UNL     1       2.910   6.898  18.826  0.00  0.00    +0.000 A 
ATOM      6  C   UNL     1       2.184   7.564  19.813  0.00  0.00    +0.000 A 
ENDROOT
BRANCH   1  15
ATOM      7  C   UNL     1      -2.178  12.872  20.227  0.00  0.00    +0.000 C 
ATOM      8  N   UNL     1      -1.832  12.066  21.361  0.00  0.00    +0.000 N 
ATOM      9  C   UNL     1      -2.329  12.196  22.673  0.00  0.00    +0.000 A 
ATOM     10  O   UNL     1      -3.144  13.005  23.079  0.00  0.00    +0.000 OA
ATOM     11  N   UNL     1      -1.695  11.210  23.439  0.00  0.00    +0.000 N 
ATOM     12  C   UNL     1      -0.837  10.481  22.629  0.00  0.00    +0.000 A 
ATOM     13  N   UNL     1      -0.053   9.468  22.994  0.00  0.00    +0.000 NA
ATOM     14  C   UNL     1       0.686   8.949  21.971  0.00  0.00    +0.000 A 
ATOM     15  C   UNL     1       0.663   9.382  20.623  0.00  0.00    +0.000 A 
ATOM     16  C   UNL     1      -0.193  10.459  20.324  0.00  0.00    +0.000 A 
ATOM     17  C   UNL     1      -0.928  11.003  21.351  0.00  0.00    +0.000 A 
ATOM     18  H   UNL     1      -1.848  11.046  24.418  0.00  0.00    +0.000 HD
ENDBRANCH   1  15
BRANCH   5  19
ATOM     19  C   UNL     1       3.526   5.565  19.076  0.00  0.00    +0.000 C 
ATOM     20  O   UNL     1       4.625   5.550  19.630  0.00  0.00    +0.000 OA
ATOM     21  N   UNL     1       2.875   4.384  18.704  0.00  0.00    +0.000 N 
ATOM     22  C   UNL     1       1.681   4.211  17.865  0.00  0.00    +0.000 C 
ATOM     23  C   UNL     1       0.628   3.425  18.654  0.00  0.00    +0.000 C 
ATOM     24  O   UNL     1       1.151   2.156  19.077  0.00  0.00    +0.000 OA
ATOM     25  C   UNL     1       2.356   2.274  19.883  0.00  0.00    +0.000 C 
ATOM     26  C   UNL     1       3.427   3.102  19.156  0.00  0.00    +0.000 C 
BRANCH  25  27
ATOM     27  C   UNL     1       2.129   2.758  21.328  0.00  0.00    +0.000 C 
ATOM     28  F   UNL     1       0.906   2.410  21.794  0.00  0.00    +0.000 F 
ATOM     29  F   UNL     1       3.040   2.199  22.162  0.00  0.00    +0.000 F 
ATOM     30  F   UNL     1       2.231   4.096  21.466  0.00  0.00    +0.000 F 
ENDBRANCH  25  27
ENDBRANCH   5  19
TORSDOF 3
ENDMDL
MODEL 3
REMARK VINA RESULT:      -8.8      0.848      1.128
REMARK  Name = 
REMARK  4 active torsions:
REMARK  status: ('A' for Active; 'I' for Inactive)
REMARK    1  A    between atoms: C_1  and  N_2
REMARK    2  A    between atoms: C_9  and  C_10
REMARK    3  A    between atoms: C_14  and  C_15
REMARK    4  A    between atoms: C_21  and  C_22
REMARK                            x       y       z     vdW  Elec       q    Type
REMARK                         _______ _______ _______ _____ _____    ______ ____
ROOT
ATOM      1  C   UNL     1       2.206   6.359  19.934  0.00  0.00    +0.000 A 
ATOM      2  C   UNL     1       1.469   5.461  20.719  0.00  0.00    +0.000 A 
ATOM      3  C   UNL     1       1.880   4.131  20.873  0.00  0.00    +0.000 A 
ATOM      4  C   UNL     1       3.074   3.690  20.299  0.00  0.00    +0.000 A 
ATOM      5  C   UNL     1       3.862   4.578  19.566  0.00  0.00    +0.000 A 
ATOM      6  C   UNL     1       3.377   5.863  19.325  0.00  0.00    +0.000 A 
ENDROOT
BRANCH   1  15
ATOM      7  C   UNL     1      -0.432  10.448  22.603  0.00  0.00    +0.000 C 
ATOM      8  N   UNL     1       0.061  10.693  21.279  0.00  0.00    +0.000 N 
ATOM      9  C   UNL     1      -0.055  11.888  20.542  0.00  0.00    +0.000 A 
ATOM     10  O   UNL     1      -0.582  12.928  20.896  0.00  0.00    +0.000 OA
ATOM     11  N   UNL     1       0.554  11.654  19.303  0.00  0.00    +0.000 N 
ATOM     12  C   UNL     1       1.043  10.357  19.271  0.00  0.00    +0.000 A 
ATOM     13  N   UNL     1       1.675   9.760  18.261  0.00  0.00    +0.000 NA
ATOM     14  C   UNL     1       2.035   8.471  18.524  0.00  0.00    +0.000 A 
ATOM     15  C   UNL     1       1.806   7.771  19.734  0.00  0.00    +0.000 A 
ATOM     16  C   UNL     1       1.131   8.476  20.748  0.00  0.00    +0.000 A 
ATOM     17  C   UNL     1       0.746   9.770  20.488  0.00  0.00    +0.000 A 
ATOM     18  H   UNL     1       0.638  12.324  18.560  0.00  0.00    +0.000 HD
ENDBRANCH   1  15
BRANCH   5  19
ATOM     19  C   UNL     1       5.152   4.109  18.988  0.00  0.00    +0.000 C 
ATOM     20  O   UNL     1       5.446   2.926  19.161  0.00  0.00    +0.000 OA
ATOM     21  N   UNL     1       5.984   4.976  18.273  0.00  0.00    +0.000 N 
ATOM     22  C   UNL     1       5.903   6.438  18.144  0.00  0.00    +0.000 C 
ATOM     23  C   UNL     1       5.832   6.803  16.657  0.00  0.00    +0.000 C 
ATOM     24  O   UNL     1       6.969   6.283  15.949  0.00  0.00    +0.000 OA
ATOM     25  C   UNL     1       7.111   4.840  16.077  0.00  0.00    +0.000 C 
ATOM     26  C   UNL     1       7.134   4.417  17.555  0.00  0.00    +0.000 C 
BRANCH  25  27
ATOM     27  C   UNL     1       6.111   4.011  15.250  0.00  0.00    +0.000 C 
ATOM     28  F   UNL     1       4.971   4.696  14.997  0.00  0.00    +0.000 F 
ATOM     29  F   UNL     1       6.647   3.683  14.050  0.00  0.00    +0.000 F 
ATOM     30  F   UNL     1       5.746   2.859  15.851  0.00  0.00    +0.000 F 
ENDBRANCH  25  27
ENDBRANCH   5  19
TORSDOF 3
ENDMDL
MODEL 4
REMARK VINA RESULT:      -8.7      2.803      4.227
REMARK  Name = 
REMARK  4 active torsions:
REMARK  status: ('A' for Active; 'I' for Inactive)
REMARK    1  A    between atoms: C_1  and  N_2
REMARK    2  A    between atoms: C_9  and  C_10
REMARK    3  A    between atoms: C_14  and  C_15
REMARK    4  A    between atoms: C_21  and  C_22
REMARK                            x       y       z     vdW  Elec       q    Type
REMARK                         _______ _______ _______ _____ _____    ______ ____
ROOT
ATOM      1  C   UNL     1       0.950   9.253  20.041  0.00  0.00    +0.000 A 
ATOM      2  C   UNL     1       1.200   9.674  18.727  0.00  0.00    +0.000 A 
ATOM      3  C   UNL     1       1.987   8.906  17.860  0.00  0.00    +0.000 A 
ATOM      4  C   UNL     1       2.482   7.666  18.267  0.00  0.00    +0.000 A 
ATOM      5  C   UNL     1       2.194   7.190  19.547  0.00  0.00    +0.000 A 
ATOM      6  C   UNL     1       1.512   8.021  20.435  0.00  0.00    +0.000 A 
ENDROOT
BRANCH   1  15
ATOM      7  C   UNL     1      -2.941  13.210  20.064  0.00  0.00    +0.000 C 
ATOM      8  N   UNL     1      -2.470  12.699  21.317  0.00  0.00    +0.000 N 
ATOM      9  C   UNL     1      -2.883  13.100  22.602  0.00  0.00    +0.000 A 
ATOM     10  O   UNL     1      -3.719  13.941  22.883  0.00  0.00    +0.000 OA
ATOM     11  N   UNL     1      -2.138  12.343  23.515  0.00  0.00    +0.000 N 
ATOM     12  C   UNL     1      -1.294  11.490  22.823  0.00  0.00    +0.000 A 
ATOM     13  N   UNL     1      -0.424  10.623  23.340  0.00  0.00    +0.000 NA
ATOM     14  C   UNL     1       0.275   9.920  22.402  0.00  0.00    +0.000 A 
ATOM     15  C   UNL     1       0.133  10.035  20.997  0.00  0.00    +0.000 A 
ATOM     16  C   UNL     1      -0.807  10.975  20.537  0.00  0.00    +0.000 A 
ATOM     17  C   UNL     1      -1.503  11.704  21.472  0.00  0.00    +0.000 A 
ATOM     18  H   UNL     1      -2.215  12.398  24.515  0.00  0.00    +0.000 HD
ENDBRANCH   1  15
BRANCH   5  19
ATOM     19  C   UNL     1       2.696   5.849  19.961  0.00  0.00    +0.000 C 
ATOM     20  O   UNL     1       2.186   5.344  20.961  0.00  0.00    +0.000 OA
ATOM     21  N   UNL     1       3.695   5.194  19.235  0.00  0.00    +0.000 N 
ATOM     22  C   UNL     1       4.550   5.715  18.159  0.00  0.00    +0.000 C 
ATOM     23  C   UNL     1       4.387   4.828  16.920  0.00  0.00    +0.000 C 
ATOM     24  O   UNL     1       4.715   3.462  17.224  0.00  0.00    +0.000 OA
ATOM     25  C   UNL     1       3.917   2.912  18.309  0.00  0.00    +0.000 C 
ATOM     26  C   UNL     1       4.004   3.798  19.563  0.00  0.00    +0.000 C 
BRANCH  25  27
ATOM     27  C   UNL     1       2.461   2.569  17.939  0.00  0.00    +0.000 C 
ATOM     28  F   UNL     1       2.392   1.680  16.921  0.00  0.00    +0.000 F 
ATOM     29  F   UNL     1       1.825   2.006  18.995  0.00  0.00    +0.000 F 
ATOM     30  F   UNL     1       1.737   3.644  17.566  0.00  0.00    +0.000 F 
ENDBRANCH  25  27
ENDBRANCH   5  19
TORSDOF 3
ENDMDL
MODEL 5
REMARK VINA RESULT:      -8.6      2.745      4.289
REMARK  Name = 
REMARK  4 active torsions:
REMARK  status: ('A' for Active; 'I' for Inactive)
REMARK    1  A    between atoms: C_1  and  N_2
REMARK    2  A    between atoms: C_9  and  C_10
REMARK    3  A    between atoms: C_14  and  C_15
REMARK    4  A    between atoms: C_21  and  C_22
REMARK                            x       y       z     vdW  Elec       q    Type
REMARK                         _______ _______ _______ _____ _____    ______ ____
ROOT
ATOM      1  C   UNL     1       1.041   9.468  19.941  0.00  0.00    +0.000 A 
ATOM      2  C   UNL     1       1.253   9.777  18.589  0.00  0.00    +0.000 A 
ATOM      3  C   UNL     1       1.926   8.887  17.742  0.00  0.00    +0.000 A 
ATOM      4  C   UNL     1       2.339   7.640  18.213  0.00  0.00    +0.000 A 
ATOM      5  C   UNL     1       2.084   7.277  19.536  0.00  0.00    +0.000 A 
ATOM      6  C   UNL     1       1.522   8.222  20.394  0.00  0.00    +0.000 A 
ENDROOT
BRANCH   1  15
ATOM      7  C   UNL     1      -1.047  14.607  20.103  0.00  0.00    +0.000 C 
ATOM      8  N   UNL     1      -1.123  13.795  21.281  0.00  0.00    +0.000 N 
ATOM      9  C   UNL     1      -1.677  14.158  22.524  0.00  0.00    +0.000 A 
ATOM     10  O   UNL     1      -2.198  15.218  22.821  0.00  0.00    +0.000 OA
ATOM     11  N   UNL     1      -1.509  13.057  23.373  0.00  0.00    +0.000 N 
ATOM     12  C   UNL     1      -0.879  12.035  22.679  0.00  0.00    +0.000 A 
ATOM     13  N   UNL     1      -0.539  10.835  23.148  0.00  0.00    +0.000 NA
ATOM     14  C   UNL     1       0.075  10.039  22.225  0.00  0.00    +0.000 A 
ATOM     15  C   UNL     1       0.345  10.381  20.877  0.00  0.00    +0.000 A 
ATOM     16  C   UNL     1      -0.048  11.668  20.466  0.00  0.00    +0.000 A 
ATOM     17  C   UNL     1      -0.650  12.486  21.392  0.00  0.00    +0.000 A 
ATOM     18  H   UNL     1      -1.811  13.008  24.330  0.00  0.00    +0.000 HD
ENDBRANCH   1  15
BRANCH   5  19
ATOM     19  C   UNL     1       2.496   5.930  20.020  0.00  0.00    +0.000 C 
ATOM     20  O   UNL     1       1.880   5.467  20.981  0.00  0.00    +0.000 OA
ATOM     21  N   UNL     1       3.530   5.223  19.401  0.00  0.00    +0.000 N 
ATOM     22  C   UNL     1       4.498   5.689  18.397  0.00  0.00    +0.000 C 
ATOM     23  C   UNL     1       4.414   4.779  17.166  0.00  0.00    +0.000 C 
ATOM     24  O   UNL     1       4.662   3.410  17.527  0.00  0.00    +0.000 OA
ATOM     25  C   UNL     1       3.749   2.914  18.546  0.00  0.00    +0.000 C 
ATOM     26  C   UNL     1       3.756   3.825  19.784  0.00  0.00    +0.000 C 
BRANCH  25  27
ATOM     27  C   UNL     1       2.321   2.614  18.052  0.00  0.00    +0.000 C 
ATOM     28  F   UNL     1       1.670   3.739  17.670  0.00  0.00    +0.000 F 
ATOM     29  F   UNL     1       2.356   1.796  16.973  0.00  0.00    +0.000 F 
ATOM     30  F   UNL     1       1.548   2.015  18.982  0.00  0.00    +0.000 F 
ENDBRANCH  25  27
ENDBRANCH   5  19
TORSDOF 3
ENDMDL
MODEL 6
REMARK VINA RESULT:      -8.5      1.234      1.413
REMARK  Name = 
REMARK  4 active torsions:
REMARK  status: ('A' for Active; 'I' for Inactive)
REMARK    1  A    between atoms: C_1  and  N_2
REMARK    2  A    between atoms: C_9  and  C_10
REMARK    3  A    between atoms: C_14  and  C_15
REMARK    4  A    between atoms: C_21  and  C_22
REMARK                            x       y       z     vdW  Elec       q    Type
REMARK                         _______ _______ _______ _____ _____    ______ ____
ROOT
ATOM      1  C   UNL     1       2.035   6.671  20.140  0.00  0.00    +0.000 A 
ATOM      2  C   UNL     1       1.387   5.666  20.875  0.00  0.00    +0.000 A 
ATOM      3  C   UNL     1       1.884   4.357  20.901  0.00  0.00    +0.000 A 
ATOM      4  C   UNL     1       3.077   4.041  20.249  0.00  0.00    +0.000 A 
ATOM      5  C   UNL     1       3.778   5.034  19.564  0.00  0.00    +0.000 A 
ATOM      6  C   UNL     1       3.207   6.301  19.449  0.00  0.00    +0.000 A 
ENDROOT
BRANCH   1  15
ATOM      7  C   UNL     1      -0.851  10.308  23.181  0.00  0.00    +0.000 C 
ATOM      8  N   UNL     1      -0.383  10.709  21.887  0.00  0.00    +0.000 N 
ATOM      9  C   UNL     1      -0.580  11.957  21.266  0.00  0.00    +0.000 A 
ATOM     10  O   UNL     1      -1.172  12.923  21.715  0.00  0.00    +0.000 OA
ATOM     11  N   UNL     1       0.036  11.881  20.010  0.00  0.00    +0.000 N 
ATOM     12  C   UNL     1       0.608  10.628  19.856  0.00  0.00    +0.000 A 
ATOM     13  N   UNL     1       1.273  10.171  18.795  0.00  0.00    +0.000 NA
ATOM     14  C   UNL     1       1.718   8.889  18.936  0.00  0.00    +0.000 A 
ATOM     15  C   UNL     1       1.542   8.066  20.074  0.00  0.00    +0.000 A 
ATOM     16  C   UNL     1       0.828   8.626  21.150  0.00  0.00    +0.000 A 
ATOM     17  C   UNL     1       0.357   9.911  21.012  0.00  0.00    +0.000 A 
ATOM     18  H   UNL     1       0.071  12.622  19.334  0.00  0.00    +0.000 HD
ENDBRANCH   1  15
BRANCH   5  19
ATOM     19  C   UNL     1       5.069   4.697  18.902  0.00  0.00    +0.000 C 
ATOM     20  O   UNL     1       5.621   3.653  19.250  0.00  0.00    +0.000 OA
ATOM     21  N   UNL     1       5.619   5.528  17.921  0.00  0.00    +0.000 N 
ATOM     22  C   UNL     1       5.221   6.888  17.531  0.00  0.00    +0.000 C 
ATOM     23  C   UNL     1       4.916   6.905  16.029  0.00  0.00    +0.000 C 
ATOM     24  O   UNL     1       6.055   6.463  15.273  0.00  0.00    +0.000 OA
ATOM     25  C   UNL     1       6.509   5.133  15.649  0.00  0.00    +0.000 C 
ATOM     26  C   UNL     1       6.778   5.048  17.160  0.00  0.00    +0.000 C 
BRANCH  25  27
ATOM     27  C   UNL     1       5.623   3.976  15.150  0.00  0.00    +0.000 C 
ATOM     28  F   UNL     1       6.168   2.766  15.420  0.00  0.00    +0.000 F 
ATOM     29  F   UNL     1       4.416   4.007  15.766  0.00  0.00    +0.000 F 
ATOM     30  F   UNL     1       5.393   4.011  13.821  0.00  0.00    +0.000 F 
ENDBRANCH  25  27
ENDBRANCH   5  19
TORSDOF 3
ENDMDL
MODEL 7
REMARK VINA RESULT:      -8.4      3.222      4.771
REMARK  Name = 
REMARK  4 active torsions:
REMARK  status: ('A' for Active; 'I' for Inactive)
REMARK    1  A    between atoms: C_1  and  N_2
REMARK    2  A    between atoms: C_9  and  C_10
REMARK    3  A    between atoms: C_14  and  C_15
REMARK    4  A    between atoms: C_21  and  C_22
REMARK                            x       y       z     vdW  Elec       q    Type
REMARK                         _______ _______ _______ _____ _____    ______ ____
ROOT
ATOM      1  C   UNL     1       2.998   7.732  18.106  0.00  0.00    +0.000 A 
ATOM      2  C   UNL     1       3.865   8.051  17.051  0.00  0.00    +0.000 A 
ATOM      3  C   UNL     1       4.847   7.148  16.624  0.00  0.00    +0.000 A 
ATOM      4  C   UNL     1       4.935   5.878  17.198  0.00  0.00    +0.000 A 
ATOM      5  C   UNL     1       4.043   5.508  18.206  0.00  0.00    +0.000 A 
ATOM      6  C   UNL     1       3.154   6.462  18.698  0.00  0.00    +0.000 A 
ENDROOT
BRANCH   1  15
ATOM      7  C   UNL     1       0.648   9.342  22.869  0.00  0.00    +0.000 C 
ATOM      8  N   UNL     1       0.179   9.913  21.641  0.00  0.00    +0.000 N 
ATOM      9  C   UNL     1      -0.849  10.864  21.489  0.00  0.00    +0.000 A 
ATOM     10  O   UNL     1      -1.518  11.378  22.368  0.00  0.00    +0.000 OA
ATOM     11  N   UNL     1      -0.968  11.108  20.115  0.00  0.00    +0.000 N 
ATOM     12  C   UNL     1      -0.036  10.342  19.431  0.00  0.00    +0.000 A 
ATOM     13  N   UNL     1       0.153  10.291  18.113  0.00  0.00    +0.000 NA
ATOM     14  C   UNL     1       1.147   9.437  17.733  0.00  0.00    +0.000 A 
ATOM     15  C   UNL     1       1.952   8.658  18.599  0.00  0.00    +0.000 A 
ATOM     16  C   UNL     1       1.685   8.772  19.976  0.00  0.00    +0.000 A 
ATOM     17  C   UNL     1       0.673   9.614  20.370  0.00  0.00    +0.000 A 
ATOM     18  H   UNL     1      -1.615  11.748  19.691  0.00  0.00    +0.000 HD
ENDBRANCH   1  15
BRANCH   5  19
ATOM     19  C   UNL     1       4.121   4.139  18.787  0.00  0.00    +0.000 C 
ATOM     20  O   UNL     1       5.132   3.861  19.434  0.00  0.00    +0.000 OA
ATOM     21  N   UNL     1       3.085   3.216  18.612  0.00  0.00    +0.000 N 
ATOM     22  C   UNL     1       1.921   3.293  17.718  0.00  0.00    +0.000 C 
ATOM     23  C   UNL     1       0.643   3.138  18.551  0.00  0.00    +0.000 C 
ATOM     24  O   UNL     1       0.656   1.900  19.279  0.00  0.00    +0.000 OA
ATOM     25  C   UNL     1       1.811   1.763  20.153  0.00  0.00    +0.000 C 
ATOM     26  C   UNL     1       3.120   1.963  19.373  0.00  0.00    +0.000 C 
BRANCH  25  27
ATOM     27  C   UNL     1       1.763   2.615  21.436  0.00  0.00    +0.000 C 
ATOM     28  F   UNL     1       0.858   2.142  22.326  0.00  0.00    +0.000 F 
ATOM     29  F   UNL     1       2.968   2.601  22.057  0.00  0.00    +0.000 F 
ATOM     30  F   UNL     1       1.447   3.906  21.209  0.00  0.00    +0.000 F 
ENDBRANCH  25  27
ENDBRANCH   5  19
TORSDOF 3
ENDMDL
MODEL 8
REMARK VINA RESULT:      -8.3      3.162      4.774
REMARK  Name = 
REMARK  4 active torsions:
REMARK  status: ('A' for Active; 'I' for Inactive)
REMARK    1  A    between atoms: C_1  and  N_2
REMARK    2  A    between atoms: C_9  and  C_10
REMARK    3  A    between atoms: C_14  and  C_15
REMARK    4  A    between atoms: C_21  and  C_22
REMARK                            x       y       z     vdW  Elec       q    Type
REMARK                         _______ _______ _______ _____ _____    ______ ____
ROOT
ATOM      1  C   UNL     1       3.398   7.578  17.827  0.00  0.00    +0.000 A 
ATOM      2  C   UNL     1       4.199   7.707  16.683  0.00  0.00    +0.000 A 
ATOM      3  C   UNL     1       5.019   6.655  16.253  0.00  0.00    +0.000 A 
ATOM      4  C   UNL     1       5.001   5.429  16.920  0.00  0.00    +0.000 A 
ATOM      5  C   UNL     1       4.165   5.249  18.022  0.00  0.00    +0.000 A 
ATOM      6  C   UNL     1       3.448   6.343  18.506  0.00  0.00    +0.000 A 
ENDROOT
BRANCH   1  15
ATOM      7  C   UNL     1      -0.297   8.553  21.852  0.00  0.00    +0.000 C 
ATOM      8  N   UNL     1      -0.011   9.595  20.910  0.00  0.00    +0.000 N 
ATOM      9  C   UNL     1      -0.581  10.883  20.876  0.00  0.00    +0.000 A 
ATOM     10  O   UNL     1      -1.409  11.347  21.641  0.00  0.00    +0.000 OA
ATOM     11  N   UNL     1      -0.016  11.541  19.777  0.00  0.00    +0.000 N 
ATOM     12  C   UNL     1       0.886  10.695  19.150  0.00  0.00    +0.000 A 
ATOM     13  N   UNL     1       1.615  10.956  18.066  0.00  0.00    +0.000 NA
ATOM     14  C   UNL     1       2.414   9.920  17.679  0.00  0.00    +0.000 A 
ATOM     15  C   UNL     1       2.523   8.665  18.325  0.00  0.00    +0.000 A 
ATOM     16  C   UNL     1       1.718   8.473  19.464  0.00  0.00    +0.000 A 
ATOM     17  C   UNL     1       0.894   9.503  19.852  0.00  0.00    +0.000 A 
ATOM     18  H   UNL     1      -0.219  12.483  19.495  0.00  0.00    +0.000 HD
ENDBRANCH   1  15
BRANCH   5  19
ATOM     19  C   UNL     1       4.125   3.926  18.705  0.00  0.00    +0.000 C 
ATOM     20  O   UNL     1       5.097   3.623  19.397  0.00  0.00    +0.000 OA
ATOM     21  N   UNL     1       3.025   3.074  18.571  0.00  0.00    +0.000 N 
ATOM     22  C   UNL     1       1.888   3.170  17.644  0.00  0.00    +0.000 C 
ATOM     23  C   UNL     1       0.586   3.176  18.452  0.00  0.00    +0.000 C 
ATOM     24  O   UNL     1       0.488   1.998  19.269  0.00  0.00    +0.000 OA
ATOM     25  C   UNL     1       1.611   1.841  20.181  0.00  0.00    +0.000 C 
ATOM     26  C   UNL     1       2.947   1.882  19.423  0.00  0.00    +0.000 C 
BRANCH  25  27
ATOM     27  C   UNL     1       1.602   2.788  21.396  0.00  0.00    +0.000 C 
ATOM     28  F   UNL     1       2.838   2.941  21.929  0.00  0.00    +0.000 F 
ATOM     29  F   UNL     1       1.178   4.022  21.030  0.00  0.00    +0.000 F 
ATOM     30  F   UNL     1       0.797   2.371  22.395  0.00  0.00    +0.000 F 
ENDBRANCH  25  27
ENDBRANCH   5  19
TORSDOF 3
ENDMDL
MODEL 9
REMARK VINA RESULT:      -8.3      2.835      4.255
REMARK  Name = 
REMARK  4 active torsions:
REMARK  status: ('A' for Active; 'I' for Inactive)
REMARK    1  A    between atoms: C_1  and  N_2
REMARK    2  A    between atoms: C_9  and  C_10
REMARK    3  A    between atoms: C_14  and  C_15
REMARK    4  A    between atoms: C_21  and  C_22
REMARK                            x       y       z     vdW  Elec       q    Type
REMARK                         _______ _______ _______ _____ _____    ______ ____
ROOT
ATOM      1  C   UNL     1       1.225   9.453  19.375  0.00  0.00    +0.000 A 
ATOM      2  C   UNL     1       1.825   9.580  18.114  0.00  0.00    +0.000 A 
ATOM      3  C   UNL     1       2.573   8.532  17.561  0.00  0.00    +0.000 A 
ATOM      4  C   UNL     1       2.678   7.311  18.228  0.00  0.00    +0.000 A 
ATOM      5  C   UNL     1       2.037   7.133  19.455  0.00  0.00    +0.000 A 
ATOM      6  C   UNL     1       1.399   8.224  20.044  0.00  0.00    +0.000 A 
ENDROOT
BRANCH   1  15
ATOM      7  C   UNL     1      -3.729  11.912  18.921  0.00  0.00    +0.000 C 
ATOM      8  N   UNL     1      -2.813  12.386  19.915  0.00  0.00    +0.000 N 
ATOM      9  C   UNL     1      -3.021  13.445  20.821  0.00  0.00    +0.000 A 
ATOM     10  O   UNL     1      -4.014  14.141  20.930  0.00  0.00    +0.000 OA
ATOM     11  N   UNL     1      -1.850  13.556  21.581  0.00  0.00    +0.000 N 
ATOM     12  C   UNL     1      -0.944  12.590  21.171  0.00  0.00    +0.000 A 
ATOM     13  N   UNL     1       0.284  12.384  21.647  0.00  0.00    +0.000 NA
ATOM     14  C   UNL     1       0.944  11.357  21.039  0.00  0.00    +0.000 A 
ATOM     15  C   UNL     1       0.434  10.535  20.004  0.00  0.00    +0.000 A 
ATOM     16  C   UNL     1      -0.871  10.822  19.561  0.00  0.00    +0.000 A 
ATOM     17  C   UNL     1      -1.538  11.867  20.153  0.00  0.00    +0.000 A 
ATOM     18  H   UNL     1      -1.696  14.220  22.319  0.00  0.00    +0.000 HD
ENDBRANCH   1  15
BRANCH   5  19
ATOM     19  C   UNL     1       2.125   5.814  20.144  0.00  0.00    +0.000 C 
ATOM     20  O   UNL     1       1.167   5.482  20.842  0.00  0.00    +0.000 OA
ATOM     21  N   UNL     1       3.243   4.990  19.991  0.00  0.00    +0.000 N 
ATOM     22  C   UNL     1       4.543   5.299  19.378  0.00  0.00    +0.000 C 
ATOM     23  C   UNL     1       4.822   4.284  18.264  0.00  0.00    +0.000 C 
ATOM     24  O   UNL     1       4.800   2.943  18.779  0.00  0.00    +0.000 OA
ATOM     25  C   UNL     1       3.542   2.601  19.427  0.00  0.00    +0.000 C 
ATOM     26  C   UNL     1       3.189   3.623  20.520  0.00  0.00    +0.000 C 
BRANCH  25  27
ATOM     27  C   UNL     1       2.363   2.345  18.469  0.00  0.00    +0.000 C 
ATOM     28  F   UNL     1       2.729   1.593  17.404  0.00  0.00    +0.000 F 
ATOM     29  F   UNL     1       1.376   1.668  19.105  0.00  0.00    +0.000 F 
ATOM     30  F   UNL     1       1.818   3.476  17.977  0.00  0.00    +0.000 F 
ENDBRANCH  25  27
ENDBRANCH   5  19
TORSDOF 3
ENDMDL
