MODEL 1
REMARK VINA RESULT:      -9.1      0.000      0.000
REMARK  Name = 
REMARK  4 active torsions:
REMARK  status: ('A' for Active; 'I' for Inactive)
REMARK    1  A    between atoms: C_7  and  S_8
REMARK    2  A    between atoms: S_8  and  N_11
REMARK    3  A    between atoms: N_11  and  C_12
REMARK    4  A    between atoms: C_14  and  C_15
REMARK                            x       y       z     vdW  Elec       q    Type
REMARK                         _______ _______ _______ _____ _____    ______ ____
ROOT
ATOM      1  S   UNL     1       6.874   5.769  18.536  0.00  0.00    +0.000 S 
ATOM      2  O   UNL     1       7.134   7.092  18.011  0.00  0.00    +0.000 OA
ATOM      3  O   UNL     1       7.169   5.458  19.919  0.00  0.00    +0.000 OA
ENDROOT
BRANCH   1  10
ATOM      4  O   UNL     1       0.104   2.540  18.584  0.00  0.00    +0.000 OA
ATOM      5  C   UNL     1       1.113   3.222  18.495  0.00  0.00    +0.000 C 
ATOM      6  N   UNL     1       1.162   4.513  17.950  0.00  0.00    +0.000 N 
ATOM      7  C   UNL     1       2.439   5.044  17.975  0.00  0.00    +0.000 A 
ATOM      8  C   UNL     1       2.920   6.266  17.544  0.00  0.00    +0.000 A 
ATOM      9  C   UNL     1       4.304   6.477  17.721  0.00  0.00    +0.000 A 
ATOM     10  C   UNL     1       5.132   5.489  18.315  0.00  0.00    +0.000 A 
ATOM     11  C   UNL     1       4.600   4.241  18.753  0.00  0.00    +0.000 A 
ATOM     12  C   UNL     1       5.222   3.121  19.367  0.00  0.00    +0.000 A 
ATOM     13  C   UNL     1       4.477   1.974  19.710  0.00  0.00    +0.000 A 
ATOM     14  C   UNL     1       3.096   1.885  19.467  0.00  0.00    +0.000 A 
ATOM     15  C   UNL     1       2.494   2.988  18.871  0.00  0.00    +0.000 A 
ATOM     16  C   UNL     1       3.259   4.099  18.546  0.00  0.00    +0.000 A 
ATOM     17  H   UNL     1       0.332   4.961  17.589  0.00  0.00    +0.000 HD
ENDBRANCH   1  10
BRANCH   1  18
ATOM     18  N   UNL     1       7.632   4.713  17.530  0.00  0.00    +0.000 N 
ATOM     19  H   UNL     1       7.678   3.801  17.962  0.00  0.00    +0.000 HD
BRANCH  18  20
ATOM     20  C   UNL     1       7.349   4.746  16.175  0.00  0.00    +0.000 A 
ATOM     21  C   UNL     1       6.709   3.768  15.461  0.00  0.00    +0.000 A 
ATOM     22  C   UNL     1       6.623   4.268  14.128  0.00  0.00    +0.000 A 
ATOM     23  N   UNL     1       7.193   5.484  14.046  0.00  0.00    +0.000 NA
ATOM     24  N   UNL     1       7.644   5.738  15.283  0.00  0.00    +0.000 N 
ATOM     25  H   UNL     1       8.154   6.602  15.432  0.00  0.00    +0.000 HD
BRANCH  22  26
ATOM     26  C   UNL     1       5.974   3.630  12.980  0.00  0.00    +0.000 A 
ATOM     27  C   UNL     1       4.692   4.026  12.573  0.00  0.00    +0.000 A 
ATOM     28  C   UNL     1       4.037   3.358  11.534  0.00  0.00    +0.000 A 
ATOM     29  C   UNL     1       4.661   2.295  10.886  0.00  0.00    +0.000 A 
ATOM     30  C   UNL     1       5.948   1.912  11.259  0.00  0.00    +0.000 A 
ATOM     31  C   UNL     1       6.603   2.579  12.296  0.00  0.00    +0.000 A 
ENDBRANCH  22  26
ENDBRANCH  18  20
ENDBRANCH   1  18
TORSDOF 4
ENDMDL
MODEL 2
REMARK VINA RESULT:      -8.4      3.678      5.814
REMARK  Name = 
REMARK  4 active torsions:
REMARK  status: ('A' for Active; 'I' for Inactive)
REMARK    1  A    between atoms: C_7  and  S_8
REMARK    2  A    between atoms: S_8  and  N_11
REMARK    3  A    between atoms: N_11  and  C_12
REMARK    4  A    between atoms: C_14  and  C_15
REMARK                            x       y       z     vdW  Elec       q    Type
REMARK                         _______ _______ _______ _____ _____    ______ ____
ROOT
ATOM      1  S   UNL     1       5.259   5.661  15.795  0.00  0.00    +0.000 S 
ATOM      2  O   UNL     1       4.897   4.519  14.984  0.00  0.00    +0.000 OA
ATOM      3  O   UNL     1       5.170   7.001  15.254  0.00  0.00    +0.000 OA
ENDROOT
BRANCH   1  10
ATOM      4  O   UNL     1       0.992   3.162  21.435  0.00  0.00    +0.000 OA
ATOM      5  C   UNL     1       1.639   3.750  20.583  0.00  0.00    +0.000 C 
ATOM      6  N   UNL     1       1.718   5.145  20.458  0.00  0.00    +0.000 N 
ATOM      7  C   UNL     1       2.521   5.531  19.400  0.00  0.00    +0.000 A 
ATOM      8  C   UNL     1       2.861   6.787  18.933  0.00  0.00    +0.000 A 
ATOM      9  C   UNL     1       3.711   6.813  17.807  0.00  0.00    +0.000 A 
ATOM     10  C   UNL     1       4.185   5.615  17.211  0.00  0.00    +0.000 A 
ATOM     11  C   UNL     1       3.817   4.337  17.724  0.00  0.00    +0.000 A 
ATOM     12  C   UNL     1       4.163   3.025  17.303  0.00  0.00    +0.000 A 
ATOM     13  C   UNL     1       3.661   1.890  17.975  0.00  0.00    +0.000 A 
ATOM     14  C   UNL     1       2.806   2.002  19.084  0.00  0.00    +0.000 A 
ATOM     15  C   UNL     1       2.478   3.290  19.493  0.00  0.00    +0.000 A 
ATOM     16  C   UNL     1       2.989   4.383  18.806  0.00  0.00    +0.000 A 
ATOM     17  H   UNL     1       1.225   5.757  21.092  0.00  0.00    +0.000 HD
ENDBRANCH   1  10
BRANCH   1  18
ATOM     18  N   UNL     1       6.771   5.365  16.366  0.00  0.00    +0.000 N 
ATOM     19  H   UNL     1       7.352   4.999  15.625  0.00  0.00    +0.000 HD
BRANCH  18  20
ATOM     20  C   UNL     1       7.360   6.274  17.228  0.00  0.00    +0.000 A 
ATOM     21  C   UNL     1       7.577   7.602  16.974  0.00  0.00    +0.000 A 
ATOM     22  C   UNL     1       8.171   8.122  18.162  0.00  0.00    +0.000 A 
ATOM     23  N   UNL     1       8.314   7.149  19.079  0.00  0.00    +0.000 NA
ATOM     24  N   UNL     1       7.842   6.043  18.486  0.00  0.00    +0.000 N 
ATOM     25  H   UNL     1       7.898   5.170  19.000  0.00  0.00    +0.000 HD
BRANCH  22  26
ATOM     26  C   UNL     1       8.548   9.511  18.432  0.00  0.00    +0.000 A 
ATOM     27  C   UNL     1       8.196  10.533  17.538  0.00  0.00    +0.000 A 
ATOM     28  C   UNL     1       8.630  11.845  17.749  0.00  0.00    +0.000 A 
ATOM     29  C   UNL     1       9.412  12.150  18.861  0.00  0.00    +0.000 A 
ATOM     30  C   UNL     1       9.742  11.151  19.775  0.00  0.00    +0.000 A 
ATOM     31  C   UNL     1       9.307   9.840  19.564  0.00  0.00    +0.000 A 
ENDBRANCH  22  26
ENDBRANCH  18  20
ENDBRANCH   1  18
TORSDOF 4
ENDMDL
MODEL 3
REMARK VINA RESULT:      -8.3      7.070      9.072
REMARK  Name = 
REMARK  4 active torsions:
REMARK  status: ('A' for Active; 'I' for Inactive)
REMARK    1  A    between atoms: C_7  and  S_8
REMARK    2  A    between atoms: S_8  and  N_11
REMARK    3  A    between atoms: N_11  and  C_12
REMARK    4  A    between atoms: C_14  and  C_15
REMARK                            x       y       z     vdW  Elec       q    Type
REMARK                         _______ _______ _______ _____ _____    ______ ____
ROOT
ATOM      1  S   UNL     1      -0.064  10.948  19.416  0.00  0.00    +0.000 S 
ATOM      2  O   UNL     1       0.255  12.332  19.694  0.00  0.00    +0.000 OA
ATOM      3  O   UNL     1      -0.235  10.004  20.499  0.00  0.00    +0.000 OA
ENDROOT
BRANCH   1  10
ATOM      4  O   UNL     1      -7.175  12.337  17.476  0.00  0.00    +0.000 OA
ATOM      5  C   UNL     1      -6.007  12.012  17.620  0.00  0.00    +0.000 C 
ATOM      6  N   UNL     1      -5.279  11.223  16.717  0.00  0.00    +0.000 N 
ATOM      7  C   UNL     1      -3.979  11.010  17.139  0.00  0.00    +0.000 A 
ATOM      8  C   UNL     1      -2.944  10.300  16.560  0.00  0.00    +0.000 A 
ATOM      9  C   UNL     1      -1.731  10.286  17.282  0.00  0.00    +0.000 A 
ATOM     10  C   UNL     1      -1.599  10.971  18.518  0.00  0.00    +0.000 A 
ATOM     11  C   UNL     1      -2.688  11.697  19.083  0.00  0.00    +0.000 A 
ATOM     12  C   UNL     1      -2.789  12.449  20.284  0.00  0.00    +0.000 A 
ATOM     13  C   UNL     1      -3.995  13.085  20.644  0.00  0.00    +0.000 A 
ATOM     14  C   UNL     1      -5.142  13.012  19.837  0.00  0.00    +0.000 A 
ATOM     15  C   UNL     1      -5.033  12.279  18.660  0.00  0.00    +0.000 A 
ATOM     16  C   UNL     1      -3.830  11.664  18.340  0.00  0.00    +0.000 A 
ATOM     17  H   UNL     1      -5.700  10.871  15.870  0.00  0.00    +0.000 HD
ENDBRANCH   1  10
BRANCH   1  18
ATOM     18  N   UNL     1       1.072  10.415  18.354  0.00  0.00    +0.000 N 
ATOM     19  H   UNL     1       1.700  11.170  18.117  0.00  0.00    +0.000 HD
BRANCH  18  20
ATOM     20  C   UNL     1       1.639   9.166  18.539  0.00  0.00    +0.000 A 
ATOM     21  C   UNL     1       2.261   8.413  17.579  0.00  0.00    +0.000 A 
ATOM     22  C   UNL     1       2.706   7.237  18.251  0.00  0.00    +0.000 A 
ATOM     23  N   UNL     1       2.358   7.278  19.549  0.00  0.00    +0.000 NA
ATOM     24  N   UNL     1       1.697   8.436  19.692  0.00  0.00    +0.000 N 
ATOM     25  H   UNL     1       1.303   8.646  20.604  0.00  0.00    +0.000 HD
BRANCH  22  26
ATOM     26  C   UNL     1       3.481   6.130  17.685  0.00  0.00    +0.000 A 
ATOM     27  C   UNL     1       4.602   6.380  16.879  0.00  0.00    +0.000 A 
ATOM     28  C   UNL     1       5.288   5.328  16.267  0.00  0.00    +0.000 A 
ATOM     29  C   UNL     1       4.867   4.014  16.461  0.00  0.00    +0.000 A 
ATOM     30  C   UNL     1       3.775   3.748  17.284  0.00  0.00    +0.000 A 
ATOM     31  C   UNL     1       3.089   4.800  17.898  0.00  0.00    +0.000 A 
ENDBRANCH  22  26
ENDBRANCH  18  20
ENDBRANCH   1  18
TORSDOF 4
ENDMDL
MODEL 4
REMARK VINA RESULT:      -8.2      4.215      6.406
REMARK  Name = 
REMARK  4 active torsions:
REMARK  status: ('A' for Active; 'I' for Inactive)
REMARK    1  A    between atoms: C_7  and  S_8
REMARK    2  A    between atoms: S_8  and  N_11
REMARK    3  A    between atoms: N_11  and  C_12
REMARK    4  A    between atoms: C_14  and  C_15
REMARK                            x       y       z     vdW  Elec       q    Type
REMARK                         _______ _______ _______ _____ _____    ______ ____
ROOT
ATOM      1  S   UNL     1       5.790   5.757  16.489  0.00  0.00    +0.000 S 
ATOM      2  O   UNL     1       6.927   5.062  17.053  0.00  0.00    +0.000 OA
ATOM      3  O   UNL     1       5.235   5.343  15.217  0.00  0.00    +0.000 OA
ENDROOT
BRANCH   1  10
ATOM      4  O   UNL     1       0.563   2.851  21.016  0.00  0.00    +0.000 OA
ATOM      5  C   UNL     1       1.358   3.499  20.354  0.00  0.00    +0.000 C 
ATOM      6  N   UNL     1       1.476   4.897  20.388  0.00  0.00    +0.000 N 
ATOM      7  C   UNL     1       2.457   5.360  19.531  0.00  0.00    +0.000 A 
ATOM      8  C   UNL     1       2.891   6.644  19.260  0.00  0.00    +0.000 A 
ATOM      9  C   UNL     1       3.927   6.754  18.308  0.00  0.00    +0.000 A 
ATOM     10  C   UNL     1       4.482   5.605  17.685  0.00  0.00    +0.000 A 
ATOM     11  C   UNL     1       4.013   4.295  17.993  0.00  0.00    +0.000 A 
ATOM     12  C   UNL     1       4.410   3.020  17.508  0.00  0.00    +0.000 A 
ATOM     13  C   UNL     1       3.783   1.842  17.963  0.00  0.00    +0.000 A 
ATOM     14  C   UNL     1       2.748   1.871  18.912  0.00  0.00    +0.000 A 
ATOM     15  C   UNL     1       2.369   3.123  19.386  0.00  0.00    +0.000 A 
ATOM     16  C   UNL     1       3.008   4.261  18.913  0.00  0.00    +0.000 A 
ATOM     17  H   UNL     1       0.886   5.458  20.985  0.00  0.00    +0.000 HD
ENDBRANCH   1  10
BRANCH   1  18
ATOM     18  N   UNL     1       6.189   7.351  16.457  0.00  0.00    +0.000 N 
ATOM     19  H   UNL     1       5.355   7.911  16.359  0.00  0.00    +0.000 HD
BRANCH  18  20
ATOM     20  C   UNL     1       7.159   7.824  17.324  0.00  0.00    +0.000 A 
ATOM     21  C   UNL     1       7.617   9.113  17.396  0.00  0.00    +0.000 A 
ATOM     22  C   UNL     1       8.575   9.116  18.452  0.00  0.00    +0.000 A 
ATOM     23  N   UNL     1       8.694   7.884  18.980  0.00  0.00    +0.000 NA
ATOM     24  N   UNL     1       7.852   7.121  18.270  0.00  0.00    +0.000 N 
ATOM     25  H   UNL     1       7.819   6.129  18.482  0.00  0.00    +0.000 HD
BRANCH  22  26
ATOM     26  C   UNL     1       9.320  10.265  18.973  0.00  0.00    +0.000 A 
ATOM     27  C   UNL     1      10.129  11.035  18.125  0.00  0.00    +0.000 A 
ATOM     28  C   UNL     1      10.909  12.076  18.638  0.00  0.00    +0.000 A 
ATOM     29  C   UNL     1      10.878  12.364  20.001  0.00  0.00    +0.000 A 
ATOM     30  C   UNL     1      10.054  11.628  20.849  0.00  0.00    +0.000 A 
ATOM     31  C   UNL     1       9.274  10.587  20.337  0.00  0.00    +0.000 A 
ENDBRANCH  22  26
ENDBRANCH  18  20
ENDBRANCH   1  18
TORSDOF 4
ENDMDL
MODEL 5
REMARK VINA RESULT:      -7.9      4.347      6.617
REMARK  Name = 
REMARK  4 active torsions:
REMARK  status: ('A' for Active; 'I' for Inactive)
REMARK    1  A    between atoms: C_7  and  S_8
REMARK    2  A    between atoms: S_8  and  N_11
REMARK    3  A    between atoms: N_11  and  C_12
REMARK    4  A    between atoms: C_14  and  C_15
REMARK                            x       y       z     vdW  Elec       q    Type
REMARK                         _______ _______ _______ _____ _____    ______ ____
ROOT
ATOM      1  S   UNL     1       6.582   5.549  16.485  0.00  0.00    +0.000 S 
ATOM      2  O   UNL     1       7.620   4.719  15.912  0.00  0.00    +0.000 OA
ATOM      3  O   UNL     1       5.959   6.592  15.697  0.00  0.00    +0.000 OA
ENDROOT
BRANCH   1  10
ATOM      4  O   UNL     1       0.411   2.769  19.718  0.00  0.00    +0.000 OA
ATOM      5  C   UNL     1       1.433   3.041  19.109  0.00  0.00    +0.000 C 
ATOM      6  N   UNL     1       2.144   2.146  18.296  0.00  0.00    +0.000 N 
ATOM      7  C   UNL     1       3.266   2.727  17.734  0.00  0.00    +0.000 A 
ATOM      8  C   UNL     1       4.227   2.208  16.887  0.00  0.00    +0.000 A 
ATOM      9  C   UNL     1       5.256   3.096  16.509  0.00  0.00    +0.000 A 
ATOM     10  C   UNL     1       5.281   4.438  16.972  0.00  0.00    +0.000 A 
ATOM     11  C   UNL     1       4.270   4.941  17.841  0.00  0.00    +0.000 A 
ATOM     12  C   UNL     1       4.087   6.224  18.421  0.00  0.00    +0.000 A 
ATOM     13  C   UNL     1       2.994   6.489  19.272  0.00  0.00    +0.000 A 
ATOM     14  C   UNL     1       2.039   5.506  19.580  0.00  0.00    +0.000 A 
ATOM     15  C   UNL     1       2.222   4.254  19.004  0.00  0.00    +0.000 A 
ATOM     16  C   UNL     1       3.311   4.030  18.173  0.00  0.00    +0.000 A 
ATOM     17  H   UNL     1       1.833   1.194  18.168  0.00  0.00    +0.000 HD
ENDBRANCH   1  10
BRANCH   1  18
ATOM     18  N   UNL     1       7.196   6.163  17.880  0.00  0.00    +0.000 N 
ATOM     19  H   UNL     1       7.826   5.495  18.300  0.00  0.00    +0.000 HD
BRANCH  18  20
ATOM     20  C   UNL     1       7.577   7.493  17.925  0.00  0.00    +0.000 A 
ATOM     21  C   UNL     1       8.540   8.028  18.739  0.00  0.00    +0.000 A 
ATOM     22  C   UNL     1       8.595   9.412  18.400  0.00  0.00    +0.000 A 
ATOM     23  N   UNL     1       7.700   9.695  17.437  0.00  0.00    +0.000 NA
ATOM     24  N   UNL     1       7.084   8.531  17.186  0.00  0.00    +0.000 N 
ATOM     25  H   UNL     1       6.328   8.532  16.509  0.00  0.00    +0.000 HD
BRANCH  22  26
ATOM     26  C   UNL     1       9.504  10.425  18.943  0.00  0.00    +0.000 A 
ATOM     27  C   UNL     1       9.495  10.733  20.311  0.00  0.00    +0.000 A 
ATOM     28  C   UNL     1      10.299  11.760  20.814  0.00  0.00    +0.000 A 
ATOM     29  C   UNL     1      11.127  12.482  19.958  0.00  0.00    +0.000 A 
ATOM     30  C   UNL     1      11.170  12.164  18.602  0.00  0.00    +0.000 A 
ATOM     31  C   UNL     1      10.367  11.137  18.098  0.00  0.00    +0.000 A 
ENDBRANCH  22  26
ENDBRANCH  18  20
ENDBRANCH   1  18
TORSDOF 4
ENDMDL
MODEL 6
REMARK VINA RESULT:      -7.9      3.565      4.839
REMARK  Name = 
REMARK  4 active torsions:
REMARK  status: ('A' for Active; 'I' for Inactive)
REMARK    1  A    between atoms: C_7  and  S_8
REMARK    2  A    between atoms: S_8  and  N_11
REMARK    3  A    between atoms: N_11  and  C_12
REMARK    4  A    between atoms: C_14  and  C_15
REMARK                            x       y       z     vdW  Elec       q    Type
REMARK                         _______ _______ _______ _____ _____    ______ ____
ROOT
ATOM      1  S   UNL     1       3.314   5.377  19.618  0.00  0.00    +0.000 S 
ATOM      2  O   UNL     1       4.710   5.569  19.948  0.00  0.00    +0.000 OA
ATOM      3  O   UNL     1       2.374   4.948  20.632  0.00  0.00    +0.000 OA
ENDROOT
BRANCH   1  10
ATOM      4  O   UNL     1      -0.232  11.971  19.170  0.00  0.00    +0.000 OA
ATOM      5  C   UNL     1       0.418  10.943  19.064  0.00  0.00    +0.000 C 
ATOM      6  N   UNL     1       1.200  10.602  17.950  0.00  0.00    +0.000 N 
ATOM      7  C   UNL     1       1.822   9.376  18.104  0.00  0.00    +0.000 A 
ATOM      8  C   UNL     1       2.665   8.677  17.261  0.00  0.00    +0.000 A 
ATOM      9  C   UNL     1       3.120   7.431  17.743  0.00  0.00    +0.000 A 
ATOM     10  C   UNL     1       2.732   6.947  19.020  0.00  0.00    +0.000 A 
ATOM     11  C   UNL     1       1.864   7.699  19.865  0.00  0.00    +0.000 A 
ATOM     12  C   UNL     1       1.351   7.425  21.161  0.00  0.00    +0.000 A 
ATOM     13  C   UNL     1       0.486   8.333  21.807  0.00  0.00    +0.000 A 
ATOM     14  C   UNL     1       0.099   9.543  21.209  0.00  0.00    +0.000 A 
ATOM     15  C   UNL     1       0.611   9.806  19.942  0.00  0.00    +0.000 A 
ATOM     16  C   UNL     1       1.457   8.888  19.337  0.00  0.00    +0.000 A 
ATOM     17  H   UNL     1       1.266  11.213  17.149  0.00  0.00    +0.000 HD
ENDBRANCH   1  10
BRANCH   1  18
ATOM     18  N   UNL     1       3.278   4.361  18.327  0.00  0.00    +0.000 N 
ATOM     19  H   UNL     1       2.385   4.432  17.859  0.00  0.00    +0.000 HD
BRANCH  18  20
ATOM     20  C   UNL     1       4.397   4.252  17.519  0.00  0.00    +0.000 A 
ATOM     21  C   UNL     1       4.412   4.314  16.150  0.00  0.00    +0.000 A 
ATOM     22  C   UNL     1       5.783   4.187  15.782  0.00  0.00    +0.000 A 
ATOM     23  N   UNL     1       6.552   4.043  16.876  0.00  0.00    +0.000 NA
ATOM     24  N   UNL     1       5.693   4.061  17.905  0.00  0.00    +0.000 N 
ATOM     25  H   UNL     1       6.069   3.921  18.838  0.00  0.00    +0.000 HD
BRANCH  22  26
ATOM     26  C   UNL     1       6.350   4.247  14.432  0.00  0.00    +0.000 A 
ATOM     27  C   UNL     1       7.383   5.147  14.131  0.00  0.00    +0.000 A 
ATOM     28  C   UNL     1       7.862   5.268  12.823  0.00  0.00    +0.000 A 
ATOM     29  C   UNL     1       7.322   4.483  11.807  0.00  0.00    +0.000 A 
ATOM     30  C   UNL     1       6.318   3.562  12.098  0.00  0.00    +0.000 A 
ATOM     31  C   UNL     1       5.838   3.440  13.405  0.00  0.00    +0.000 A 
ENDBRANCH  22  26
ENDBRANCH  18  20
ENDBRANCH   1  18
TORSDOF 4
ENDMDL
MODEL 7
REMARK VINA RESULT:      -7.9      6.631      8.593
REMARK  Name = 
REMARK  4 active torsions:
REMARK  status: ('A' for Active; 'I' for Inactive)
REMARK    1  A    between atoms: C_7  and  S_8
REMARK    2  A    between atoms: S_8  and  N_11
REMARK    3  A    between atoms: N_11  and  C_12
REMARK    4  A    between atoms: C_14  and  C_15
REMARK                            x       y       z     vdW  Elec       q    Type
REMARK                         _______ _______ _______ _____ _____    ______ ____
ROOT
ATOM      1  S   UNL     1       0.380  10.572  20.588  0.00  0.00    +0.000 S 
ATOM      2  O   UNL     1       1.218  11.631  21.108  0.00  0.00    +0.000 OA
ATOM      3  O   UNL     1       0.077   9.412  21.398  0.00  0.00    +0.000 OA
ENDROOT
BRANCH   1  10
ATOM      4  O   UNL     1      -5.965  12.395  17.028  0.00  0.00    +0.000 OA
ATOM      5  C   UNL     1      -4.993  12.226  17.747  0.00  0.00    +0.000 C 
ATOM      6  N   UNL     1      -4.772  12.889  18.963  0.00  0.00    +0.000 N 
ATOM      7  C   UNL     1      -3.586  12.503  19.561  0.00  0.00    +0.000 A 
ATOM      8  C   UNL     1      -2.997  12.905  20.745  0.00  0.00    +0.000 A 
ATOM      9  C   UNL     1      -1.760  12.298  21.051  0.00  0.00    +0.000 A 
ATOM     10  C   UNL     1      -1.178  11.332  20.189  0.00  0.00    +0.000 A 
ATOM     11  C   UNL     1      -1.817  10.938  18.977  0.00  0.00    +0.000 A 
ATOM     12  C   UNL     1      -1.434  10.006  17.976  0.00  0.00    +0.000 A 
ATOM     13  C   UNL     1      -2.241   9.787  16.841  0.00  0.00    +0.000 A 
ATOM     14  C   UNL     1      -3.454  10.469  16.648  0.00  0.00    +0.000 A 
ATOM     15  C   UNL     1      -3.824  11.376  17.636  0.00  0.00    +0.000 A 
ATOM     16  C   UNL     1      -3.003  11.567  18.739  0.00  0.00    +0.000 A 
ATOM     17  H   UNL     1      -5.431  13.567  19.318  0.00  0.00    +0.000 HD
ENDBRANCH   1  10
BRANCH   1  18
ATOM     18  N   UNL     1       1.042  10.120  19.152  0.00  0.00    +0.000 N 
ATOM     19  H   UNL     1       1.500  10.911  18.722  0.00  0.00    +0.000 HD
BRANCH  18  20
ATOM     20  C   UNL     1       1.687   8.900  19.058  0.00  0.00    +0.000 A 
ATOM     21  C   UNL     1       2.276   8.384  17.933  0.00  0.00    +0.000 A 
ATOM     22  C   UNL     1       2.831   7.135  18.337  0.00  0.00    +0.000 A 
ATOM     23  N   UNL     1       2.578   6.907  19.638  0.00  0.00    +0.000 NA
ATOM     24  N   UNL     1       1.868   7.970  20.043  0.00  0.00    +0.000 N 
ATOM     25  H   UNL     1       1.532   7.978  21.000  0.00  0.00    +0.000 HD
BRANCH  22  26
ATOM     26  C   UNL     1       3.620   6.208  17.521  0.00  0.00    +0.000 A 
ATOM     27  C   UNL     1       3.354   4.831  17.545  0.00  0.00    +0.000 A 
ATOM     28  C   UNL     1       4.162   3.937  16.836  0.00  0.00    +0.000 A 
ATOM     29  C   UNL     1       5.238   4.412  16.089  0.00  0.00    +0.000 A 
ATOM     30  C   UNL     1       5.494   5.780  16.031  0.00  0.00    +0.000 A 
ATOM     31  C   UNL     1       4.687   6.674  16.738  0.00  0.00    +0.000 A 
ENDBRANCH  22  26
ENDBRANCH  18  20
ENDBRANCH   1  18
TORSDOF 4
ENDMDL
MODEL 8
REMARK VINA RESULT:      -7.8      4.161      5.424
REMARK  Name = 
REMARK  4 active torsions:
REMARK  status: ('A' for Active; 'I' for Inactive)
REMARK    1  A    between atoms: C_7  and  S_8
REMARK    2  A    between atoms: S_8  and  N_11
REMARK    3  A    between atoms: N_11  and  C_12
REMARK    4  A    between atoms: C_14  and  C_15
REMARK                            x       y       z     vdW  Elec       q    Type
REMARK                         _______ _______ _______ _____ _____    ______ ____
ROOT
ATOM      1  S   UNL     1       2.613   5.912  19.536  0.00  0.00    +0.000 S 
ATOM      2  O   UNL     1       2.583   5.817  20.980  0.00  0.00    +0.000 OA
ATOM      3  O   UNL     1       1.778   5.050  18.727  0.00  0.00    +0.000 OA
ENDROOT
BRANCH   1  10
ATOM      4  O   UNL     1      -0.463  12.740  19.953  0.00  0.00    +0.000 OA
ATOM      5  C   UNL     1       0.114  11.691  19.713  0.00  0.00    +0.000 C 
ATOM      6  N   UNL     1       0.873  11.441  18.560  0.00  0.00    +0.000 N 
ATOM      7  C   UNL     1       1.408  10.166  18.553  0.00  0.00    +0.000 A 
ATOM      8  C   UNL     1       2.203   9.523  17.623  0.00  0.00    +0.000 A 
ATOM      9  C   UNL     1       2.568   8.197  17.939  0.00  0.00    +0.000 A 
ATOM     10  C   UNL     1       2.144   7.583  19.147  0.00  0.00    +0.000 A 
ATOM     11  C   UNL     1       1.328   8.279  20.086  0.00  0.00    +0.000 A 
ATOM     12  C   UNL     1       0.794   7.878  21.340  0.00  0.00    +0.000 A 
ATOM     13  C   UNL     1      -0.007   8.754  22.102  0.00  0.00    +0.000 A 
ATOM     14  C   UNL     1      -0.308  10.055  21.665  0.00  0.00    +0.000 A 
ATOM     15  C   UNL     1       0.225  10.441  20.439  0.00  0.00    +0.000 A 
ATOM     16  C   UNL     1       1.007   9.551  19.716  0.00  0.00    +0.000 A 
ATOM     17  H   UNL     1       0.984  12.143  17.843  0.00  0.00    +0.000 HD
ENDBRANCH   1  10
BRANCH   1  18
ATOM     18  N   UNL     1       4.190   5.773  19.095  0.00  0.00    +0.000 N 
ATOM     19  H   UNL     1       4.763   5.619  19.913  0.00  0.00    +0.000 HD
BRANCH  18  20
ATOM     20  C   UNL     1       4.516   5.047  17.962  0.00  0.00    +0.000 A 
ATOM     21  C   UNL     1       5.093   5.546  16.824  0.00  0.00    +0.000 A 
ATOM     22  C   UNL     1       5.262   4.422  15.963  0.00  0.00    +0.000 A 
ATOM     23  N   UNL     1       4.798   3.305  16.552  0.00  0.00    +0.000 NA
ATOM     24  N   UNL     1       4.333   3.711  17.742  0.00  0.00    +0.000 N 
ATOM     25  H   UNL     1       3.891   3.019  18.339  0.00  0.00    +0.000 HD
BRANCH  22  26
ATOM     26  C   UNL     1       5.889   4.403  14.639  0.00  0.00    +0.000 A 
ATOM     27  C   UNL     1       5.332   3.649  13.595  0.00  0.00    +0.000 A 
ATOM     28  C   UNL     1       5.978   3.559  12.359  0.00  0.00    +0.000 A 
ATOM     29  C   UNL     1       7.180   4.231  12.149  0.00  0.00    +0.000 A 
ATOM     30  C   UNL     1       7.728   5.010  13.166  0.00  0.00    +0.000 A 
ATOM     31  C   UNL     1       7.083   5.101  14.403  0.00  0.00    +0.000 A 
ENDBRANCH  22  26
ENDBRANCH  18  20
ENDBRANCH   1  18
TORSDOF 4
ENDMDL
MODEL 9
REMARK VINA RESULT:      -7.7      6.459      8.736
REMARK  Name = 
REMARK  4 active torsions:
REMARK  status: ('A' for Active; 'I' for Inactive)
REMARK    1  A    between atoms: C_7  and  S_8
REMARK    2  A    between atoms: S_8  and  N_11
REMARK    3  A    between atoms: N_11  and  C_12
REMARK    4  A    between atoms: C_14  and  C_15
REMARK                            x       y       z     vdW  Elec       q    Type
REMARK                         _______ _______ _______ _____ _____    ______ ____
ROOT
ATOM      1  S   UNL     1       0.775  10.557  19.417  0.00  0.00    +0.000 S 
ATOM      2  O   UNL     1       1.346  11.878  19.267  0.00  0.00    +0.000 OA
ATOM      3  O   UNL     1       0.517  10.015  20.735  0.00  0.00    +0.000 OA
ENDROOT
BRANCH   1  10
ATOM      4  O   UNL     1      -6.366  12.088  17.707  0.00  0.00    +0.000 OA
ATOM      5  C   UNL     1      -5.202  11.736  17.816  0.00  0.00    +0.000 C 
ATOM      6  N   UNL     1      -4.525  10.916  16.901  0.00  0.00    +0.000 N 
ATOM      7  C   UNL     1      -3.217  10.678  17.280  0.00  0.00    +0.000 A 
ATOM      8  C   UNL     1      -2.220   9.934  16.677  0.00  0.00    +0.000 A 
ATOM      9  C   UNL     1      -0.983   9.902  17.355  0.00  0.00    +0.000 A 
ATOM     10  C   UNL     1      -0.791  10.603  18.574  0.00  0.00    +0.000 A 
ATOM     11  C   UNL     1      -1.841  11.364  19.165  0.00  0.00    +0.000 A 
ATOM     12  C   UNL     1      -1.881  12.136  20.357  0.00  0.00    +0.000 A 
ATOM     13  C   UNL     1      -3.058  12.807  20.748  0.00  0.00    +0.000 A 
ATOM     14  C   UNL     1      -4.235  12.749  19.984  0.00  0.00    +0.000 A 
ATOM     15  C   UNL     1      -4.185  11.995  18.816  0.00  0.00    +0.000 A 
ATOM     16  C   UNL     1      -3.010  11.347  18.464  0.00  0.00    +0.000 A 
ATOM     17  H   UNL     1      -4.985  10.561  16.074  0.00  0.00    +0.000 HD
ENDBRANCH   1  10
BRANCH   1  18
ATOM     18  N   UNL     1       1.726   9.538  18.547  0.00  0.00    +0.000 N 
ATOM     19  H   UNL     1       2.535  10.036  18.201  0.00  0.00    +0.000 HD
BRANCH  18  20
ATOM     20  C   UNL     1       1.938   8.250  19.006  0.00  0.00    +0.000 A 
ATOM     21  C   UNL     1       2.159   7.144  18.229  0.00  0.00    +0.000 A 
ATOM     22  C   UNL     1       2.352   6.070  19.147  0.00  0.00    +0.000 A 
ATOM     23  N   UNL     1       2.241   6.510  20.413  0.00  0.00    +0.000 NA
ATOM     24  N   UNL     1       1.967   7.817  20.302  0.00  0.00    +0.000 N 
ATOM     25  H   UNL     1       1.799   8.340  21.155  0.00  0.00    +0.000 HD
BRANCH  22  26
ATOM     26  C   UNL     1       2.680   4.678  18.830  0.00  0.00    +0.000 A 
ATOM     27  C   UNL     1       3.566   3.950  19.638  0.00  0.00    +0.000 A 
ATOM     28  C   UNL     1       3.948   2.652  19.287  0.00  0.00    +0.000 A 
ATOM     29  C   UNL     1       3.441   2.065  18.130  0.00  0.00    +0.000 A 
ATOM     30  C   UNL     1       2.536   2.764  17.335  0.00  0.00    +0.000 A 
ATOM     31  C   UNL     1       2.153   4.061  17.686  0.00  0.00    +0.000 A 
ENDBRANCH  22  26
ENDBRANCH  18  20
ENDBRANCH   1  18
TORSDOF 4
ENDMDL
