MODEL 1
REMARK VINA RESULT:      -9.3      0.000      0.000
REMARK  Name = 
REMARK  6 active torsions:
REMARK  status: ('A' for Active; 'I' for Inactive)
REMARK    1  A    between atoms: C_1  and  N_2
REMARK    2  A    between atoms: C_6  and  C_7
REMARK    3  A    between atoms: C_7  and  C_8
REMARK    4  A    between atoms: C_8  and  C_9
REMARK    5  A    between atoms: C_13  and  N_14
REMARK    6  A    between atoms: C_21  and  C_22
REMARK                            x       y       z     vdW  Elec       q    Type
REMARK                         _______ _______ _______ _____ _____    ______ ____
ROOT
ATOM      1  C   UNL     1       4.319   4.931  17.378  0.00  0.00    +0.000 A 
ATOM      2  C   UNL     1       3.562   3.784  17.641  0.00  0.00    +0.000 A 
ATOM      3  C   UNL     1       2.338   3.891  18.293  0.00  0.00    +0.000 A 
ATOM      4  C   UNL     1       1.868   5.140  18.690  0.00  0.00    +0.000 A 
ATOM      5  C   UNL     1       2.594   6.318  18.455  0.00  0.00    +0.000 A 
ATOM      6  C   UNL     1       3.818   6.195  17.769  0.00  0.00    +0.000 A 
ENDROOT
BRANCH   5   7
ATOM      7  N   UNL     1       2.117   7.568  18.948  0.00  0.00    +0.000 N 
ATOM      8  C   UNL     1       1.528   7.750  20.280  0.00  0.00    +0.000 C 
ATOM      9  C   UNL     1       1.057   9.175  20.261  0.00  0.00    +0.000 A 
ATOM     10  C   UNL     1       1.359   9.732  19.023  0.00  0.00    +0.000 A 
ATOM     11  C   UNL     1       1.017  11.021  18.704  0.00  0.00    +0.000 A 
ATOM     12  N   UNL     1       0.380  11.811  19.595  0.00  0.00    +0.000 NA
ATOM     13  C   UNL     1       0.101  11.272  20.813  0.00  0.00    +0.000 A 
ATOM     14  C   UNL     1       0.413   9.964  21.207  0.00  0.00    +0.000 A 
ATOM     15  C   UNL     1       2.038   8.749  18.203  0.00  0.00    +0.000 C 
ATOM     16  O   UNL     1       2.426   9.033  17.085  0.00  0.00    +0.000 OA
BRANCH  14  17
ATOM     17  C   UNL     1       0.051   9.531  22.586  0.00  0.00    +0.000 C 
ATOM     18  F   UNL     1      -0.541  10.511  23.321  0.00  0.00    +0.000 F 
ATOM     19  F   UNL     1      -0.820   8.484  22.586  0.00  0.00    +0.000 F 
ATOM     20  F   UNL     1       1.129   9.120  23.306  0.00  0.00    +0.000 F 
ENDBRANCH  14  17
ENDBRANCH   5   7
BRANCH   1  21
ATOM     21  C   UNL     1       5.692   4.784  16.758  0.00  0.00    +0.000 C 
BRANCH  21  22
ATOM     22  C   UNL     1       5.748   3.892  15.510  0.00  0.00    +0.000 C 
BRANCH  22  28
ATOM     23  C   UNL     1       5.845   3.269  12.411  0.00  0.00    +0.000 C 
ATOM     24  N   UNL     1       6.683   4.182  13.139  0.00  0.00    +0.000 N 
ATOM     25  C   UNL     1       7.669   4.947  12.595  0.00  0.00    +0.000 A 
ATOM     26  N   UNL     1       8.231   5.670  13.533  0.00  0.00    +0.000 NA
ATOM     27  N   UNL     1       7.599   5.378  14.716  0.00  0.00    +0.000 NA
ATOM     28  C   UNL     1       6.664   4.476  14.481  0.00  0.00    +0.000 A 
ENDBRANCH  22  28
ENDBRANCH  21  22
ENDBRANCH   1  21
TORSDOF 5
ENDMDL
MODEL 2
REMARK VINA RESULT:      -9.2      3.269      4.563
REMARK  Name = 
REMARK  6 active torsions:
REMARK  status: ('A' for Active; 'I' for Inactive)
REMARK    1  A    between atoms: C_1  and  N_2
REMARK    2  A    between atoms: C_6  and  C_7
REMARK    3  A    between atoms: C_7  and  C_8
REMARK    4  A    between atoms: C_8  and  C_9
REMARK    5  A    between atoms: C_13  and  N_14
REMARK    6  A    between atoms: C_21  and  C_22
REMARK                            x       y       z     vdW  Elec       q    Type
REMARK                         _______ _______ _______ _____ _____    ______ ____
ROOT
ATOM      1  C   UNL     1       2.657   4.729  17.619  0.00  0.00    +0.000 A 
ATOM      2  C   UNL     1       3.997   4.849  17.238  0.00  0.00    +0.000 A 
ATOM      3  C   UNL     1       4.686   6.034  17.478  0.00  0.00    +0.000 A 
ATOM      4  C   UNL     1       4.038   7.103  18.093  0.00  0.00    +0.000 A 
ATOM      5  C   UNL     1       2.693   7.032  18.487  0.00  0.00    +0.000 A 
ATOM      6  C   UNL     1       2.019   5.816  18.262  0.00  0.00    +0.000 A 
ENDROOT
BRANCH   5   7
ATOM      7  N   UNL     1       2.044   8.175  19.040  0.00  0.00    +0.000 N 
ATOM      8  C   UNL     1       1.424   8.196  20.370  0.00  0.00    +0.000 C 
ATOM      9  C   UNL     1       0.760   9.542  20.422  0.00  0.00    +0.000 A 
ATOM     10  C   UNL     1       0.993  10.205  19.223  0.00  0.00    +0.000 A 
ATOM     11  C   UNL     1       0.479  11.451  18.970  0.00  0.00    +0.000 A 
ATOM     12  N   UNL     1      -0.269  12.094  19.892  0.00  0.00    +0.000 NA
ATOM     13  C   UNL     1      -0.482  11.453  21.074  0.00  0.00    +0.000 A 
ATOM     14  C   UNL     1       0.005  10.180  21.399  0.00  0.00    +0.000 A 
ATOM     15  C   UNL     1       1.809   9.374  18.361  0.00  0.00    +0.000 C 
ATOM     16  O   UNL     1       2.164   9.773  17.267  0.00  0.00    +0.000 OA
BRANCH  14  17
ATOM     17  C   UNL     1      -0.306   9.622  22.747  0.00  0.00    +0.000 C 
ATOM     18  F   UNL     1      -0.943   8.421  22.698  0.00  0.00    +0.000 F 
ATOM     19  F   UNL     1       0.814   9.423  23.494  0.00  0.00    +0.000 F 
ATOM     20  F   UNL     1      -1.104  10.442  23.481  0.00  0.00    +0.000 F 
ENDBRANCH  14  17
ENDBRANCH   5   7
BRANCH   1  21
ATOM     21  C   UNL     1       1.897   3.469  17.260  0.00  0.00    +0.000 C 
BRANCH  21  22
ATOM     22  C   UNL     1       2.292   2.222  18.064  0.00  0.00    +0.000 C 
BRANCH  22  28
ATOM     23  C   UNL     1       4.556   2.305  20.271  0.00  0.00    +0.000 C 
ATOM     24  N   UNL     1       3.145   2.496  20.468  0.00  0.00    +0.000 N 
ATOM     25  C   UNL     1       2.547   2.756  21.663  0.00  0.00    +0.000 A 
ATOM     26  N   UNL     1       1.254   2.881  21.489  0.00  0.00    +0.000 NA
ATOM     27  N   UNL     1       0.997   2.705  20.151  0.00  0.00    +0.000 NA
ATOM     28  C   UNL     1       2.139   2.469  19.532  0.00  0.00    +0.000 A 
ENDBRANCH  22  28
ENDBRANCH  21  22
ENDBRANCH   1  21
TORSDOF 5
ENDMDL
MODEL 3
REMARK VINA RESULT:      -9.1      1.732      2.477
REMARK  Name = 
REMARK  6 active torsions:
REMARK  status: ('A' for Active; 'I' for Inactive)
REMARK    1  A    between atoms: C_1  and  N_2
REMARK    2  A    between atoms: C_6  and  C_7
REMARK    3  A    between atoms: C_7  and  C_8
REMARK    4  A    between atoms: C_8  and  C_9
REMARK    5  A    between atoms: C_13  and  N_14
REMARK    6  A    between atoms: C_21  and  C_22
REMARK                            x       y       z     vdW  Elec       q    Type
REMARK                         _______ _______ _______ _____ _____    ______ ____
ROOT
ATOM      1  C   UNL     1       4.204   4.617  17.670  0.00  0.00    +0.000 A 
ATOM      2  C   UNL     1       4.076   3.592  18.614  0.00  0.00    +0.000 A 
ATOM      3  C   UNL     1       3.321   3.795  19.765  0.00  0.00    +0.000 A 
ATOM      4  C   UNL     1       2.698   5.021  19.980  0.00  0.00    +0.000 A 
ATOM      5  C   UNL     1       2.802   6.081  19.066  0.00  0.00    +0.000 A 
ATOM      6  C   UNL     1       3.547   5.850  17.894  0.00  0.00    +0.000 A 
ENDROOT
BRANCH   5   7
ATOM      7  N   UNL     1       2.215   7.347  19.361  0.00  0.00    +0.000 N 
ATOM      8  C   UNL     1       1.554   7.664  20.631  0.00  0.00    +0.000 C 
ATOM      9  C   UNL     1       0.985   9.033  20.395  0.00  0.00    +0.000 A 
ATOM     10  C   UNL     1       1.303   9.436  19.104  0.00  0.00    +0.000 A 
ATOM     11  C   UNL     1       0.887  10.639  18.594  0.00  0.00    +0.000 A 
ATOM     12  N   UNL     1       0.154  11.493  19.341  0.00  0.00    +0.000 NA
ATOM     13  C   UNL     1      -0.143  11.107  20.612  0.00  0.00    +0.000 A 
ATOM     14  C   UNL     1       0.243   9.893  21.196  0.00  0.00    +0.000 A 
ATOM     15  C   UNL     1       2.088   8.405  18.455  0.00  0.00    +0.000 C 
ATOM     16  O   UNL     1       2.507   8.562  17.323  0.00  0.00    +0.000 OA
BRANCH  14  17
ATOM     17  C   UNL     1      -0.153   9.627  22.609  0.00  0.00    +0.000 C 
ATOM     18  F   UNL     1      -0.855  10.646  23.174  0.00  0.00    +0.000 F 
ATOM     19  F   UNL     1      -0.938   8.521  22.725  0.00  0.00    +0.000 F 
ATOM     20  F   UNL     1       0.917   9.412  23.420  0.00  0.00    +0.000 F 
ENDBRANCH  14  17
ENDBRANCH   5   7
BRANCH   1  21
ATOM     21  C   UNL     1       5.110   4.411  16.474  0.00  0.00    +0.000 C 
BRANCH  21  22
ATOM     22  C   UNL     1       6.609   4.337  16.801  0.00  0.00    +0.000 C 
BRANCH  22  28
ATOM     23  C   UNL     1       7.404   5.444  19.655  0.00  0.00    +0.000 C 
ATOM     24  N   UNL     1       7.476   6.145  18.402  0.00  0.00    +0.000 N 
ATOM     25  C   UNL     1       7.917   7.422  18.241  0.00  0.00    +0.000 A 
ATOM     26  N   UNL     1       7.860   7.750  16.973  0.00  0.00    +0.000 NA
ATOM     27  N   UNL     1       7.377   6.663  16.286  0.00  0.00    +0.000 NA
ATOM     28  C   UNL     1       7.142   5.692  17.149  0.00  0.00    +0.000 A 
ENDBRANCH  22  28
ENDBRANCH  21  22
ENDBRANCH   1  21
TORSDOF 5
ENDMDL
MODEL 4
REMARK VINA RESULT:      -8.8      3.156      4.518
REMARK  Name = 
REMARK  6 active torsions:
REMARK  status: ('A' for Active; 'I' for Inactive)
REMARK    1  A    between atoms: C_1  and  N_2
REMARK    2  A    between atoms: C_6  and  C_7
REMARK    3  A    between atoms: C_7  and  C_8
REMARK    4  A    between atoms: C_8  and  C_9
REMARK    5  A    between atoms: C_13  and  N_14
REMARK    6  A    between atoms: C_21  and  C_22
REMARK                            x       y       z     vdW  Elec       q    Type
REMARK                         _______ _______ _______ _____ _____    ______ ____
ROOT
ATOM      1  C   UNL     1       3.305   4.734  17.623  0.00  0.00    +0.000 A 
ATOM      2  C   UNL     1       4.584   5.037  17.145  0.00  0.00    +0.000 A 
ATOM      3  C   UNL     1       5.089   6.327  17.274  0.00  0.00    +0.000 A 
ATOM      4  C   UNL     1       4.317   7.319  17.874  0.00  0.00    +0.000 A 
ATOM      5  C   UNL     1       3.026   7.065  18.362  0.00  0.00    +0.000 A 
ATOM      6  C   UNL     1       2.542   5.747  18.248  0.00  0.00    +0.000 A 
ENDROOT
BRANCH   5   7
ATOM      7  N   UNL     1       2.236   8.125  18.897  0.00  0.00    +0.000 N 
ATOM      8  C   UNL     1       1.610   8.087  20.222  0.00  0.00    +0.000 C 
ATOM      9  C   UNL     1       0.785   9.342  20.254  0.00  0.00    +0.000 A 
ATOM     10  C   UNL     1       0.942  10.013  19.047  0.00  0.00    +0.000 A 
ATOM     11  C   UNL     1       0.280  11.183  18.775  0.00  0.00    +0.000 A 
ATOM     12  N   UNL     1      -0.548  11.739  19.684  0.00  0.00    +0.000 NA
ATOM     13  C   UNL     1      -0.688  11.092  20.874  0.00  0.00    +0.000 A 
ATOM     14  C   UNL     1      -0.050   9.893  21.218  0.00  0.00    +0.000 A 
ATOM     15  C   UNL     1       1.860   9.278  18.200  0.00  0.00    +0.000 C 
ATOM     16  O   UNL     1       2.170   9.704  17.103  0.00  0.00    +0.000 OA
BRANCH  14  17
ATOM     17  C   UNL     1      -0.299   9.318  22.571  0.00  0.00    +0.000 C 
ATOM     18  F   UNL     1       0.840   9.105  23.284  0.00  0.00    +0.000 F 
ATOM     19  F   UNL     1      -1.077  10.128  23.341  0.00  0.00    +0.000 F 
ATOM     20  F   UNL     1      -0.941   8.121  22.521  0.00  0.00    +0.000 F 
ENDBRANCH  14  17
ENDBRANCH   5   7
BRANCH   1  21
ATOM     21  C   UNL     1       2.735   3.351  17.384  0.00  0.00    +0.000 C 
BRANCH  21  22
ATOM     22  C   UNL     1       3.306   2.250  18.289  0.00  0.00    +0.000 C 
BRANCH  22  28
ATOM     23  C   UNL     1       0.327   2.668  19.265  0.00  0.00    +0.000 C 
ATOM     24  N   UNL     1       1.505   2.592  20.084  0.00  0.00    +0.000 N 
ATOM     25  C   UNL     1       1.525   2.681  21.442  0.00  0.00    +0.000 A 
ATOM     26  N   UNL     1       2.757   2.565  21.872  0.00  0.00    +0.000 NA
ATOM     27  N   UNL     1       3.564   2.390  20.775  0.00  0.00    +0.000 NA
ATOM     28  C   UNL     1       2.809   2.408  19.692  0.00  0.00    +0.000 A 
ENDBRANCH  22  28
ENDBRANCH  21  22
ENDBRANCH   1  21
TORSDOF 5
ENDMDL
MODEL 5
REMARK VINA RESULT:      -8.8      3.005      4.256
REMARK  Name = 
REMARK  6 active torsions:
REMARK  status: ('A' for Active; 'I' for Inactive)
REMARK    1  A    between atoms: C_1  and  N_2
REMARK    2  A    between atoms: C_6  and  C_7
REMARK    3  A    between atoms: C_7  and  C_8
REMARK    4  A    between atoms: C_8  and  C_9
REMARK    5  A    between atoms: C_13  and  N_14
REMARK    6  A    between atoms: C_21  and  C_22
REMARK                            x       y       z     vdW  Elec       q    Type
REMARK                         _______ _______ _______ _____ _____    ______ ____
ROOT
ATOM      1  C   UNL     1       2.728   4.710  17.632  0.00  0.00    +0.000 A 
ATOM      2  C   UNL     1       4.049   4.855  17.194  0.00  0.00    +0.000 A 
ATOM      3  C   UNL     1       4.716   6.061  17.382  0.00  0.00    +0.000 A 
ATOM      4  C   UNL     1       4.067   7.126  18.002  0.00  0.00    +0.000 A 
ATOM      5  C   UNL     1       2.742   7.031  18.452  0.00  0.00    +0.000 A 
ATOM      6  C   UNL     1       2.090   5.794  18.279  0.00  0.00    +0.000 A 
ENDROOT
BRANCH   5   7
ATOM      7  N   UNL     1       2.086   8.168  19.009  0.00  0.00    +0.000 N 
ATOM      8  C   UNL     1       1.462   8.181  20.336  0.00  0.00    +0.000 C 
ATOM      9  C   UNL     1       0.794   9.525  20.393  0.00  0.00    +0.000 A 
ATOM     10  C   UNL     1       1.028  10.195  19.198  0.00  0.00    +0.000 A 
ATOM     11  C   UNL     1       0.512  11.440  18.950  0.00  0.00    +0.000 A 
ATOM     12  N   UNL     1      -0.242  12.076  19.873  0.00  0.00    +0.000 NA
ATOM     13  C   UNL     1      -0.457  11.428  21.051  0.00  0.00    +0.000 A 
ATOM     14  C   UNL     1       0.033  10.155  21.371  0.00  0.00    +0.000 A 
ATOM     15  C   UNL     1       1.850   9.370  18.335  0.00  0.00    +0.000 C 
ATOM     16  O   UNL     1       2.207   9.776  17.244  0.00  0.00    +0.000 OA
BRANCH  14  17
ATOM     17  C   UNL     1      -0.281   9.589  22.714  0.00  0.00    +0.000 C 
ATOM     18  F   UNL     1       0.826   9.316  23.456  0.00  0.00    +0.000 F 
ATOM     19  F   UNL     1      -1.037  10.435  23.467  0.00  0.00    +0.000 F 
ATOM     20  F   UNL     1      -0.982   8.426  22.642  0.00  0.00    +0.000 F 
ENDBRANCH  14  17
ENDBRANCH   5   7
BRANCH   1  21
ATOM     21  C   UNL     1       1.986   3.424  17.329  0.00  0.00    +0.000 C 
BRANCH  21  22
ATOM     22  C   UNL     1       1.633   2.575  18.558  0.00  0.00    +0.000 C 
BRANCH  22  28
ATOM     23  C   UNL     1       2.210   3.389  21.559  0.00  0.00    +0.000 C 
ATOM     24  N   UNL     1       3.078   2.659  20.676  0.00  0.00    +0.000 N 
ATOM     25  C   UNL     1       4.311   2.185  21.002  0.00  0.00    +0.000 A 
ATOM     26  N   UNL     1       4.829   1.561  19.972  0.00  0.00    +0.000 NA
ATOM     27  N   UNL     1       3.915   1.622  18.950  0.00  0.00    +0.000 NA
ATOM     28  C   UNL     1       2.856   2.288  19.372  0.00  0.00    +0.000 A 
ENDBRANCH  22  28
ENDBRANCH  21  22
ENDBRANCH   1  21
TORSDOF 5
ENDMDL
MODEL 6
REMARK VINA RESULT:      -8.7      1.987      2.668
REMARK  Name = 
REMARK  6 active torsions:
REMARK  status: ('A' for Active; 'I' for Inactive)
REMARK    1  A    between atoms: C_1  and  N_2
REMARK    2  A    between atoms: C_6  and  C_7
REMARK    3  A    between atoms: C_7  and  C_8
REMARK    4  A    between atoms: C_8  and  C_9
REMARK    5  A    between atoms: C_13  and  N_14
REMARK    6  A    between atoms: C_21  and  C_22
REMARK                            x       y       z     vdW  Elec       q    Type
REMARK                         _______ _______ _______ _____ _____    ______ ____
ROOT
ATOM      1  C   UNL     1       4.228   5.766  17.082  0.00  0.00    +0.000 A 
ATOM      2  C   UNL     1       3.965   4.542  17.707  0.00  0.00    +0.000 A 
ATOM      3  C   UNL     1       3.055   4.478  18.757  0.00  0.00    +0.000 A 
ATOM      4  C   UNL     1       2.409   5.633  19.190  0.00  0.00    +0.000 A 
ATOM      5  C   UNL     1       2.644   6.884  18.599  0.00  0.00    +0.000 A 
ATOM      6  C   UNL     1       3.548   6.927  17.520  0.00  0.00    +0.000 A 
ENDROOT
BRANCH   5   7
ATOM      7  N   UNL     1       2.023   8.056  19.123  0.00  0.00    +0.000 N 
ATOM      8  C   UNL     1       1.422   8.134  20.459  0.00  0.00    +0.000 C 
ATOM      9  C   UNL     1       0.785   9.493  20.475  0.00  0.00    +0.000 A 
ATOM     10  C   UNL     1       1.014  10.112  19.252  0.00  0.00    +0.000 A 
ATOM     11  C   UNL     1       0.520  11.358  18.965  0.00  0.00    +0.000 A 
ATOM     12  N   UNL     1      -0.204  12.045  19.875  0.00  0.00    +0.000 NA
ATOM     13  C   UNL     1      -0.412  11.447  21.080  0.00  0.00    +0.000 A 
ATOM     14  C   UNL     1       0.055  10.177  21.441  0.00  0.00    +0.000 A 
ATOM     15  C   UNL     1       1.802   9.237  18.407  0.00  0.00    +0.000 C 
ATOM     16  O   UNL     1       2.149   9.593  17.296  0.00  0.00    +0.000 OA
BRANCH  14  17
ATOM     17  C   UNL     1      -0.248   9.669  22.810  0.00  0.00    +0.000 C 
ATOM     18  F   UNL     1      -0.970  10.545  23.561  0.00  0.00    +0.000 F 
ATOM     19  F   UNL     1      -0.968   8.515  22.784  0.00  0.00    +0.000 F 
ATOM     20  F   UNL     1       0.874   9.394  23.526  0.00  0.00    +0.000 F 
ENDBRANCH  14  17
ENDBRANCH   5   7
BRANCH   1  21
ATOM     21  C   UNL     1       5.295   5.834  16.010  0.00  0.00    +0.000 C 
BRANCH  21  22
ATOM     22  C   UNL     1       6.536   4.969  16.273  0.00  0.00    +0.000 C 
BRANCH  22  28
ATOM     23  C   UNL     1       7.588   7.795  17.226  0.00  0.00    +0.000 C 
ATOM     24  N   UNL     1       7.611   6.565  17.970  0.00  0.00    +0.000 N 
ATOM     25  C   UNL     1       8.093   6.420  19.234  0.00  0.00    +0.000 A 
ATOM     26  N   UNL     1       7.957   5.174  19.617  0.00  0.00    +0.000 NA
ATOM     27  N   UNL     1       7.368   4.487  18.584  0.00  0.00    +0.000 NA
ATOM     28  C   UNL     1       7.160   5.325  17.586  0.00  0.00    +0.000 A 
ENDBRANCH  22  28
ENDBRANCH  21  22
ENDBRANCH   1  21
TORSDOF 5
ENDMDL
MODEL 7
REMARK VINA RESULT:      -8.7      1.910      2.652
REMARK  Name = 
REMARK  6 active torsions:
REMARK  status: ('A' for Active; 'I' for Inactive)
REMARK    1  A    between atoms: C_1  and  N_2
REMARK    2  A    between atoms: C_6  and  C_7
REMARK    3  A    between atoms: C_7  and  C_8
REMARK    4  A    between atoms: C_8  and  C_9
REMARK    5  A    between atoms: C_13  and  N_14
REMARK    6  A    between atoms: C_21  and  C_22
REMARK                            x       y       z     vdW  Elec       q    Type
REMARK                         _______ _______ _______ _____ _____    ______ ____
ROOT
ATOM      1  C   UNL     1       4.114   4.488  17.596  0.00  0.00    +0.000 A 
ATOM      2  C   UNL     1       4.111   3.521  18.607  0.00  0.00    +0.000 A 
ATOM      3  C   UNL     1       3.480   3.782  19.819  0.00  0.00    +0.000 A 
ATOM      4  C   UNL     1       2.857   5.010  20.029  0.00  0.00    +0.000 A 
ATOM      5  C   UNL     1       2.839   6.013  19.048  0.00  0.00    +0.000 A 
ATOM      6  C   UNL     1       3.458   5.722  17.817  0.00  0.00    +0.000 A 
ENDROOT
BRANCH   5   7
ATOM      7  N   UNL     1       2.260   7.286  19.329  0.00  0.00    +0.000 N 
ATOM      8  C   UNL     1       1.597   7.618  20.595  0.00  0.00    +0.000 C 
ATOM      9  C   UNL     1       1.038   8.990  20.345  0.00  0.00    +0.000 A 
ATOM     10  C   UNL     1       1.364   9.379  19.051  0.00  0.00    +0.000 A 
ATOM     11  C   UNL     1       0.958  10.580  18.530  0.00  0.00    +0.000 A 
ATOM     12  N   UNL     1       0.229  11.446  19.267  0.00  0.00    +0.000 NA
ATOM     13  C   UNL     1      -0.075  11.073  20.540  0.00  0.00    +0.000 A 
ATOM     14  C   UNL     1       0.300   9.862  21.136  0.00  0.00    +0.000 A 
ATOM     15  C   UNL     1       2.144   8.337  18.414  0.00  0.00    +0.000 C 
ATOM     16  O   UNL     1       2.568   8.481  17.282  0.00  0.00    +0.000 OA
BRANCH  14  17
ATOM     17  C   UNL     1      -0.102   9.610  22.550  0.00  0.00    +0.000 C 
ATOM     18  F   UNL     1       0.947   9.308  23.362  0.00  0.00    +0.000 F 
ATOM     19  F   UNL     1      -0.713  10.689  23.112  0.00  0.00    +0.000 F 
ATOM     20  F   UNL     1      -0.980   8.579  22.669  0.00  0.00    +0.000 F 
ENDBRANCH  14  17
ENDBRANCH   5   7
BRANCH   1  21
ATOM     21  C   UNL     1       4.890   4.223  16.323  0.00  0.00    +0.000 C 
BRANCH  21  22
ATOM     22  C   UNL     1       6.048   5.195  16.056  0.00  0.00    +0.000 C 
BRANCH  22  28
ATOM     23  C   UNL     1       7.019   7.881  17.413  0.00  0.00    +0.000 C 
ATOM     24  N   UNL     1       7.305   6.540  17.842  0.00  0.00    +0.000 N 
ATOM     25  C   UNL     1       8.050   6.206  18.931  0.00  0.00    +0.000 A 
ATOM     26  N   UNL     1       8.107   4.901  19.041  0.00  0.00    +0.000 NA
ATOM     27  N   UNL     1       7.381   4.367  18.006  0.00  0.00    +0.000 NA
ATOM     28  C   UNL     1       6.897   5.356  17.278  0.00  0.00    +0.000 A 
ENDBRANCH  22  28
ENDBRANCH  21  22
ENDBRANCH   1  21
TORSDOF 5
ENDMDL
MODEL 8
REMARK VINA RESULT:      -8.6      1.898      2.681
REMARK  Name = 
REMARK  6 active torsions:
REMARK  status: ('A' for Active; 'I' for Inactive)
REMARK    1  A    between atoms: C_1  and  N_2
REMARK    2  A    between atoms: C_6  and  C_7
REMARK    3  A    between atoms: C_7  and  C_8
REMARK    4  A    between atoms: C_8  and  C_9
REMARK    5  A    between atoms: C_13  and  N_14
REMARK    6  A    between atoms: C_21  and  C_22
REMARK                            x       y       z     vdW  Elec       q    Type
REMARK                         _______ _______ _______ _____ _____    ______ ____
ROOT
ATOM      1  C   UNL     1       4.272   4.578  18.218  0.00  0.00    +0.000 A 
ATOM      2  C   UNL     1       3.318   3.663  17.760  0.00  0.00    +0.000 A 
ATOM      3  C   UNL     1       1.977   4.029  17.697  0.00  0.00    +0.000 A 
ATOM      4  C   UNL     1       1.584   5.304  18.095  0.00  0.00    +0.000 A 
ATOM      5  C   UNL     1       2.503   6.253  18.568  0.00  0.00    +0.000 A 
ATOM      6  C   UNL     1       3.859   5.877  18.599  0.00  0.00    +0.000 A 
ENDROOT
BRANCH   5   7
ATOM      7  N   UNL     1       2.050   7.520  19.041  0.00  0.00    +0.000 N 
ATOM      8  C   UNL     1       1.447   7.730  20.362  0.00  0.00    +0.000 C 
ATOM      9  C   UNL     1       1.013   9.167  20.322  0.00  0.00    +0.000 A 
ATOM     10  C   UNL     1       1.346   9.703  19.084  0.00  0.00    +0.000 A 
ATOM     11  C   UNL     1       1.043  10.997  18.747  0.00  0.00    +0.000 A 
ATOM     12  N   UNL     1       0.412  11.812  19.620  0.00  0.00    +0.000 NA
ATOM     13  C   UNL     1       0.102  11.293  20.840  0.00  0.00    +0.000 A 
ATOM     14  C   UNL     1       0.375   9.981  21.250  0.00  0.00    +0.000 A 
ATOM     15  C   UNL     1       2.012   8.695  18.284  0.00  0.00    +0.000 C 
ATOM     16  O   UNL     1       2.424   8.958  17.169  0.00  0.00    +0.000 OA
BRANCH  14  17
ATOM     17  C   UNL     1      -0.019   9.570  22.628  0.00  0.00    +0.000 C 
ATOM     18  F   UNL     1      -0.860   8.501  22.652  0.00  0.00    +0.000 F 
ATOM     19  F   UNL     1       1.054   9.221  23.389  0.00  0.00    +0.000 F 
ATOM     20  F   UNL     1      -0.652  10.562  23.309  0.00  0.00    +0.000 F 
ENDBRANCH  14  17
ENDBRANCH   5   7
BRANCH   1  21
ATOM     21  C   UNL     1       5.711   4.130  18.375  0.00  0.00    +0.000 C 
BRANCH  21  22
ATOM     22  C   UNL     1       6.644   4.537  17.226  0.00  0.00    +0.000 C 
BRANCH  22  28
ATOM     23  C   UNL     1       8.105   5.706  19.775  0.00  0.00    +0.000 C 
ATOM     24  N   UNL     1       7.796   6.403  18.557  0.00  0.00    +0.000 N 
ATOM     25  C   UNL     1       8.097   7.705  18.299  0.00  0.00    +0.000 A 
ATOM     26  N   UNL     1       7.682   8.022  17.097  0.00  0.00    +0.000 NA
ATOM     27  N   UNL     1       7.102   6.904  16.551  0.00  0.00    +0.000 NA
ATOM     28  C   UNL     1       7.166   5.924  17.433  0.00  0.00    +0.000 A 
ENDBRANCH  22  28
ENDBRANCH  21  22
ENDBRANCH   1  21
TORSDOF 5
ENDMDL
MODEL 9
REMARK VINA RESULT:      -8.5      4.173      8.899
REMARK  Name = 
REMARK  6 active torsions:
REMARK  status: ('A' for Active; 'I' for Inactive)
REMARK    1  A    between atoms: C_1  and  N_2
REMARK    2  A    between atoms: C_6  and  C_7
REMARK    3  A    between atoms: C_7  and  C_8
REMARK    4  A    between atoms: C_8  and  C_9
REMARK    5  A    between atoms: C_13  and  N_14
REMARK    6  A    between atoms: C_21  and  C_22
REMARK                            x       y       z     vdW  Elec       q    Type
REMARK                         _______ _______ _______ _____ _____    ______ ____
ROOT
ATOM      1  C   UNL     1       0.082  10.194  19.913  0.00  0.00    +0.000 A 
ATOM      2  C   UNL     1       0.012  10.232  21.310  0.00  0.00    +0.000 A 
ATOM      3  C   UNL     1       0.715   9.300  22.067  0.00  0.00    +0.000 A 
ATOM      4  C   UNL     1       1.483   8.325  21.434  0.00  0.00    +0.000 A 
ATOM      5  C   UNL     1       1.578   8.244  20.036  0.00  0.00    +0.000 A 
ATOM      6  C   UNL     1       0.883   9.212  19.286  0.00  0.00    +0.000 A 
ENDROOT
BRANCH   5   7
ATOM      7  N   UNL     1       2.309   7.183  19.425  0.00  0.00    +0.000 N 
ATOM      8  C   UNL     1       3.254   7.375  18.319  0.00  0.00    +0.000 C 
ATOM      9  C   UNL     1       3.637   5.974  17.941  0.00  0.00    +0.000 A 
ATOM     10  C   UNL     1       2.959   5.084  18.766  0.00  0.00    +0.000 A 
ATOM     11  C   UNL     1       3.087   3.726  18.631  0.00  0.00    +0.000 A 
ATOM     12  N   UNL     1       3.898   3.195  17.690  0.00  0.00    +0.000 NA
ATOM     13  C   UNL     1       4.577   4.066  16.894  0.00  0.00    +0.000 A 
ATOM     14  C   UNL     1       4.490   5.462  16.969  0.00  0.00    +0.000 A 
ATOM     15  C   UNL     1       2.144   5.824  19.709  0.00  0.00    +0.000 C 
ATOM     16  O   UNL     1       1.487   5.243  20.553  0.00  0.00    +0.000 OA
BRANCH  14  17
ATOM     17  C   UNL     1       5.312   6.278  16.031  0.00  0.00    +0.000 C 
ATOM     18  F   UNL     1       6.276   7.009  16.655  0.00  0.00    +0.000 F 
ATOM     19  F   UNL     1       5.960   5.511  15.112  0.00  0.00    +0.000 F 
ATOM     20  F   UNL     1       4.568   7.166  15.319  0.00  0.00    +0.000 F 
ENDBRANCH  14  17
ENDBRANCH   5   7
BRANCH   1  21
ATOM     21  C   UNL     1      -0.768  11.154  19.105  0.00  0.00    +0.000 C 
BRANCH  21  22
ATOM     22  C   UNL     1      -1.370  10.563  17.822  0.00  0.00    +0.000 C 
BRANCH  22  28
ATOM     23  C   UNL     1      -3.093  10.497  15.172  0.00  0.00    +0.000 C 
ATOM     24  N   UNL     1      -3.493  11.011  16.453  0.00  0.00    +0.000 N 
ATOM     25  C   UNL     1      -4.707  11.555  16.737  0.00  0.00    +0.000 A 
ATOM     26  N   UNL     1      -4.743  11.916  17.997  0.00  0.00    +0.000 NA
ATOM     27  N   UNL     1      -3.529  11.596  18.554  0.00  0.00    +0.000 NA
ATOM     28  C   UNL     1      -2.770  11.051  17.621  0.00  0.00    +0.000 A 
ENDBRANCH  22  28
ENDBRANCH  21  22
ENDBRANCH   1  21
TORSDOF 5
ENDMDL
