MODEL 1
REMARK VINA RESULT:      -9.3      0.000      0.000
REMARK  Name = 
REMARK  2 active torsions:
REMARK  status: ('A' for Active; 'I' for Inactive)
REMARK    1  A    between atoms: C_8  and  S_9
REMARK    2  A    between atoms: S_9  and  N_12
REMARK                            x       y       z     vdW  Elec       q    Type
REMARK                         _______ _______ _______ _____ _____    ______ ____
ROOT
ATOM      1  S   UNL     1       3.954   3.245  18.533  0.00  0.00    +0.000 S 
ATOM      2  O   UNL     1       2.946   2.484  17.821  0.00  0.00    +0.000 OA
ATOM      3  O   UNL     1       4.745   2.652  19.589  0.00  0.00    +0.000 OA
ENDROOT
BRANCH   1  11
ATOM      4  O   UNL     1       9.183   5.848  12.868  0.00  0.00    +0.000 OA
ATOM      5  C   UNL     1       8.115   5.336  13.233  0.00  0.00    +0.000 C 
ATOM      6  C   UNL     1       7.281   4.609  12.210  0.00  0.00    +0.000 C 
ATOM      7  C   UNL     1       6.293   3.567  12.679  0.00  0.00    +0.000 C 
ATOM      8  C   UNL     1       5.209   4.185  13.537  0.00  0.00    +0.000 C 
ATOM      9  C   UNL     1       5.643   4.296  14.970  0.00  0.00    +0.000 A 
ATOM     10  C   UNL     1       4.806   3.725  15.955  0.00  0.00    +0.000 A 
ATOM     11  C   UNL     1       5.099   3.859  17.316  0.00  0.00    +0.000 A 
ATOM     12  C   UNL     1       6.196   4.613  17.718  0.00  0.00    +0.000 A 
ATOM     13  C   UNL     1       7.024   5.181  16.747  0.00  0.00    +0.000 A 
ATOM     14  C   UNL     1       6.785   4.997  15.372  0.00  0.00    +0.000 A 
ATOM     15  N   UNL     1       7.771   5.529  14.527  0.00  0.00    +0.000 N 
ATOM     16  H   UNL     1       8.496   6.074  14.982  0.00  0.00    +0.000 HD
ENDBRANCH   1  11
BRANCH   1  17
ATOM     17  N   UNL     1       3.227   4.623  19.154  0.00  0.00    +0.000 NA
ATOM     18  C   UNL     1       2.116   4.509  20.134  0.00  0.00    +0.000 C 
ATOM     19  C   UNL     1       2.049   5.717  21.085  0.00  0.00    +0.000 C 
ATOM     20  C   UNL     1       1.975   6.960  20.237  0.00  0.00    +0.000 A 
ATOM     21  C   UNL     1       0.988   7.930  20.395  0.00  0.00    +0.000 A 
ATOM     22  F   UNL     1       0.123   7.849  21.415  0.00  0.00    +0.000 F 
ATOM     23  C   UNL     1       0.850   8.953  19.466  0.00  0.00    +0.000 A 
ATOM     24  C   UNL     1       1.722   9.006  18.385  0.00  0.00    +0.000 A 
ATOM     25  F   UNL     1       1.557   9.955  17.455  0.00  0.00    +0.000 F 
ATOM     26  C   UNL     1       2.750   8.075  18.231  0.00  0.00    +0.000 A 
ATOM     27  C   UNL     1       2.881   7.043  19.161  0.00  0.00    +0.000 A 
ATOM     28  C   UNL     1       3.895   5.928  19.027  0.00  0.00    +0.000 C 
ENDBRANCH   1  17
TORSDOF 2
ENDMDL
MODEL 2
REMARK VINA RESULT:      -8.8      3.670      7.979
REMARK  Name = 
REMARK  2 active torsions:
REMARK  status: ('A' for Active; 'I' for Inactive)
REMARK    1  A    between atoms: C_8  and  S_9
REMARK    2  A    between atoms: S_9  and  N_12
REMARK                            x       y       z     vdW  Elec       q    Type
REMARK                         _______ _______ _______ _____ _____    ______ ____
ROOT
ATOM      1  S   UNL     1       2.131   4.852  19.942  0.00  0.00    +0.000 S 
ATOM      2  O   UNL     1       2.394   4.496  21.323  0.00  0.00    +0.000 OA
ATOM      3  O   UNL     1       1.125   4.167  19.162  0.00  0.00    +0.000 OA
ENDROOT
BRANCH   1  11
ATOM      4  O   UNL     1       0.004  12.706  19.958  0.00  0.00    +0.000 OA
ATOM      5  C   UNL     1       0.210  11.617  20.513  0.00  0.00    +0.000 C 
ATOM      6  C   UNL     1      -0.301  11.418  21.916  0.00  0.00    +0.000 C 
ATOM      7  C   UNL     1      -0.535  10.011  22.417  0.00  0.00    +0.000 C 
ATOM      8  C   UNL     1       0.758   9.226  22.473  0.00  0.00    +0.000 C 
ATOM      9  C   UNL     1       1.081   8.608  21.143  0.00  0.00    +0.000 A 
ATOM     10  C   UNL     1       1.320   7.216  21.107  0.00  0.00    +0.000 A 
ATOM     11  C   UNL     1       1.708   6.582  19.923  0.00  0.00    +0.000 A 
ATOM     12  C   UNL     1       1.923   7.332  18.773  0.00  0.00    +0.000 A 
ATOM     13  C   UNL     1       1.692   8.709  18.806  0.00  0.00    +0.000 A 
ATOM     14  C   UNL     1       1.232   9.354  19.970  0.00  0.00    +0.000 A 
ATOM     15  N   UNL     1       0.932  10.715  19.809  0.00  0.00    +0.000 N 
ATOM     16  H   UNL     1       1.171  11.117  18.909  0.00  0.00    +0.000 HD
ENDBRANCH   1  11
BRANCH   1  17
ATOM     17  N   UNL     1       3.577   4.767  19.097  0.00  0.00    +0.000 NA
ATOM     18  C   UNL     1       4.728   5.622  19.489  0.00  0.00    +0.000 C 
ATOM     19  C   UNL     1       6.081   4.975  19.143  0.00  0.00    +0.000 C 
ATOM     20  C   UNL     1       6.060   4.634  17.676  0.00  0.00    +0.000 A 
ATOM     21  C   UNL     1       7.054   5.040  16.788  0.00  0.00    +0.000 A 
ATOM     22  F   UNL     1       8.152   5.657  17.243  0.00  0.00    +0.000 F 
ATOM     23  C   UNL     1       6.889   4.868  15.420  0.00  0.00    +0.000 A 
ATOM     24  C   UNL     1       5.726   4.268  14.950  0.00  0.00    +0.000 A 
ATOM     25  F   UNL     1       5.535   4.152  13.629  0.00  0.00    +0.000 F 
ATOM     26  C   UNL     1       4.739   3.808  15.822  0.00  0.00    +0.000 A 
ATOM     27  C   UNL     1       4.903   3.990  17.196  0.00  0.00    +0.000 A 
ATOM     28  C   UNL     1       3.847   3.621  18.214  0.00  0.00    +0.000 C 
ENDBRANCH   1  17
TORSDOF 2
ENDMDL
MODEL 3
REMARK VINA RESULT:      -8.5      3.637      7.433
REMARK  Name = 
REMARK  2 active torsions:
REMARK  status: ('A' for Active; 'I' for Inactive)
REMARK    1  A    between atoms: C_8  and  S_9
REMARK    2  A    between atoms: S_9  and  N_12
REMARK                            x       y       z     vdW  Elec       q    Type
REMARK                         _______ _______ _______ _____ _____    ______ ____
ROOT
ATOM      1  S   UNL     1       2.147   4.859  19.976  0.00  0.00    +0.000 S 
ATOM      2  O   UNL     1       2.397   4.355  21.313  0.00  0.00    +0.000 OA
ATOM      3  O   UNL     1       1.118   4.292  19.134  0.00  0.00    +0.000 OA
ENDROOT
BRANCH   1  11
ATOM      4  O   UNL     1       0.686  12.839  20.607  0.00  0.00    +0.000 OA
ATOM      5  C   UNL     1       0.986  11.819  19.971  0.00  0.00    +0.000 C 
ATOM      6  C   UNL     1       1.579  11.979  18.595  0.00  0.00    +0.000 C 
ATOM      7  C   UNL     1       2.412  10.856  18.022  0.00  0.00    +0.000 C 
ATOM      8  C   UNL     1       1.585   9.602  17.829  0.00  0.00    +0.000 C 
ATOM      9  C   UNL     1       1.516   8.793  19.092  0.00  0.00    +0.000 A 
ATOM     10  C   UNL     1       1.899   7.435  19.022  0.00  0.00    +0.000 A 
ATOM     11  C   UNL     1       1.784   6.595  20.135  0.00  0.00    +0.000 A 
ATOM     12  C   UNL     1       1.229   7.080  21.314  0.00  0.00    +0.000 A 
ATOM     13  C   UNL     1       0.846   8.421  21.385  0.00  0.00    +0.000 A 
ATOM     14  C   UNL     1       1.021   9.298  20.298  0.00  0.00    +0.000 A 
ATOM     15  N   UNL     1       0.700  10.638  20.566  0.00  0.00    +0.000 N 
ATOM     16  H   UNL     1       0.283  10.820  21.472  0.00  0.00    +0.000 HD
ENDBRANCH   1  11
BRANCH   1  17
ATOM     17  N   UNL     1       3.589   4.811  19.121  0.00  0.00    +0.000 NA
ATOM     18  C   UNL     1       4.710   5.715  19.487  0.00  0.00    +0.000 C 
ATOM     19  C   UNL     1       6.083   5.112  19.143  0.00  0.00    +0.000 C 
ATOM     20  C   UNL     1       6.065   4.742  17.684  0.00  0.00    +0.000 A 
ATOM     21  C   UNL     1       7.036   5.166  16.779  0.00  0.00    +0.000 A 
ATOM     22  F   UNL     1       8.114   5.832  17.214  0.00  0.00    +0.000 F 
ATOM     23  C   UNL     1       6.868   4.961  15.416  0.00  0.00    +0.000 A 
ATOM     24  C   UNL     1       5.724   4.309  14.967  0.00  0.00    +0.000 A 
ATOM     25  F   UNL     1       5.528   4.160  13.651  0.00  0.00    +0.000 F 
ATOM     26  C   UNL     1       4.762   3.830  15.856  0.00  0.00    +0.000 A 
ATOM     27  C   UNL     1       4.929   4.046  17.225  0.00  0.00    +0.000 A 
ATOM     28  C   UNL     1       3.894   3.658  18.259  0.00  0.00    +0.000 C 
ENDBRANCH   1  17
TORSDOF 2
ENDMDL
MODEL 4
REMARK VINA RESULT:      -8.3      5.099      7.850
REMARK  Name = 
REMARK  2 active torsions:
REMARK  status: ('A' for Active; 'I' for Inactive)
REMARK    1  A    between atoms: C_8  and  S_9
REMARK    2  A    between atoms: S_9  and  N_12
REMARK                            x       y       z     vdW  Elec       q    Type
REMARK                         _______ _______ _______ _____ _____    ______ ____
ROOT
ATOM      1  S   UNL     1       1.133  11.453  19.725  0.00  0.00    +0.000 S 
ATOM      2  O   UNL     1       1.376  12.123  20.988  0.00  0.00    +0.000 OA
ATOM      3  O   UNL     1       1.914  11.754  18.546  0.00  0.00    +0.000 OA
ENDROOT
BRANCH   1  11
ATOM      4  O   UNL     1       1.814   3.428  20.885  0.00  0.00    +0.000 OA
ATOM      5  C   UNL     1       1.995   4.469  20.237  0.00  0.00    +0.000 C 
ATOM      6  C   UNL     1       2.418   4.354  18.796  0.00  0.00    +0.000 C 
ATOM      7  C   UNL     1       2.150   5.509  17.859  0.00  0.00    +0.000 C 
ATOM      8  C   UNL     1       2.915   6.746  18.279  0.00  0.00    +0.000 C 
ATOM      9  C   UNL     1       2.165   7.526  19.321  0.00  0.00    +0.000 A 
ATOM     10  C   UNL     1       1.922   8.894  19.067  0.00  0.00    +0.000 A 
ATOM     11  C   UNL     1       1.303   9.706  20.023  0.00  0.00    +0.000 A 
ATOM     12  C   UNL     1       0.973   9.182  21.268  0.00  0.00    +0.000 A 
ATOM     13  C   UNL     1       1.215   7.831  21.523  0.00  0.00    +0.000 A 
ATOM     14  C   UNL     1       1.771   6.982  20.548  0.00  0.00    +0.000 A 
ATOM     15  N   UNL     1       1.840   5.629  20.915  0.00  0.00    +0.000 N 
ATOM     16  H   UNL     1       1.581   5.418  21.873  0.00  0.00    +0.000 HD
ENDBRANCH   1  11
BRANCH   1  17
ATOM     17  N   UNL     1      -0.484  11.654  19.330  0.00  0.00    +0.000 NA
ATOM     18  C   UNL     1      -1.526  11.617  20.389  0.00  0.00    +0.000 C 
ATOM     19  C   UNL     1      -2.756  12.468  20.028  0.00  0.00    +0.000 C 
ATOM     20  C   UNL     1      -3.252  12.005  18.683  0.00  0.00    +0.000 A 
ATOM     21  C   UNL     1      -4.572  11.628  18.448  0.00  0.00    +0.000 A 
ATOM     22  F   UNL     1      -5.497  11.788  19.404  0.00  0.00    +0.000 F 
ATOM     23  C   UNL     1      -4.931  11.026  17.249  0.00  0.00    +0.000 A 
ATOM     24  C   UNL     1      -3.957  10.821  16.279  0.00  0.00    +0.000 A 
ATOM     25  F   UNL     1      -4.284  10.188  15.145  0.00  0.00    +0.000 F 
ATOM     26  C   UNL     1      -2.638  11.234  16.470  0.00  0.00    +0.000 A 
ATOM     27  C   UNL     1      -2.279  11.830  17.680  0.00  0.00    +0.000 A 
ATOM     28  C   UNL     1      -0.857  12.219  18.024  0.00  0.00    +0.000 C 
ENDBRANCH   1  17
TORSDOF 2
ENDMDL
MODEL 5
REMARK VINA RESULT:      -8.3      6.844     11.480
REMARK  Name = 
REMARK  2 active torsions:
REMARK  status: ('A' for Active; 'I' for Inactive)
REMARK    1  A    between atoms: C_8  and  S_9
REMARK    2  A    between atoms: S_9  and  N_12
REMARK                            x       y       z     vdW  Elec       q    Type
REMARK                         _______ _______ _______ _____ _____    ______ ____
ROOT
ATOM      1  S   UNL     1       0.481  12.495  20.429  0.00  0.00    +0.000 S 
ATOM      2  O   UNL     1       0.623  13.126  19.131  0.00  0.00    +0.000 OA
ATOM      3  O   UNL     1       1.213  12.967  21.584  0.00  0.00    +0.000 OA
ENDROOT
BRANCH   1  11
ATOM      4  O   UNL     1      -7.378  12.645  22.531  0.00  0.00    +0.000 OA
ATOM      5  C   UNL     1      -6.168  12.759  22.773  0.00  0.00    +0.000 C 
ATOM      6  C   UNL     1      -5.724  12.792  24.213  0.00  0.00    +0.000 C 
ATOM      7  C   UNL     1      -4.301  12.413  24.549  0.00  0.00    +0.000 C 
ATOM      8  C   UNL     1      -3.313  13.378  23.927  0.00  0.00    +0.000 C 
ATOM      9  C   UNL     1      -2.992  12.996  22.511  0.00  0.00    +0.000 A 
ATOM     10  C   UNL     1      -1.631  12.834  22.168  0.00  0.00    +0.000 A 
ATOM     11  C   UNL     1      -1.247  12.560  20.852  0.00  0.00    +0.000 A 
ATOM     12  C   UNL     1      -2.206  12.504  19.848  0.00  0.00    +0.000 A 
ATOM     13  C   UNL     1      -3.552  12.667  20.182  0.00  0.00    +0.000 A 
ATOM     14  C   UNL     1      -3.964  12.872  21.513  0.00  0.00    +0.000 A 
ATOM     15  N   UNL     1      -5.354  12.897  21.702  0.00  0.00    +0.000 N 
ATOM     16  H   UNL     1      -5.915  12.868  20.857  0.00  0.00    +0.000 HD
ENDBRANCH   1  11
BRANCH   1  17
ATOM     17  N   UNL     1       0.807  10.859  20.253  0.00  0.00    +0.000 NA
ATOM     18  C   UNL     1       0.928   9.985  21.448  0.00  0.00    +0.000 C 
ATOM     19  C   UNL     1       0.528   8.529  21.150  0.00  0.00    +0.000 C 
ATOM     20  C   UNL     1       1.352   8.061  19.979  0.00  0.00    +0.000 A 
ATOM     21  C   UNL     1       2.112   6.894  20.003  0.00  0.00    +0.000 A 
ATOM     22  F   UNL     1       2.035   6.062  21.050  0.00  0.00    +0.000 F 
ATOM     23  C   UNL     1       3.003   6.611  18.975  0.00  0.00    +0.000 A 
ATOM     24  C   UNL     1       3.112   7.501  17.913  0.00  0.00    +0.000 A 
ATOM     25  F   UNL     1       4.011   7.264  16.949  0.00  0.00    +0.000 F 
ATOM     26  C   UNL     1       2.326   8.652  17.842  0.00  0.00    +0.000 A 
ATOM     27  C   UNL     1       1.439   8.938  18.880  0.00  0.00    +0.000 A 
ATOM     28  C   UNL     1       0.620  10.209  18.946  0.00  0.00    +0.000 C 
ENDBRANCH   1  17
TORSDOF 2
ENDMDL
MODEL 6
REMARK VINA RESULT:      -8.3      7.456     12.012
REMARK  Name = 
REMARK  2 active torsions:
REMARK  status: ('A' for Active; 'I' for Inactive)
REMARK    1  A    between atoms: C_8  and  S_9
REMARK    2  A    between atoms: S_9  and  N_12
REMARK                            x       y       z     vdW  Elec       q    Type
REMARK                         _______ _______ _______ _____ _____    ______ ____
ROOT
ATOM      1  S   UNL     1      -0.421  13.071  21.053  0.00  0.00    +0.000 S 
ATOM      2  O   UNL     1      -0.568  13.716  19.763  0.00  0.00    +0.000 OA
ATOM      3  O   UNL     1       0.461  13.602  22.068  0.00  0.00    +0.000 OA
ENDROOT
BRANCH   1  11
ATOM      4  O   UNL     1      -7.911  12.825  24.223  0.00  0.00    +0.000 OA
ATOM      5  C   UNL     1      -7.110  12.778  23.279  0.00  0.00    +0.000 C 
ATOM      6  C   UNL     1      -7.647  12.894  21.876  0.00  0.00    +0.000 C 
ATOM      7  C   UNL     1      -6.721  13.355  20.774  0.00  0.00    +0.000 C 
ATOM      8  C   UNL     1      -5.588  12.374  20.562  0.00  0.00    +0.000 C 
ATOM      9  C   UNL     1      -4.453  12.636  21.510  0.00  0.00    +0.000 A 
ATOM     10  C   UNL     1      -3.165  12.816  20.957  0.00  0.00    +0.000 A 
ATOM     11  C   UNL     1      -2.045  12.982  21.777  0.00  0.00    +0.000 A 
ATOM     12  C   UNL     1      -2.182  12.910  23.159  0.00  0.00    +0.000 A 
ATOM     13  C   UNL     1      -3.453  12.729  23.709  0.00  0.00    +0.000 A 
ATOM     14  C   UNL     1      -4.601  12.632  22.900  0.00  0.00    +0.000 A 
ATOM     15  N   UNL     1      -5.813  12.573  23.605  0.00  0.00    +0.000 N 
ATOM     16  H   UNL     1      -5.735  12.504  24.614  0.00  0.00    +0.000 HD
ENDBRANCH   1  11
BRANCH   1  17
ATOM     17  N   UNL     1       0.007  11.471  20.791  0.00  0.00    +0.000 NA
ATOM     18  C   UNL     1       0.323  10.581  21.938  0.00  0.00    +0.000 C 
ATOM     19  C   UNL     1       0.005   9.105  21.638  0.00  0.00    +0.000 C 
ATOM     20  C   UNL     1       0.732   8.732  20.373  0.00  0.00    +0.000 A 
ATOM     21  C   UNL     1       1.577   7.629  20.279  0.00  0.00    +0.000 A 
ATOM     22  F   UNL     1       1.676   6.769  21.301  0.00  0.00    +0.000 F 
ATOM     23  C   UNL     1       2.370   7.441  19.154  0.00  0.00    +0.000 A 
ATOM     24  C   UNL     1       2.296   8.362  18.115  0.00  0.00    +0.000 A 
ATOM     25  F   UNL     1       3.101   8.220  17.054  0.00  0.00    +0.000 F 
ATOM     26  C   UNL     1       1.422   9.448  18.164  0.00  0.00    +0.000 A 
ATOM     27  C   UNL     1       0.632   9.638  19.299  0.00  0.00    +0.000 A 
ATOM     28  C   UNL     1      -0.269  10.839  19.492  0.00  0.00    +0.000 C 
ENDBRANCH   1  17
TORSDOF 2
ENDMDL
MODEL 7
REMARK VINA RESULT:      -8.3      6.076      9.373
REMARK  Name = 
REMARK  2 active torsions:
REMARK  status: ('A' for Active; 'I' for Inactive)
REMARK    1  A    between atoms: C_8  and  S_9
REMARK    2  A    between atoms: S_9  and  N_12
REMARK                            x       y       z     vdW  Elec       q    Type
REMARK                         _______ _______ _______ _____ _____    ______ ____
ROOT
ATOM      1  S   UNL     1      -0.504  10.526  19.462  0.00  0.00    +0.000 S 
ATOM      2  O   UNL     1      -0.796  10.568  20.882  0.00  0.00    +0.000 OA
ATOM      3  O   UNL     1      -1.552  10.365  18.478  0.00  0.00    +0.000 OA
ENDROOT
BRANCH   1  11
ATOM      4  O   UNL     1       3.225  17.489  17.507  0.00  0.00    +0.000 OA
ATOM      5  C   UNL     1       2.268  16.834  17.943  0.00  0.00    +0.000 C 
ATOM      6  C   UNL     1       0.938  17.525  18.101  0.00  0.00    +0.000 C 
ATOM      7  C   UNL     1      -0.322  16.692  18.120  0.00  0.00    +0.000 C 
ATOM      8  C   UNL     1      -0.346  15.758  19.312  0.00  0.00    +0.000 C 
ATOM      9  C   UNL     1       0.392  14.483  19.022  0.00  0.00    +0.000 A 
ATOM     10  C   UNL     1      -0.295  13.266  19.230  0.00  0.00    +0.000 A 
ATOM     11  C   UNL     1       0.350  12.036  19.062  0.00  0.00    +0.000 A 
ATOM     12  C   UNL     1       1.703  12.001  18.745  0.00  0.00    +0.000 A 
ATOM     13  C   UNL     1       2.386  13.202  18.543  0.00  0.00    +0.000 A 
ATOM     14  C   UNL     1       1.736  14.447  18.637  0.00  0.00    +0.000 A 
ATOM     15  N   UNL     1       2.528  15.552  18.289  0.00  0.00    +0.000 N 
ATOM     16  H   UNL     1       3.506  15.355  18.105  0.00  0.00    +0.000 HD
ENDBRANCH   1  11
BRANCH   1  17
ATOM     17  N   UNL     1       0.633   9.321  19.197  0.00  0.00    +0.000 NA
ATOM     18  C   UNL     1       1.152   9.066  17.828  0.00  0.00    +0.000 C 
ATOM     19  C   UNL     1       2.583   8.502  17.842  0.00  0.00    +0.000 C 
ATOM     20  C   UNL     1       2.581   7.277  18.719  0.00  0.00    +0.000 A 
ATOM     21  C   UNL     1       3.067   6.041  18.300  0.00  0.00    +0.000 A 
ATOM     22  F   UNL     1       3.683   5.927  17.116  0.00  0.00    +0.000 F 
ATOM     23  C   UNL     1       2.864   4.904  19.072  0.00  0.00    +0.000 A 
ATOM     24  C   UNL     1       2.183   5.021  20.279  0.00  0.00    +0.000 A 
ATOM     25  F   UNL     1       1.932   3.921  21.000  0.00  0.00    +0.000 F 
ATOM     26  C   UNL     1       1.730   6.256  20.744  0.00  0.00    +0.000 A 
ATOM     27  C   UNL     1       1.928   7.395  19.962  0.00  0.00    +0.000 A 
ATOM     28  C   UNL     1       1.385   8.759  20.329  0.00  0.00    +0.000 C 
ENDBRANCH   1  17
TORSDOF 2
ENDMDL
MODEL 8
REMARK VINA RESULT:      -8.1      4.362      6.793
REMARK  Name = 
REMARK  2 active torsions:
REMARK  status: ('A' for Active; 'I' for Inactive)
REMARK    1  A    between atoms: C_8  and  S_9
REMARK    2  A    between atoms: S_9  and  N_12
REMARK                            x       y       z     vdW  Elec       q    Type
REMARK                         _______ _______ _______ _____ _____    ______ ____
ROOT
ATOM      1  S   UNL     1       0.737   9.660  21.421  0.00  0.00    +0.000 S 
ATOM      2  O   UNL     1       0.067   8.992  22.520  0.00  0.00    +0.000 OA
ATOM      3  O   UNL     1       1.759  10.656  21.652  0.00  0.00    +0.000 OA
ENDROOT
BRANCH   1  11
ATOM      4  O   UNL     1       4.201   3.782  16.988  0.00  0.00    +0.000 OA
ATOM      5  C   UNL     1       3.528   4.192  17.945  0.00  0.00    +0.000 C 
ATOM      6  C   UNL     1       3.245   3.245  19.082  0.00  0.00    +0.000 C 
ATOM      7  C   UNL     1       2.906   3.814  20.440  0.00  0.00    +0.000 C 
ATOM      8  C   UNL     1       1.612   4.600  20.399  0.00  0.00    +0.000 C 
ATOM      9  C   UNL     1       1.846   6.016  19.958  0.00  0.00    +0.000 A 
ATOM     10  C   UNL     1       1.366   7.050  20.792  0.00  0.00    +0.000 A 
ATOM     11  C   UNL     1       1.472   8.392  20.411  0.00  0.00    +0.000 A 
ATOM     12  C   UNL     1       2.001   8.719  19.168  0.00  0.00    +0.000 A 
ATOM     13  C   UNL     1       2.474   7.699  18.340  0.00  0.00    +0.000 A 
ATOM     14  C   UNL     1       2.441   6.349  18.737  0.00  0.00    +0.000 A 
ATOM     15  N   UNL     1       3.061   5.458  17.848  0.00  0.00    +0.000 N 
ATOM     16  H   UNL     1       3.377   5.858  16.970  0.00  0.00    +0.000 HD
ENDBRANCH   1  11
BRANCH   1  17
ATOM     17  N   UNL     1      -0.434  10.351  20.437  0.00  0.00    +0.000 NA
ATOM     18  C   UNL     1      -1.583  11.078  21.035  0.00  0.00    +0.000 C 
ATOM     19  C   UNL     1      -2.122  12.182  20.109  0.00  0.00    +0.000 C 
ATOM     20  C   UNL     1      -2.440  11.547  18.781  0.00  0.00    +0.000 A 
ATOM     21  C   UNL     1      -3.677  11.675  18.154  0.00  0.00    +0.000 A 
ATOM     22  F   UNL     1      -4.609  12.492  18.665  0.00  0.00    +0.000 F 
ATOM     23  C   UNL     1      -3.983  10.914  17.033  0.00  0.00    +0.000 A 
ATOM     24  C   UNL     1      -3.028  10.034  16.534  0.00  0.00    +0.000 A 
ATOM     25  F   UNL     1      -3.337   9.255  15.490  0.00  0.00    +0.000 F 
ATOM     26  C   UNL     1      -1.764   9.924  17.114  0.00  0.00    +0.000 A 
ATOM     27  C   UNL     1      -1.464  10.684  18.246  0.00  0.00    +0.000 A 
ATOM     28  C   UNL     1      -0.161  10.561  19.007  0.00  0.00    +0.000 C 
ENDBRANCH   1  17
TORSDOF 2
ENDMDL
MODEL 9
REMARK VINA RESULT:      -8.1      6.741     11.217
REMARK  Name = 
REMARK  2 active torsions:
REMARK  status: ('A' for Active; 'I' for Inactive)
REMARK    1  A    between atoms: C_8  and  S_9
REMARK    2  A    between atoms: S_9  and  N_12
REMARK                            x       y       z     vdW  Elec       q    Type
REMARK                         _______ _______ _______ _____ _____    ______ ____
ROOT
ATOM      1  S   UNL     1       0.771  12.457  20.497  0.00  0.00    +0.000 S 
ATOM      2  O   UNL     1       0.661  13.078  19.191  0.00  0.00    +0.000 OA
ATOM      3  O   UNL     1       1.727  12.920  21.477  0.00  0.00    +0.000 OA
ENDROOT
BRANCH   1  11
ATOM      4  O   UNL     1      -6.609  13.110  23.862  0.00  0.00    +0.000 OA
ATOM      5  C   UNL     1      -5.837  13.073  22.893  0.00  0.00    +0.000 C 
ATOM      6  C   UNL     1      -6.347  13.527  21.551  0.00  0.00    +0.000 C 
ATOM      7  C   UNL     1      -5.355  13.984  20.507  0.00  0.00    +0.000 C 
ATOM      8  C   UNL     1      -4.435  12.855  20.092  0.00  0.00    +0.000 C 
ATOM      9  C   UNL     1      -3.266  12.729  21.026  0.00  0.00    +0.000 A 
ATOM     10  C   UNL     1      -1.971  12.751  20.463  0.00  0.00    +0.000 A 
ATOM     11  C   UNL     1      -0.836  12.557  21.257  0.00  0.00    +0.000 A 
ATOM     12  C   UNL     1      -0.978  12.278  22.612  0.00  0.00    +0.000 A 
ATOM     13  C   UNL     1      -2.257  12.252  23.171  0.00  0.00    +0.000 A 
ATOM     14  C   UNL     1      -3.406  12.516  22.401  0.00  0.00    +0.000 A 
ATOM     15  N   UNL     1      -4.603  12.571  23.131  0.00  0.00    +0.000 N 
ATOM     16  H   UNL     1      -4.536  12.317  24.111  0.00  0.00    +0.000 HD
ENDBRANCH   1  11
BRANCH   1  17
ATOM     17  N   UNL     1       1.024  10.814  20.274  0.00  0.00    +0.000 NA
ATOM     18  C   UNL     1       1.099   9.900  21.443  0.00  0.00    +0.000 C 
ATOM     19  C   UNL     1       0.636   8.473  21.099  0.00  0.00    +0.000 C 
ATOM     20  C   UNL     1       1.447   8.004  19.920  0.00  0.00    +0.000 A 
ATOM     21  C   UNL     1       2.154   6.803  19.913  0.00  0.00    +0.000 A 
ATOM     22  F   UNL     1       2.032   5.945  20.934  0.00  0.00    +0.000 F 
ATOM     23  C   UNL     1       3.038   6.511  18.882  0.00  0.00    +0.000 A 
ATOM     24  C   UNL     1       3.194   7.427  17.847  0.00  0.00    +0.000 A 
ATOM     25  F   UNL     1       4.088   7.179  16.881  0.00  0.00    +0.000 F 
ATOM     26  C   UNL     1       2.461   8.613  17.806  0.00  0.00    +0.000 A 
ATOM     27  C   UNL     1       1.580   8.908  18.848  0.00  0.00    +0.000 A 
ATOM     28  C   UNL     1       0.818  10.211  18.947  0.00  0.00    +0.000 C 
ENDBRANCH   1  17
TORSDOF 2
ENDMDL
