MODEL 1
REMARK VINA RESULT:      -9.1      0.000      0.000
REMARK  Name = 
REMARK  6 active torsions:
REMARK  status: ('A' for Active; 'I' for Inactive)
REMARK    1  A    between atoms: C_1  and  N_2
REMARK    2  A    between atoms: C_6  and  C_7
REMARK    3  A    between atoms: C_7  and  C_8
REMARK    4  A    between atoms: C_8  and  C_9
REMARK    5  A    between atoms: C_13  and  N_14
REMARK    6  A    between atoms: C_21  and  C_22
REMARK                            x       y       z     vdW  Elec       q    Type
REMARK                         _______ _______ _______ _____ _____    ______ ____
ROOT
ATOM      1  C   UNL     1       4.108   4.667  17.827  0.00  0.00    +0.000 C 
ATOM      2  C   UNL     1       3.912   3.640  18.673  0.00  0.00    +0.000 C 
ATOM      3  C   UNL     1       3.000   3.747  19.855  0.00  0.00    +0.000 C 
ATOM      4  C   UNL     1       2.734   5.187  20.314  0.00  0.00    +0.000 C 
ATOM      5  C   UNL     1       2.757   6.216  19.198  0.00  0.00    +0.000 C 
ATOM      6  C   UNL     1       3.395   5.922  18.045  0.00  0.00    +0.000 C 
ENDROOT
BRANCH   5   7
ATOM      7  N   UNL     1       2.123   7.440  19.406  0.00  0.00    +0.000 N 
ATOM      8  C   UNL     1       1.443   7.787  20.653  0.00  0.00    +0.000 C 
ATOM      9  C   UNL     1       0.937   9.174  20.416  0.00  0.00    +0.000 A 
ATOM     10  C   UNL     1       1.292   9.579  19.133  0.00  0.00    +0.000 A 
ATOM     11  C   UNL     1       0.978  10.824  18.622  0.00  0.00    +0.000 A 
ATOM     12  C   UNL     1       0.263  11.693  19.444  0.00  0.00    +0.000 A 
ATOM     13  C   UNL     1      -0.114  11.297  20.741  0.00  0.00    +0.000 A 
ATOM     14  C   UNL     1       0.221  10.025  21.251  0.00  0.00    +0.000 A 
ATOM     15  C   UNL     1       2.019   8.487  18.478  0.00  0.00    +0.000 C 
ATOM     16  O   UNL     1       2.407   8.576  17.328  0.00  0.00    +0.000 OA
BRANCH  14  17
ATOM     17  C   UNL     1      -0.197   9.639  22.646  0.00  0.00    +0.000 C 
ATOM     18  F   UNL     1      -0.970   8.518  22.695  0.00  0.00    +0.000 F 
ATOM     19  F   UNL     1       0.866   9.393  23.457  0.00  0.00    +0.000 F 
ATOM     20  F   UNL     1      -0.922  10.615  23.258  0.00  0.00    +0.000 F 
ENDBRANCH  14  17
ENDBRANCH   5   7
BRANCH   1  21
ATOM     21  C   UNL     1       5.050   4.593  16.640  0.00  0.00    +0.000 C 
BRANCH  21  22
ATOM     22  C   UNL     1       6.533   4.496  17.017  0.00  0.00    +0.000 C 
BRANCH  22  28
ATOM     23  C   UNL     1       7.844   5.454  19.713  0.00  0.00    +0.000 C 
ATOM     24  N   UNL     1       7.665   6.229  18.516  0.00  0.00    +0.000 N 
ATOM     25  C   UNL     1       8.042   7.527  18.352  0.00  0.00    +0.000 A 
ATOM     26  N   UNL     1       7.739   7.922  17.140  0.00  0.00    +0.000 NA
ATOM     27  N   UNL     1       7.148   6.862  16.495  0.00  0.00    +0.000 NA
ATOM     28  C   UNL     1       7.102   5.842  17.326  0.00  0.00    +0.000 A 
ENDBRANCH  22  28
ENDBRANCH  21  22
ENDBRANCH   1  21
TORSDOF 5
ENDMDL
MODEL 2
REMARK VINA RESULT:      -9.1      2.390      3.827
REMARK  Name = 
REMARK  6 active torsions:
REMARK  status: ('A' for Active; 'I' for Inactive)
REMARK    1  A    between atoms: C_1  and  N_2
REMARK    2  A    between atoms: C_6  and  C_7
REMARK    3  A    between atoms: C_7  and  C_8
REMARK    4  A    between atoms: C_8  and  C_9
REMARK    5  A    between atoms: C_13  and  N_14
REMARK    6  A    between atoms: C_21  and  C_22
REMARK                            x       y       z     vdW  Elec       q    Type
REMARK                         _______ _______ _______ _____ _____    ______ ____
ROOT
ATOM      1  C   UNL     1       2.826   4.712  17.707  0.00  0.00    +0.000 C 
ATOM      2  C   UNL     1       4.164   4.741  17.576  0.00  0.00    +0.000 C 
ATOM      3  C   UNL     1       4.976   5.936  17.969  0.00  0.00    +0.000 C 
ATOM      4  C   UNL     1       4.177   7.245  18.027  0.00  0.00    +0.000 C 
ATOM      5  C   UNL     1       2.721   7.076  18.421  0.00  0.00    +0.000 C 
ATOM      6  C   UNL     1       2.136   5.868  18.272  0.00  0.00    +0.000 C 
ENDROOT
BRANCH   5   7
ATOM      7  N   UNL     1       2.031   8.181  18.916  0.00  0.00    +0.000 N 
ATOM      8  C   UNL     1       1.432   8.219  20.249  0.00  0.00    +0.000 C 
ATOM      9  C   UNL     1       0.825   9.583  20.334  0.00  0.00    +0.000 A 
ATOM     10  C   UNL     1       1.052  10.262  19.141  0.00  0.00    +0.000 A 
ATOM     11  C   UNL     1       0.623  11.556  18.917  0.00  0.00    +0.000 A 
ATOM     12  C   UNL     1      -0.077  12.186  19.944  0.00  0.00    +0.000 A 
ATOM     13  C   UNL     1      -0.326  11.512  21.154  0.00  0.00    +0.000 A 
ATOM     14  C   UNL     1       0.125  10.193  21.370  0.00  0.00    +0.000 A 
ATOM     15  C   UNL     1       1.791   9.381  18.231  0.00  0.00    +0.000 C 
ATOM     16  O   UNL     1       2.082   9.728  17.101  0.00  0.00    +0.000 OA
BRANCH  14  17
ATOM     17  C   UNL     1      -0.157   9.505  22.680  0.00  0.00    +0.000 C 
ATOM     18  F   UNL     1       0.966   9.162  23.371  0.00  0.00    +0.000 F 
ATOM     19  F   UNL     1      -0.891  10.278  23.524  0.00  0.00    +0.000 F 
ATOM     20  F   UNL     1      -0.859   8.350  22.517  0.00  0.00    +0.000 F 
ENDBRANCH  14  17
ENDBRANCH   5   7
BRANCH   1  21
ATOM     21  C   UNL     1       1.979   3.525  17.288  0.00  0.00    +0.000 C 
BRANCH  21  22
ATOM     22  C   UNL     1       2.258   2.241  18.079  0.00  0.00    +0.000 C 
BRANCH  22  28
ATOM     23  C   UNL     1       4.503   2.159  20.283  0.00  0.00    +0.000 C 
ATOM     24  N   UNL     1       3.104   2.419  20.484  0.00  0.00    +0.000 N 
ATOM     25  C   UNL     1       2.513   2.678  21.683  0.00  0.00    +0.000 A 
ATOM     26  N   UNL     1       1.230   2.877  21.506  0.00  0.00    +0.000 NA
ATOM     27  N   UNL     1       0.972   2.744  20.163  0.00  0.00    +0.000 NA
ATOM     28  C   UNL     1       2.102   2.466  19.547  0.00  0.00    +0.000 A 
ENDBRANCH  22  28
ENDBRANCH  21  22
ENDBRANCH   1  21
TORSDOF 5
ENDMDL
MODEL 3
REMARK VINA RESULT:      -9.0      1.614      2.493
REMARK  Name = 
REMARK  6 active torsions:
REMARK  status: ('A' for Active; 'I' for Inactive)
REMARK    1  A    between atoms: C_1  and  N_2
REMARK    2  A    between atoms: C_6  and  C_7
REMARK    3  A    between atoms: C_7  and  C_8
REMARK    4  A    between atoms: C_8  and  C_9
REMARK    5  A    between atoms: C_13  and  N_14
REMARK    6  A    between atoms: C_21  and  C_22
REMARK                            x       y       z     vdW  Elec       q    Type
REMARK                         _______ _______ _______ _____ _____    ______ ____
ROOT
ATOM      1  C   UNL     1       4.454   4.625  18.086  0.00  0.00    +0.000 C 
ATOM      2  C   UNL     1       4.065   3.547  18.789  0.00  0.00    +0.000 C 
ATOM      3  C   UNL     1       2.919   3.595  19.751  0.00  0.00    +0.000 C 
ATOM      4  C   UNL     1       2.578   5.006  20.249  0.00  0.00    +0.000 C 
ATOM      5  C   UNL     1       2.857   6.111  19.246  0.00  0.00    +0.000 C 
ATOM      6  C   UNL     1       3.726   5.881  18.239  0.00  0.00    +0.000 C 
ENDROOT
BRANCH   5   7
ATOM      7  N   UNL     1       2.208   7.335  19.405  0.00  0.00    +0.000 N 
ATOM      8  C   UNL     1       1.543   7.733  20.644  0.00  0.00    +0.000 C 
ATOM      9  C   UNL     1       1.014   9.100  20.347  0.00  0.00    +0.000 A 
ATOM     10  C   UNL     1       1.344   9.447  19.041  0.00  0.00    +0.000 A 
ATOM     11  C   UNL     1       1.004  10.661  18.476  0.00  0.00    +0.000 A 
ATOM     12  C   UNL     1       0.289  11.559  19.266  0.00  0.00    +0.000 A 
ATOM     13  C   UNL     1      -0.063  11.222  20.586  0.00  0.00    +0.000 A 
ATOM     14  C   UNL     1       0.297   9.981  21.152  0.00  0.00    +0.000 A 
ATOM     15  C   UNL     1       2.076   8.334  18.429  0.00  0.00    +0.000 C 
ATOM     16  O   UNL     1       2.446   8.372  17.270  0.00  0.00    +0.000 OA
BRANCH  14  17
ATOM     17  C   UNL     1      -0.094   9.658  22.570  0.00  0.00    +0.000 C 
ATOM     18  F   UNL     1      -0.792  10.654  23.185  0.00  0.00    +0.000 F 
ATOM     19  F   UNL     1      -0.877   8.550  22.652  0.00  0.00    +0.000 F 
ATOM     20  F   UNL     1       0.986   9.418  23.363  0.00  0.00    +0.000 F 
ENDBRANCH  14  17
ENDBRANCH   5   7
BRANCH   1  21
ATOM     21  C   UNL     1       5.630   4.608  17.128  0.00  0.00    +0.000 C 
BRANCH  21  22
ATOM     22  C   UNL     1       5.255   4.296  15.674  0.00  0.00    +0.000 C 
BRANCH  22  28
ATOM     23  C   UNL     1       5.627   3.396  12.682  0.00  0.00    +0.000 C 
ATOM     24  N   UNL     1       6.489   4.264  13.437  0.00  0.00    +0.000 N 
ATOM     25  C   UNL     1       7.627   4.847  12.970  0.00  0.00    +0.000 A 
ATOM     26  N   UNL     1       8.164   5.580  13.914  0.00  0.00    +0.000 NA
ATOM     27  N   UNL     1       7.364   5.473  15.027  0.00  0.00    +0.000 NA
ATOM     28  C   UNL     1       6.355   4.677  14.738  0.00  0.00    +0.000 A 
ENDBRANCH  22  28
ENDBRANCH  21  22
ENDBRANCH   1  21
TORSDOF 5
ENDMDL
MODEL 4
REMARK VINA RESULT:      -8.9      1.176      2.000
REMARK  Name = 
REMARK  6 active torsions:
REMARK  status: ('A' for Active; 'I' for Inactive)
REMARK    1  A    between atoms: C_1  and  N_2
REMARK    2  A    between atoms: C_6  and  C_7
REMARK    3  A    between atoms: C_7  and  C_8
REMARK    4  A    between atoms: C_8  and  C_9
REMARK    5  A    between atoms: C_13  and  N_14
REMARK    6  A    between atoms: C_21  and  C_22
REMARK                            x       y       z     vdW  Elec       q    Type
REMARK                         _______ _______ _______ _____ _____    ______ ____
ROOT
ATOM      1  C   UNL     1       4.775   4.930  19.100  0.00  0.00    +0.000 C 
ATOM      2  C   UNL     1       4.088   3.796  18.878  0.00  0.00    +0.000 C 
ATOM      3  C   UNL     1       2.594   3.775  18.786  0.00  0.00    +0.000 C 
ATOM      4  C   UNL     1       1.908   4.974  19.455  0.00  0.00    +0.000 C 
ATOM      5  C   UNL     1       2.716   6.259  19.421  0.00  0.00    +0.000 C 
ATOM      6  C   UNL     1       4.051   6.191  19.232  0.00  0.00    +0.000 C 
ENDROOT
BRANCH   5   7
ATOM      7  N   UNL     1       2.049   7.471  19.595  0.00  0.00    +0.000 N 
ATOM      8  C   UNL     1       1.370   7.839  20.835  0.00  0.00    +0.000 C 
ATOM      9  C   UNL     1       0.823   9.203  20.557  0.00  0.00    +0.000 A 
ATOM     10  C   UNL     1       1.156   9.575  19.259  0.00  0.00    +0.000 A 
ATOM     11  C   UNL     1       0.803  10.794  18.711  0.00  0.00    +0.000 A 
ATOM     12  C   UNL     1       0.070  11.669  19.510  0.00  0.00    +0.000 A 
ATOM     13  C   UNL     1      -0.286  11.305  20.822  0.00  0.00    +0.000 A 
ATOM     14  C   UNL     1       0.088  10.060  21.371  0.00  0.00    +0.000 A 
ATOM     15  C   UNL     1       1.909   8.483  18.634  0.00  0.00    +0.000 C 
ATOM     16  O   UNL     1       2.287   8.546  17.478  0.00  0.00    +0.000 OA
BRANCH  14  17
ATOM     17  C   UNL     1      -0.308   9.708  22.780  0.00  0.00    +0.000 C 
ATOM     18  F   UNL     1       0.753   9.500  23.611  0.00  0.00    +0.000 F 
ATOM     19  F   UNL     1      -1.054  10.681  23.368  0.00  0.00    +0.000 F 
ATOM     20  F   UNL     1      -1.053   8.571  22.840  0.00  0.00    +0.000 F 
ENDBRANCH  14  17
ENDBRANCH   5   7
BRANCH   1  21
ATOM     21  C   UNL     1       6.286   4.972  19.227  0.00  0.00    +0.000 C 
BRANCH  21  22
ATOM     22  C   UNL     1       6.971   5.959  18.274  0.00  0.00    +0.000 C 
BRANCH  22  28
ATOM     23  C   UNL     1       4.957   6.782  16.001  0.00  0.00    +0.000 C 
ATOM     24  N   UNL     1       6.040   5.842  15.897  0.00  0.00    +0.000 N 
ATOM     25  C   UNL     1       6.375   5.143  14.778  0.00  0.00    +0.000 A 
ATOM     26  N   UNL     1       7.413   4.384  15.028  0.00  0.00    +0.000 NA
ATOM     27  N   UNL     1       7.766   4.586  16.341  0.00  0.00    +0.000 NA
ATOM     28  C   UNL     1       6.935   5.464  16.865  0.00  0.00    +0.000 A 
ENDBRANCH  22  28
ENDBRANCH  21  22
ENDBRANCH   1  21
TORSDOF 5
ENDMDL
MODEL 5
REMARK VINA RESULT:      -8.7      0.876      1.545
REMARK  Name = 
REMARK  6 active torsions:
REMARK  status: ('A' for Active; 'I' for Inactive)
REMARK    1  A    between atoms: C_1  and  N_2
REMARK    2  A    between atoms: C_6  and  C_7
REMARK    3  A    between atoms: C_7  and  C_8
REMARK    4  A    between atoms: C_8  and  C_9
REMARK    5  A    between atoms: C_13  and  N_14
REMARK    6  A    between atoms: C_21  and  C_22
REMARK                            x       y       z     vdW  Elec       q    Type
REMARK                         _______ _______ _______ _____ _____    ______ ____
ROOT
ATOM      1  C   UNL     1       4.063   5.690  17.275  0.00  0.00    +0.000 C 
ATOM      2  C   UNL     1       3.826   4.515  17.884  0.00  0.00    +0.000 C 
ATOM      3  C   UNL     1       2.838   4.382  19.001  0.00  0.00    +0.000 C 
ATOM      4  C   UNL     1       2.523   5.701  19.719  0.00  0.00    +0.000 C 
ATOM      5  C   UNL     1       2.604   6.933  18.835  0.00  0.00    +0.000 C 
ATOM      6  C   UNL     1       3.319   6.876  17.691  0.00  0.00    +0.000 C 
ENDROOT
BRANCH   5   7
ATOM      7  N   UNL     1       1.940   8.090  19.241  0.00  0.00    +0.000 N 
ATOM      8  C   UNL     1       1.292   8.225  20.544  0.00  0.00    +0.000 C 
ATOM      9  C   UNL     1       0.737   9.613  20.530  0.00  0.00    +0.000 A 
ATOM     10  C   UNL     1       1.038  10.216  19.312  0.00  0.00    +0.000 A 
ATOM     11  C   UNL     1       0.670  11.511  19.002  0.00  0.00    +0.000 A 
ATOM     12  C   UNL     1      -0.044  12.224  19.964  0.00  0.00    +0.000 A 
ATOM     13  C   UNL     1      -0.366  11.628  21.197  0.00  0.00    +0.000 A 
ATOM     14  C   UNL     1       0.023  10.307  21.502  0.00  0.00    +0.000 A 
ATOM     15  C   UNL     1       1.776   9.258  18.482  0.00  0.00    +0.000 C 
ATOM     16  O   UNL     1       2.123   9.530  17.348  0.00  0.00    +0.000 OA
BRANCH  14  17
ATOM     17  C   UNL     1      -0.337   9.704  22.835  0.00  0.00    +0.000 C 
ATOM     18  F   UNL     1       0.741   9.442  23.626  0.00  0.00    +0.000 F 
ATOM     19  F   UNL     1      -1.148  10.512  23.568  0.00  0.00    +0.000 F 
ATOM     20  F   UNL     1      -0.998   8.521  22.706  0.00  0.00    +0.000 F 
ENDBRANCH  14  17
ENDBRANCH   5   7
BRANCH   1  21
ATOM     21  C   UNL     1       5.080   5.856  16.162  0.00  0.00    +0.000 C 
BRANCH  21  22
ATOM     22  C   UNL     1       6.338   4.995  16.325  0.00  0.00    +0.000 C 
BRANCH  22  28
ATOM     23  C   UNL     1       7.417   7.798  17.265  0.00  0.00    +0.000 C 
ATOM     24  N   UNL     1       7.514   6.552  17.975  0.00  0.00    +0.000 N 
ATOM     25  C   UNL     1       8.099   6.381  19.193  0.00  0.00    +0.000 A 
ATOM     26  N   UNL     1       8.005   5.125  19.552  0.00  0.00    +0.000 NA
ATOM     27  N   UNL     1       7.348   4.455  18.549  0.00  0.00    +0.000 NA
ATOM     28  C   UNL     1       7.053   5.317  17.597  0.00  0.00    +0.000 A 
ENDBRANCH  22  28
ENDBRANCH  21  22
ENDBRANCH   1  21
TORSDOF 5
ENDMDL
MODEL 6
REMARK VINA RESULT:      -8.5      2.422      3.594
REMARK  Name = 
REMARK  6 active torsions:
REMARK  status: ('A' for Active; 'I' for Inactive)
REMARK    1  A    between atoms: C_1  and  N_2
REMARK    2  A    between atoms: C_6  and  C_7
REMARK    3  A    between atoms: C_7  and  C_8
REMARK    4  A    between atoms: C_8  and  C_9
REMARK    5  A    between atoms: C_13  and  N_14
REMARK    6  A    between atoms: C_21  and  C_22
REMARK                            x       y       z     vdW  Elec       q    Type
REMARK                         _______ _______ _______ _____ _____    ______ ____
ROOT
ATOM      1  C   UNL     1       2.646   4.781  17.730  0.00  0.00    +0.000 C 
ATOM      2  C   UNL     1       3.962   4.817  17.459  0.00  0.00    +0.000 C 
ATOM      3  C   UNL     1       4.799   6.026  17.736  0.00  0.00    +0.000 C 
ATOM      4  C   UNL     1       3.998   7.331  17.846  0.00  0.00    +0.000 C 
ATOM      5  C   UNL     1       2.592   7.160  18.395  0.00  0.00    +0.000 C 
ATOM      6  C   UNL     1       2.007   5.945  18.337  0.00  0.00    +0.000 C 
ENDROOT
BRANCH   5   7
ATOM      7  N   UNL     1       1.947   8.272  18.933  0.00  0.00    +0.000 N 
ATOM      8  C   UNL     1       1.322   8.273  20.255  0.00  0.00    +0.000 C 
ATOM      9  C   UNL     1       0.781   9.659  20.398  0.00  0.00    +0.000 A 
ATOM     10  C   UNL     1       1.068  10.386  19.247  0.00  0.00    +0.000 A 
ATOM     11  C   UNL     1       0.708  11.710  19.083  0.00  0.00    +0.000 A 
ATOM     12  C   UNL     1       0.018  12.322  20.127  0.00  0.00    +0.000 A 
ATOM     13  C   UNL     1      -0.290  11.600  21.296  0.00  0.00    +0.000 A 
ATOM     14  C   UNL     1       0.090  10.251  21.452  0.00  0.00    +0.000 A 
ATOM     15  C   UNL     1       1.782   9.517  18.307  0.00  0.00    +0.000 C 
ATOM     16  O   UNL     1       2.114   9.905  17.202  0.00  0.00    +0.000 OA
BRANCH  14  17
ATOM     17  C   UNL     1      -0.254   9.512  22.718  0.00  0.00    +0.000 C 
ATOM     18  F   UNL     1      -1.082  10.207  23.549  0.00  0.00    +0.000 F 
ATOM     19  F   UNL     1      -0.878   8.329  22.476  0.00  0.00    +0.000 F 
ATOM     20  F   UNL     1       0.848   9.215  23.460  0.00  0.00    +0.000 F 
ENDBRANCH  14  17
ENDBRANCH   5   7
BRANCH   1  21
ATOM     21  C   UNL     1       1.771   3.578  17.431  0.00  0.00    +0.000 C 
BRANCH  21  22
ATOM     22  C   UNL     1       1.485   2.689  18.647  0.00  0.00    +0.000 C 
BRANCH  22  28
ATOM     23  C   UNL     1       2.220   3.505  21.596  0.00  0.00    +0.000 C 
ATOM     24  N   UNL     1       3.030   2.748  20.682  0.00  0.00    +0.000 N 
ATOM     25  C   UNL     1       4.269   2.251  20.949  0.00  0.00    +0.000 A 
ATOM     26  N   UNL     1       4.720   1.606  19.901  0.00  0.00    +0.000 NA
ATOM     27  N   UNL     1       3.757   1.683  18.923  0.00  0.00    +0.000 NA
ATOM     28  C   UNL     1       2.739   2.373  19.395  0.00  0.00    +0.000 A 
ENDBRANCH  22  28
ENDBRANCH  21  22
ENDBRANCH   1  21
TORSDOF 5
ENDMDL
MODEL 7
REMARK VINA RESULT:      -8.5      4.488      8.611
REMARK  Name = 
REMARK  6 active torsions:
REMARK  status: ('A' for Active; 'I' for Inactive)
REMARK    1  A    between atoms: C_1  and  N_2
REMARK    2  A    between atoms: C_6  and  C_7
REMARK    3  A    between atoms: C_7  and  C_8
REMARK    4  A    between atoms: C_8  and  C_9
REMARK    5  A    between atoms: C_13  and  N_14
REMARK    6  A    between atoms: C_21  and  C_22
REMARK                            x       y       z     vdW  Elec       q    Type
REMARK                         _______ _______ _______ _____ _____    ______ ____
ROOT
ATOM      1  C   UNL     1       0.341  10.214  19.648  0.00  0.00    +0.000 C 
ATOM      2  C   UNL     1       0.388  10.403  20.979  0.00  0.00    +0.000 C 
ATOM      3  C   UNL     1       1.174   9.505  21.882  0.00  0.00    +0.000 C 
ATOM      4  C   UNL     1       1.470   8.121  21.288  0.00  0.00    +0.000 C 
ATOM      5  C   UNL     1       1.624   8.106  19.778  0.00  0.00    +0.000 C 
ATOM      6  C   UNL     1       1.096   9.116  19.053  0.00  0.00    +0.000 C 
ENDROOT
BRANCH   5   7
ATOM      7  N   UNL     1       2.300   7.040  19.187  0.00  0.00    +0.000 N 
ATOM      8  C   UNL     1       3.302   7.211  18.137  0.00  0.00    +0.000 C 
ATOM      9  C   UNL     1       3.748   5.816  17.832  0.00  0.00    +0.000 A 
ATOM     10  C   UNL     1       3.048   4.924  18.638  0.00  0.00    +0.000 A 
ATOM     11  C   UNL     1       3.249   3.557  18.600  0.00  0.00    +0.000 A 
ATOM     12  C   UNL     1       4.194   3.073  17.697  0.00  0.00    +0.000 A 
ATOM     13  C   UNL     1       4.904   3.959  16.866  0.00  0.00    +0.000 A 
ATOM     14  C   UNL     1       4.693   5.353  16.922  0.00  0.00    +0.000 A 
ATOM     15  C   UNL     1       2.116   5.680  19.480  0.00  0.00    +0.000 C 
ATOM     16  O   UNL     1       1.355   5.125  20.251  0.00  0.00    +0.000 OA
BRANCH  14  17
ATOM     17  C   UNL     1       5.476   6.270  16.020  0.00  0.00    +0.000 C 
ATOM     18  F   UNL     1       6.275   7.147  16.691  0.00  0.00    +0.000 F 
ATOM     19  F   UNL     1       6.296   5.592  15.175  0.00  0.00    +0.000 F 
ATOM     20  F   UNL     1       4.669   7.034  15.233  0.00  0.00    +0.000 F 
ENDBRANCH  14  17
ENDBRANCH   5   7
BRANCH   1  21
ATOM     21  C   UNL     1      -0.472  11.093  18.716  0.00  0.00    +0.000 C 
BRANCH  21  22
ATOM     22  C   UNL     1      -1.323  10.317  17.703  0.00  0.00    +0.000 C 
BRANCH  22  28
ATOM     23  C   UNL     1      -3.089  10.543  15.108  0.00  0.00    +0.000 C 
ATOM     24  N   UNL     1      -3.432  10.994  16.428  0.00  0.00    +0.000 N 
ATOM     25  C   UNL     1      -4.599  11.603  16.777  0.00  0.00    +0.000 A 
ATOM     26  N   UNL     1      -4.588  11.875  18.058  0.00  0.00    +0.000 NA
ATOM     27  N   UNL     1      -3.386  11.438  18.563  0.00  0.00    +0.000 NA
ATOM     28  C   UNL     1      -2.689  10.909  17.578  0.00  0.00    +0.000 A 
ENDBRANCH  22  28
ENDBRANCH  21  22
ENDBRANCH   1  21
TORSDOF 5
ENDMDL
MODEL 8
REMARK VINA RESULT:      -8.5      1.184      2.042
REMARK  Name = 
REMARK  6 active torsions:
REMARK  status: ('A' for Active; 'I' for Inactive)
REMARK    1  A    between atoms: C_1  and  N_2
REMARK    2  A    between atoms: C_6  and  C_7
REMARK    3  A    between atoms: C_7  and  C_8
REMARK    4  A    between atoms: C_8  and  C_9
REMARK    5  A    between atoms: C_13  and  N_14
REMARK    6  A    between atoms: C_21  and  C_22
REMARK                            x       y       z     vdW  Elec       q    Type
REMARK                         _______ _______ _______ _____ _____    ______ ____
ROOT
ATOM      1  C   UNL     1       4.665   4.696  19.139  0.00  0.00    +0.000 C 
ATOM      2  C   UNL     1       4.095   3.566  19.594  0.00  0.00    +0.000 C 
ATOM      3  C   UNL     1       2.705   3.544  20.148  0.00  0.00    +0.000 C 
ATOM      4  C   UNL     1       2.200   4.911  20.630  0.00  0.00    +0.000 C 
ATOM      5  C   UNL     1       2.759   6.094  19.859  0.00  0.00    +0.000 C 
ATOM      6  C   UNL     1       3.904   5.941  19.160  0.00  0.00    +0.000 C 
ENDROOT
BRANCH   5   7
ATOM      7  N   UNL     1       2.072   7.306  19.908  0.00  0.00    +0.000 N 
ATOM      8  C   UNL     1       1.348   7.768  21.090  0.00  0.00    +0.000 C 
ATOM      9  C   UNL     1       0.794   9.095  20.679  0.00  0.00    +0.000 A 
ATOM     10  C   UNL     1       1.165   9.360  19.365  0.00  0.00    +0.000 A 
ATOM     11  C   UNL     1       0.815  10.522  18.703  0.00  0.00    +0.000 A 
ATOM     12  C   UNL     1       0.045  11.451  19.401  0.00  0.00    +0.000 A 
ATOM     13  C   UNL     1      -0.349  11.195  20.728  0.00  0.00    +0.000 A 
ATOM     14  C   UNL     1       0.023  10.008  21.393  0.00  0.00    +0.000 A 
ATOM     15  C   UNL     1       1.951   8.230  18.860  0.00  0.00    +0.000 C 
ATOM     16  O   UNL     1       2.365   8.199  17.716  0.00  0.00    +0.000 OA
BRANCH  14  17
ATOM     17  C   UNL     1      -0.415   9.771  22.814  0.00  0.00    +0.000 C 
ATOM     18  F   UNL     1      -1.157  10.789  23.335  0.00  0.00    +0.000 F 
ATOM     19  F   UNL     1      -1.177   8.653  22.944  0.00  0.00    +0.000 F 
ATOM     20  F   UNL     1       0.639   9.612  23.660  0.00  0.00    +0.000 F 
ENDBRANCH  14  17
ENDBRANCH   5   7
BRANCH   1  21
ATOM     21  C   UNL     1       6.082   4.749  18.601  0.00  0.00    +0.000 C 
BRANCH  21  22
ATOM     22  C   UNL     1       6.365   5.948  17.688  0.00  0.00    +0.000 C 
BRANCH  22  28
ATOM     23  C   UNL     1       4.605   4.031  15.918  0.00  0.00    +0.000 C 
ATOM     24  N   UNL     1       5.836   4.668  15.540  0.00  0.00    +0.000 N 
ATOM     25  C   UNL     1       6.452   4.543  14.331  0.00  0.00    +0.000 A 
ATOM     26  N   UNL     1       7.547   5.262  14.320  0.00  0.00    +0.000 NA
ATOM     27  N   UNL     1       7.656   5.870  15.548  0.00  0.00    +0.000 NA
ATOM     28  C   UNL     1       6.625   5.509  16.283  0.00  0.00    +0.000 A 
ENDBRANCH  22  28
ENDBRANCH  21  22
ENDBRANCH   1  21
TORSDOF 5
ENDMDL
MODEL 9
REMARK VINA RESULT:      -8.4      2.342      3.766
REMARK  Name = 
REMARK  6 active torsions:
REMARK  status: ('A' for Active; 'I' for Inactive)
REMARK    1  A    between atoms: C_1  and  N_2
REMARK    2  A    between atoms: C_6  and  C_7
REMARK    3  A    between atoms: C_7  and  C_8
REMARK    4  A    between atoms: C_8  and  C_9
REMARK    5  A    between atoms: C_13  and  N_14
REMARK    6  A    between atoms: C_21  and  C_22
REMARK                            x       y       z     vdW  Elec       q    Type
REMARK                         _______ _______ _______ _____ _____    ______ ____
ROOT
ATOM      1  C   UNL     1       2.987   4.722  17.675  0.00  0.00    +0.000 C 
ATOM      2  C   UNL     1       4.317   4.816  17.494  0.00  0.00    +0.000 C 
ATOM      3  C   UNL     1       5.082   6.053  17.844  0.00  0.00    +0.000 C 
ATOM      4  C   UNL     1       4.222   7.322  17.919  0.00  0.00    +0.000 C 
ATOM      5  C   UNL     1       2.791   7.085  18.368  0.00  0.00    +0.000 C 
ATOM      6  C   UNL     1       2.262   5.848  18.254  0.00  0.00    +0.000 C 
ENDROOT
BRANCH   5   7
ATOM      7  N   UNL     1       2.066   8.161  18.878  0.00  0.00    +0.000 N 
ATOM      8  C   UNL     1       1.447   8.153  20.202  0.00  0.00    +0.000 C 
ATOM      9  C   UNL     1       0.803   9.499  20.309  0.00  0.00    +0.000 A 
ATOM     10  C   UNL     1       1.030  10.210  19.135  0.00  0.00    +0.000 A 
ATOM     11  C   UNL     1       0.571  11.498  18.935  0.00  0.00    +0.000 A 
ATOM     12  C   UNL     1      -0.160  12.087  19.965  0.00  0.00    +0.000 A 
ATOM     13  C   UNL     1      -0.409  11.378  21.155  0.00  0.00    +0.000 A 
ATOM     14  C   UNL     1       0.073  10.067  21.348  0.00  0.00    +0.000 A 
ATOM     15  C   UNL     1       1.805   9.370  18.217  0.00  0.00    +0.000 C 
ATOM     16  O   UNL     1       2.102   9.750  17.099  0.00  0.00    +0.000 OA
BRANCH  14  17
ATOM     17  C   UNL     1      -0.211   9.342  22.638  0.00  0.00    +0.000 C 
ATOM     18  F   UNL     1       0.912   8.991  23.326  0.00  0.00    +0.000 F 
ATOM     19  F   UNL     1      -0.956  10.085  23.498  0.00  0.00    +0.000 F 
ATOM     20  F   UNL     1      -0.900   8.185  22.440  0.00  0.00    +0.000 F 
ENDBRANCH  14  17
ENDBRANCH   5   7
BRANCH   1  21
ATOM     21  C   UNL     1       2.186   3.490  17.300  0.00  0.00    +0.000 C 
BRANCH  21  22
ATOM     22  C   UNL     1       2.726   2.182  17.892  0.00  0.00    +0.000 C 
BRANCH  22  28
ATOM     23  C   UNL     1       0.602   2.974  20.075  0.00  0.00    +0.000 C 
ATOM     24  N   UNL     1       1.986   2.653  20.292  0.00  0.00    +0.000 N 
ATOM     25  C   UNL     1       2.613   2.639  21.501  0.00  0.00    +0.000 A 
ATOM     26  N   UNL     1       3.867   2.297  21.341  0.00  0.00    +0.000 NA
ATOM     27  N   UNL     1       4.070   2.085  19.998  0.00  0.00    +0.000 NA
ATOM     28  C   UNL     1       2.935   2.302  19.366  0.00  0.00    +0.000 A 
ENDBRANCH  22  28
ENDBRANCH  21  22
ENDBRANCH   1  21
TORSDOF 5
ENDMDL
