MODEL 1
REMARK VINA RESULT:      -7.7      0.000      0.000
REMARK  Name = 
REMARK  7 active torsions:
REMARK  status: ('A' for Active; 'I' for Inactive)
REMARK    1  A    between atoms: C_1  and  C_2
REMARK    2  A    between atoms: C_7  and  C_8
REMARK    3  A    between atoms: C_8  and  S_9
REMARK    4  A    between atoms: S_9  and  C_12
REMARK    5  A    between atoms: C_12  and  C_13
REMARK    6  A    between atoms: C_12  and  C_14
REMARK    7  A    between atoms: C_24  and  C_25
REMARK                            x       y       z     vdW  Elec       q    Type
REMARK                         _______ _______ _______ _____ _____    ______ ____
ROOT
ATOM      1  S   UNL     1       4.938   6.684  17.253  0.00  0.00    +0.000 S 
ATOM      2  O   UNL     1       4.928   6.635  15.800  0.00  0.00    +0.000 OA
ATOM      3  O   UNL     1       5.310   7.925  17.913  0.00  0.00    +0.000 OA
ENDROOT
BRANCH   1   4
ATOM      4  C   UNL     1       5.982   5.347  17.878  0.00  0.00    +0.000 C 
ATOM      5  C   UNL     1       7.277   5.889  18.488  0.00  0.00    +0.000 C 
BRANCH   4   6
ATOM      6  C   UNL     1       5.223   4.582  18.947  0.00  0.00    +0.000 C 
ATOM      7  O   UNL     1       5.261   5.043  20.099  0.00  0.00    +0.000 OA
ATOM      8  N   UNL     1       4.523   3.403  18.660  0.00  0.00    +0.000 N 
ATOM      9  C   UNL     1       3.388   3.159  19.499  0.00  0.00    +0.000 A 
ATOM     10  C   UNL     1       3.266   3.353  20.863  0.00  0.00    +0.000 A 
ATOM     11  C   UNL     1       2.043   3.811  21.344  0.00  0.00    +0.000 A 
ATOM     12  C   UNL     1       1.009   4.097  20.442  0.00  0.00    +0.000 A 
ATOM     13  C   UNL     1       1.100   3.698  19.106  0.00  0.00    +0.000 A 
ATOM     14  C   UNL     1       2.273   3.109  18.678  0.00  0.00    +0.000 A 
ATOM     15  C   UNL     1       2.641   2.591  17.332  0.00  0.00    +0.000 C 
ATOM     16  C   UNL     1       4.188   2.670  17.387  0.00  0.00    +0.000 C 
ATOM     17  C   UNL     1       4.733   3.042  16.022  0.00  0.00    +0.000 C 
ENDBRANCH   4   6
ENDBRANCH   1   4
BRANCH   1  18
ATOM     18  C   UNL     1       3.247   6.312  17.738  0.00  0.00    +0.000 C 
BRANCH  18  25
ATOM     19  C   UNL     1      -0.535  11.432  22.397  0.00  0.00    +0.000 C 
ATOM     20  C   UNL     1       0.171  10.355  21.631  0.00  0.00    +0.000 A 
ATOM     21  C   UNL     1       0.532   9.141  22.329  0.00  0.00    +0.000 A 
ATOM     22  C   UNL     1       1.160   8.149  21.685  0.00  0.00    +0.000 A 
ATOM     23  C   UNL     1       1.527   8.302  20.259  0.00  0.00    +0.000 A 
ATOM     24  N   UNL     1       2.160   7.323  19.679  0.00  0.00    +0.000 NA
ATOM     25  C   UNL     1       2.556   7.489  18.379  0.00  0.00    +0.000 A 
ATOM     26  C   UNL     1       2.260   8.594  17.674  0.00  0.00    +0.000 A 
ATOM     27  C   UNL     1       1.528   9.695  18.306  0.00  0.00    +0.000 A 
ATOM     28  O   UNL     1       1.226  10.678  17.645  0.00  0.00    +0.000 OA
ATOM     29  N   UNL     1       1.186   9.494  19.650  0.00  0.00    +0.000 N 
ATOM     30  C   UNL     1       0.499  10.489  20.337  0.00  0.00    +0.000 A 
ENDBRANCH  18  25
ENDBRANCH   1  18
TORSDOF 4
ENDMDL
MODEL 2
REMARK VINA RESULT:      -7.3      2.068      3.894
REMARK  Name = 
REMARK  7 active torsions:
REMARK  status: ('A' for Active; 'I' for Inactive)
REMARK    1  A    between atoms: C_1  and  C_2
REMARK    2  A    between atoms: C_7  and  C_8
REMARK    3  A    between atoms: C_8  and  S_9
REMARK    4  A    between atoms: S_9  and  C_12
REMARK    5  A    between atoms: C_12  and  C_13
REMARK    6  A    between atoms: C_12  and  C_14
REMARK    7  A    between atoms: C_24  and  C_25
REMARK                            x       y       z     vdW  Elec       q    Type
REMARK                         _______ _______ _______ _____ _____    ______ ____
ROOT
ATOM      1  S   UNL     1       1.678   4.309  20.446  0.00  0.00    +0.000 S 
ATOM      2  O   UNL     1       2.074   3.847  21.766  0.00  0.00    +0.000 OA
ATOM      3  O   UNL     1       0.372   4.924  20.277  0.00  0.00    +0.000 OA
ENDROOT
BRANCH   1   4
ATOM      4  C   UNL     1       1.844   2.945  19.271  0.00  0.00    +0.000 C 
ATOM      5  C   UNL     1       0.483   2.515  18.720  0.00  0.00    +0.000 C 
BRANCH   4   6
ATOM      6  C   UNL     1       2.721   3.388  18.115  0.00  0.00    +0.000 C 
ATOM      7  O   UNL     1       2.151   3.933  17.157  0.00  0.00    +0.000 OA
ATOM      8  N   UNL     1       4.107   3.183  18.113  0.00  0.00    +0.000 N 
ATOM      9  C   UNL     1       4.857   4.153  17.372  0.00  0.00    +0.000 A 
ATOM     10  C   UNL     1       4.555   4.727  16.150  0.00  0.00    +0.000 A 
ATOM     11  C   UNL     1       4.882   6.067  15.968  0.00  0.00    +0.000 A 
ATOM     12  C   UNL     1       5.456   6.788  17.025  0.00  0.00    +0.000 A 
ATOM     13  C   UNL     1       5.930   6.128  18.161  0.00  0.00    +0.000 A 
ATOM     14  C   UNL     1       5.725   4.766  18.260  0.00  0.00    +0.000 A 
ATOM     15  C   UNL     1       6.120   3.822  19.340  0.00  0.00    +0.000 C 
ATOM     16  C   UNL     1       5.091   2.680  19.138  0.00  0.00    +0.000 C 
ATOM     17  C   UNL     1       4.697   2.100  20.482  0.00  0.00    +0.000 C 
ENDBRANCH   4   6
ENDBRANCH   1   4
BRANCH   1  18
ATOM     18  C   UNL     1       2.907   5.546  20.004  0.00  0.00    +0.000 C 
BRANCH  18  25
ATOM     19  C   UNL     1      -0.831  12.461  20.663  0.00  0.00    +0.000 C 
ATOM     20  C   UNL     1      -0.176  11.113  20.683  0.00  0.00    +0.000 A 
ATOM     21  C   UNL     1      -0.185  10.365  21.920  0.00  0.00    +0.000 A 
ATOM     22  C   UNL     1       0.384   9.154  21.985  0.00  0.00    +0.000 A 
ATOM     23  C   UNL     1       1.064   8.586  20.800  0.00  0.00    +0.000 A 
ATOM     24  N   UNL     1       1.627   7.418  20.914  0.00  0.00    +0.000 NA
ATOM     25  C   UNL     1       2.310   6.921  19.837  0.00  0.00    +0.000 A 
ATOM     26  C   UNL     1       2.364   7.567  18.660  0.00  0.00    +0.000 A 
ATOM     27  C   UNL     1       1.716   8.872  18.509  0.00  0.00    +0.000 A 
ATOM     28  O   UNL     1       1.734   9.433  17.422  0.00  0.00    +0.000 OA
ATOM     29  N   UNL     1       1.070   9.357  19.653  0.00  0.00    +0.000 N 
ATOM     30  C   UNL     1       0.434  10.594  19.608  0.00  0.00    +0.000 A 
ENDBRANCH  18  25
ENDBRANCH   1  18
TORSDOF 4
ENDMDL
MODEL 3
REMARK VINA RESULT:      -7.3      3.409      8.591
REMARK  Name = 
REMARK  7 active torsions:
REMARK  status: ('A' for Active; 'I' for Inactive)
REMARK    1  A    between atoms: C_1  and  C_2
REMARK    2  A    between atoms: C_7  and  C_8
REMARK    3  A    between atoms: C_8  and  S_9
REMARK    4  A    between atoms: S_9  and  C_12
REMARK    5  A    between atoms: C_12  and  C_13
REMARK    6  A    between atoms: C_12  and  C_14
REMARK    7  A    between atoms: C_24  and  C_25
REMARK                            x       y       z     vdW  Elec       q    Type
REMARK                         _______ _______ _______ _____ _____    ______ ____
ROOT
ATOM      1  S   UNL     1       0.112  10.342  22.389  0.00  0.00    +0.000 S 
ATOM      2  O   UNL     1       0.104   9.963  23.793  0.00  0.00    +0.000 OA
ATOM      3  O   UNL     1       1.342  10.847  21.803  0.00  0.00    +0.000 OA
ENDROOT
BRANCH   1   4
ATOM      4  C   UNL     1      -1.215  11.536  22.097  0.00  0.00    +0.000 C 
ATOM      5  C   UNL     1      -2.129  11.664  23.317  0.00  0.00    +0.000 C 
BRANCH   4   6
ATOM      6  C   UNL     1      -0.604  12.894  21.801  0.00  0.00    +0.000 C 
ATOM      7  O   UNL     1      -0.067  13.486  22.751  0.00  0.00    +0.000 OA
ATOM      8  N   UNL     1      -0.652  13.467  20.523  0.00  0.00    +0.000 N 
ATOM      9  C   UNL     1       0.440  14.341  20.215  0.00  0.00    +0.000 A 
ATOM     10  C   UNL     1       1.052  15.276  21.029  0.00  0.00    +0.000 A 
ATOM     11  C   UNL     1       2.429  15.435  20.909  0.00  0.00    +0.000 A 
ATOM     12  C   UNL     1       3.142  14.626  20.014  0.00  0.00    +0.000 A 
ATOM     13  C   UNL     1       2.470  13.845  19.071  0.00  0.00    +0.000 A 
ATOM     14  C   UNL     1       1.090  13.813  19.112  0.00  0.00    +0.000 A 
ATOM     15  C   UNL     1       0.130  13.081  18.242  0.00  0.00    +0.000 C 
ATOM     16  C   UNL     1      -1.105  12.974  19.173  0.00  0.00    +0.000 C 
ATOM     17  C   UNL     1      -1.809  11.651  18.942  0.00  0.00    +0.000 C 
ENDBRANCH   4   6
ENDBRANCH   1   4
BRANCH   1  18
ATOM     18  C   UNL     1      -0.319   8.838  21.503  0.00  0.00    +0.000 C 
BRANCH  18  25
ATOM     19  C   UNL     1       5.227   5.910  16.719  0.00  0.00    +0.000 C 
ATOM     20  C   UNL     1       4.211   6.349  17.729  0.00  0.00    +0.000 A 
ATOM     21  C   UNL     1       3.958   5.492  18.865  0.00  0.00    +0.000 A 
ATOM     22  C   UNL     1       3.062   5.845  19.796  0.00  0.00    +0.000 A 
ATOM     23  C   UNL     1       2.291   7.100  19.650  0.00  0.00    +0.000 A 
ATOM     24  N   UNL     1       1.412   7.391  20.565  0.00  0.00    +0.000 NA
ATOM     25  C   UNL     1       0.654   8.519  20.397  0.00  0.00    +0.000 A 
ATOM     26  C   UNL     1       0.833   9.357  19.361  0.00  0.00    +0.000 A 
ATOM     27  C   UNL     1       1.834   9.054  18.336  0.00  0.00    +0.000 A 
ATOM     28  O   UNL     1       2.020   9.843  17.420  0.00  0.00    +0.000 OA
ATOM     29  N   UNL     1       2.551   7.866  18.530  0.00  0.00    +0.000 N 
ATOM     30  C   UNL     1       3.516   7.490  17.602  0.00  0.00    +0.000 A 
ENDBRANCH  18  25
ENDBRANCH   1  18
TORSDOF 4
ENDMDL
MODEL 4
REMARK VINA RESULT:      -7.1      1.197      1.794
REMARK  Name = 
REMARK  7 active torsions:
REMARK  status: ('A' for Active; 'I' for Inactive)
REMARK    1  A    between atoms: C_1  and  C_2
REMARK    2  A    between atoms: C_7  and  C_8
REMARK    3  A    between atoms: C_8  and  S_9
REMARK    4  A    between atoms: S_9  and  C_12
REMARK    5  A    between atoms: C_12  and  C_13
REMARK    6  A    between atoms: C_12  and  C_14
REMARK    7  A    between atoms: C_24  and  C_25
REMARK                            x       y       z     vdW  Elec       q    Type
REMARK                         _______ _______ _______ _____ _____    ______ ____
ROOT
ATOM      1  S   UNL     1       4.880   6.776  17.197  0.00  0.00    +0.000 S 
ATOM      2  O   UNL     1       4.976   6.806  15.747  0.00  0.00    +0.000 OA
ATOM      3  O   UNL     1       5.138   7.996  17.946  0.00  0.00    +0.000 OA
ENDROOT
BRANCH   1   4
ATOM      4  C   UNL     1       5.946   5.460  17.830  0.00  0.00    +0.000 C 
ATOM      5  C   UNL     1       7.220   6.027  18.457  0.00  0.00    +0.000 C 
BRANCH   4   6
ATOM      6  C   UNL     1       5.190   4.674  18.885  0.00  0.00    +0.000 C 
ATOM      7  O   UNL     1       5.174   5.148  20.032  0.00  0.00    +0.000 OA
ATOM      8  N   UNL     1       4.552   3.461  18.593  0.00  0.00    +0.000 N 
ATOM      9  C   UNL     1       3.405   3.176  19.402  0.00  0.00    +0.000 A 
ATOM     10  C   UNL     1       3.234   3.379  20.760  0.00  0.00    +0.000 A 
ATOM     11  C   UNL     1       1.979   3.786  21.199  0.00  0.00    +0.000 A 
ATOM     12  C   UNL     1       0.960   4.016  20.264  0.00  0.00    +0.000 A 
ATOM     13  C   UNL     1       1.108   3.607  18.937  0.00  0.00    +0.000 A 
ATOM     14  C   UNL     1       2.318   3.066  18.550  0.00  0.00    +0.000 A 
ATOM     15  C   UNL     1       2.747   2.551  17.221  0.00  0.00    +0.000 C 
ATOM     16  C   UNL     1       4.287   2.699  17.320  0.00  0.00    +0.000 C 
ATOM     17  C   UNL     1       4.854   3.081  15.967  0.00  0.00    +0.000 C 
ENDBRANCH   4   6
ENDBRANCH   1   4
BRANCH   1  18
ATOM     18  C   UNL     1       3.180   6.297  17.536  0.00  0.00    +0.000 C 
BRANCH  18  25
ATOM     19  C   UNL     1      -0.482  12.492  20.765  0.00  0.00    +0.000 C 
ATOM     20  C   UNL     1       0.228  11.403  20.019  0.00  0.00    +0.000 A 
ATOM     21  C   UNL     1       0.462  11.581  18.604  0.00  0.00    +0.000 A 
ATOM     22  C   UNL     1       1.096  10.636  17.896  0.00  0.00    +0.000 A 
ATOM     23  C   UNL     1       1.528   9.381  18.551  0.00  0.00    +0.000 A 
ATOM     24  N   UNL     1       2.118   8.479  17.821  0.00  0.00    +0.000 NA
ATOM     25  C   UNL     1       2.461   7.292  18.411  0.00  0.00    +0.000 A 
ATOM     26  C   UNL     1       2.267   7.058  19.720  0.00  0.00    +0.000 A 
ATOM     27  C   UNL     1       1.625   8.074  20.560  0.00  0.00    +0.000 A 
ATOM     28  O   UNL     1       1.491   7.870  21.758  0.00  0.00    +0.000 OA
ATOM     29  N   UNL     1       1.252   9.251  19.898  0.00  0.00    +0.000 N 
ATOM     30  C   UNL     1       0.627  10.268  20.612  0.00  0.00    +0.000 A 
ENDBRANCH  18  25
ENDBRANCH   1  18
TORSDOF 4
ENDMDL
MODEL 5
REMARK VINA RESULT:      -7.0      3.307      8.188
REMARK  Name = 
REMARK  7 active torsions:
REMARK  status: ('A' for Active; 'I' for Inactive)
REMARK    1  A    between atoms: C_1  and  C_2
REMARK    2  A    between atoms: C_7  and  C_8
REMARK    3  A    between atoms: C_8  and  S_9
REMARK    4  A    between atoms: S_9  and  C_12
REMARK    5  A    between atoms: C_12  and  C_13
REMARK    6  A    between atoms: C_12  and  C_14
REMARK    7  A    between atoms: C_24  and  C_25
REMARK                            x       y       z     vdW  Elec       q    Type
REMARK                         _______ _______ _______ _____ _____    ______ ____
ROOT
ATOM      1  S   UNL     1      -0.327  10.014  21.598  0.00  0.00    +0.000 S 
ATOM      2  O   UNL     1      -0.980   9.239  20.555  0.00  0.00    +0.000 OA
ATOM      3  O   UNL     1      -0.946  10.090  22.911  0.00  0.00    +0.000 OA
ENDROOT
BRANCH   1   4
ATOM      4  C   UNL     1      -0.033  11.690  20.987  0.00  0.00    +0.000 C 
ATOM      5  C   UNL     1       1.459  12.032  20.993  0.00  0.00    +0.000 C 
BRANCH   4   6
ATOM      6  C   UNL     1      -0.552  11.799  19.565  0.00  0.00    +0.000 C 
ATOM      7  O   UNL     1       0.164  11.322  18.670  0.00  0.00    +0.000 OA
ATOM      8  N   UNL     1      -1.772  12.419  19.265  0.00  0.00    +0.000 N 
ATOM      9  C   UNL     1      -2.434  11.911  18.101  0.00  0.00    +0.000 A 
ATOM     10  C   UNL     1      -1.883  11.547  16.885  0.00  0.00    +0.000 A 
ATOM     11  C   UNL     1      -2.429  10.446  16.233  0.00  0.00    +0.000 A 
ATOM     12  C   UNL     1      -3.470   9.730  16.839  0.00  0.00    +0.000 A 
ATOM     13  C   UNL     1      -4.131  10.245  17.957  0.00  0.00    +0.000 A 
ATOM     14  C   UNL     1      -3.664  11.422  18.508  0.00  0.00    +0.000 A 
ATOM     15  C   UNL     1      -4.168  12.189  19.680  0.00  0.00    +0.000 C 
ATOM     16  C   UNL     1      -2.898  12.970  20.102  0.00  0.00    +0.000 C 
ATOM     17  C   UNL     1      -2.851  13.098  21.612  0.00  0.00    +0.000 C 
ENDBRANCH   4   6
ENDBRANCH   1   4
BRANCH   1  18
ATOM     18  C   UNL     1       1.279   9.235  21.814  0.00  0.00    +0.000 C 
BRANCH  18  25
ATOM     19  C   UNL     1       2.465   2.741  17.495  0.00  0.00    +0.000 C 
ATOM     20  C   UNL     1       2.207   3.878  18.438  0.00  0.00    +0.000 A 
ATOM     21  C   UNL     1       1.661   3.577  19.742  0.00  0.00    +0.000 A 
ATOM     22  C   UNL     1       1.418   4.559  20.620  0.00  0.00    +0.000 A 
ATOM     23  C   UNL     1       1.670   5.969  20.247  0.00  0.00    +0.000 A 
ATOM     24  N   UNL     1       1.395   6.895  21.121  0.00  0.00    +0.000 NA
ATOM     25  C   UNL     1       1.568   8.202  20.754  0.00  0.00    +0.000 A 
ATOM     26  C   UNL     1       2.066   8.552  19.556  0.00  0.00    +0.000 A 
ATOM     27  C   UNL     1       2.401   7.521  18.571  0.00  0.00    +0.000 A 
ATOM     28  O   UNL     1       2.893   7.847  17.499  0.00  0.00    +0.000 OA
ATOM     29  N   UNL     1       2.163   6.202  18.978  0.00  0.00    +0.000 N 
ATOM     30  C   UNL     1       2.442   5.156  18.105  0.00  0.00    +0.000 A 
ENDBRANCH  18  25
ENDBRANCH   1  18
TORSDOF 4
ENDMDL
MODEL 6
REMARK VINA RESULT:      -6.8      3.358      8.484
REMARK  Name = 
REMARK  7 active torsions:
REMARK  status: ('A' for Active; 'I' for Inactive)
REMARK    1  A    between atoms: C_1  and  C_2
REMARK    2  A    between atoms: C_7  and  C_8
REMARK    3  A    between atoms: C_8  and  S_9
REMARK    4  A    between atoms: S_9  and  C_12
REMARK    5  A    between atoms: C_12  and  C_13
REMARK    6  A    between atoms: C_12  and  C_14
REMARK    7  A    between atoms: C_24  and  C_25
REMARK                            x       y       z     vdW  Elec       q    Type
REMARK                         _______ _______ _______ _____ _____    ______ ____
ROOT
ATOM      1  S   UNL     1      -0.268  10.030  22.183  0.00  0.00    +0.000 S 
ATOM      2  O   UNL     1      -0.903   8.864  21.589  0.00  0.00    +0.000 OA
ATOM      3  O   UNL     1       0.266   9.930  23.531  0.00  0.00    +0.000 OA
ENDROOT
BRANCH   1   4
ATOM      4  C   UNL     1      -1.414  11.426  22.103  0.00  0.00    +0.000 C 
ATOM      5  C   UNL     1      -2.240  11.543  23.385  0.00  0.00    +0.000 C 
BRANCH   4   6
ATOM      6  C   UNL     1      -0.623  12.707  21.914  0.00  0.00    +0.000 C 
ATOM      7  O   UNL     1      -0.015  13.141  22.905  0.00  0.00    +0.000 OA
ATOM      8  N   UNL     1      -0.588  13.384  20.688  0.00  0.00    +0.000 N 
ATOM      9  C   UNL     1       0.615  14.124  20.444  0.00  0.00    +0.000 A 
ATOM     10  C   UNL     1       1.346  14.897  21.328  0.00  0.00    +0.000 A 
ATOM     11  C   UNL     1       2.731  14.876  21.211  0.00  0.00    +0.000 A 
ATOM     12  C   UNL     1       3.332  14.053  20.247  0.00  0.00    +0.000 A 
ATOM     13  C   UNL     1       2.563  13.451  19.248  0.00  0.00    +0.000 A 
ATOM     14  C   UNL     1       1.191  13.604  19.297  0.00  0.00    +0.000 A 
ATOM     15  C   UNL     1       0.144  13.084  18.377  0.00  0.00    +0.000 C 
ATOM     16  C   UNL     1      -1.098  13.069  19.305  0.00  0.00    +0.000 C 
ATOM     17  C   UNL     1      -1.975  11.878  18.972  0.00  0.00    +0.000 C 
ENDBRANCH   4   6
ENDBRANCH   1   4
BRANCH   1  18
ATOM     18  C   UNL     1       1.111  10.408  21.093  0.00  0.00    +0.000 C 
BRANCH  18  25
ATOM     19  C   UNL     1       3.034   3.453  17.906  0.00  0.00    +0.000 C 
ATOM     20  C   UNL     1       2.662   4.699  18.652  0.00  0.00    +0.000 A 
ATOM     21  C   UNL     1       2.276   4.578  20.040  0.00  0.00    +0.000 A 
ATOM     22  C   UNL     1       1.940   5.665  20.748  0.00  0.00    +0.000 A 
ATOM     23  C   UNL     1       1.922   6.997  20.104  0.00  0.00    +0.000 A 
ATOM     24  N   UNL     1       1.565   8.022  20.822  0.00  0.00    +0.000 NA
ATOM     25  C   UNL     1       1.487   9.245  20.210  0.00  0.00    +0.000 A 
ATOM     26  C   UNL     1       1.826   9.426  18.923  0.00  0.00    +0.000 A 
ATOM     27  C   UNL     1       2.252   8.286  18.108  0.00  0.00    +0.000 A 
ATOM     28  O   UNL     1       2.599   8.467  16.949  0.00  0.00    +0.000 OA
ATOM     29  N   UNL     1       2.271   7.050  18.768  0.00  0.00    +0.000 N 
ATOM     30  C   UNL     1       2.653   5.908  18.072  0.00  0.00    +0.000 A 
ENDBRANCH  18  25
ENDBRANCH   1  18
TORSDOF 4
ENDMDL
MODEL 7
REMARK VINA RESULT:      -6.8      2.902      8.441
REMARK  Name = 
REMARK  7 active torsions:
REMARK  status: ('A' for Active; 'I' for Inactive)
REMARK    1  A    between atoms: C_1  and  C_2
REMARK    2  A    between atoms: C_7  and  C_8
REMARK    3  A    between atoms: C_8  and  S_9
REMARK    4  A    between atoms: S_9  and  C_12
REMARK    5  A    between atoms: C_12  and  C_13
REMARK    6  A    between atoms: C_12  and  C_14
REMARK    7  A    between atoms: C_24  and  C_25
REMARK                            x       y       z     vdW  Elec       q    Type
REMARK                         _______ _______ _______ _____ _____    ______ ____
ROOT
ATOM      1  S   UNL     1       1.156   9.213  19.033  0.00  0.00    +0.000 S 
ATOM      2  O   UNL     1       2.147  10.248  18.787  0.00  0.00    +0.000 OA
ATOM      3  O   UNL     1       0.539   8.545  17.899  0.00  0.00    +0.000 OA
ENDROOT
BRANCH   1   4
ATOM      4  C   UNL     1      -0.141   9.883  20.099  0.00  0.00    +0.000 C 
ATOM      5  C   UNL     1      -0.421   8.959  21.286  0.00  0.00    +0.000 C 
BRANCH   4   6
ATOM      6  C   UNL     1       0.301  11.235  20.628  0.00  0.00    +0.000 C 
ATOM      7  O   UNL     1       1.101  11.231  21.577  0.00  0.00    +0.000 OA
ATOM      8  N   UNL     1      -0.178  12.437  20.089  0.00  0.00    +0.000 N 
ATOM      9  C   UNL     1       0.728  13.542  20.184  0.00  0.00    +0.000 A 
ATOM     10  C   UNL     1       1.546  13.898  21.241  0.00  0.00    +0.000 A 
ATOM     11  C   UNL     1       2.803  14.412  20.939  0.00  0.00    +0.000 A 
ATOM     12  C   UNL     1       3.208  14.510  19.601  0.00  0.00    +0.000 A 
ATOM     13  C   UNL     1       2.286  14.335  18.565  0.00  0.00    +0.000 A 
ATOM     14  C   UNL     1       0.997  13.964  18.892  0.00  0.00    +0.000 A 
ATOM     15  C   UNL     1      -0.174  13.715  18.008  0.00  0.00    +0.000 C 
ATOM     16  C   UNL     1      -1.033  12.779  18.896  0.00  0.00    +0.000 C 
ATOM     17  C   UNL     1      -1.736  11.752  18.030  0.00  0.00    +0.000 C 
ENDBRANCH   4   6
ENDBRANCH   1   4
BRANCH   1  18
ATOM     18  C   UNL     1       2.028   7.956  19.978  0.00  0.00    +0.000 C 
BRANCH  18  25
ATOM     19  C   UNL     1       6.001   3.708  14.650  0.00  0.00    +0.000 C 
ATOM     20  C   UNL     1       5.314   4.643  15.597  0.00  0.00    +0.000 A 
ATOM     21  C   UNL     1       5.711   6.033  15.597  0.00  0.00    +0.000 A 
ATOM     22  C   UNL     1       5.122   6.908  16.423  0.00  0.00    +0.000 A 
ATOM     23  C   UNL     1       4.084   6.451  17.375  0.00  0.00    +0.000 A 
ATOM     24  N   UNL     1       3.556   7.329  18.177  0.00  0.00    +0.000 NA
ATOM     25  C   UNL     1       2.643   6.895  19.100  0.00  0.00    +0.000 A 
ATOM     26  C   UNL     1       2.234   5.616  19.160  0.00  0.00    +0.000 A 
ATOM     27  C   UNL     1       2.803   4.621  18.247  0.00  0.00    +0.000 A 
ATOM     28  O   UNL     1       2.394   3.468  18.280  0.00  0.00    +0.000 OA
ATOM     29  N   UNL     1       3.765   5.106  17.354  0.00  0.00    +0.000 N 
ATOM     30  C   UNL     1       4.368   4.232  16.455  0.00  0.00    +0.000 A 
ENDBRANCH  18  25
ENDBRANCH   1  18
TORSDOF 4
ENDMDL
MODEL 8
REMARK VINA RESULT:      -6.8      6.561     11.819
REMARK  Name = 
REMARK  7 active torsions:
REMARK  status: ('A' for Active; 'I' for Inactive)
REMARK    1  A    between atoms: C_1  and  C_2
REMARK    2  A    between atoms: C_7  and  C_8
REMARK    3  A    between atoms: C_8  and  S_9
REMARK    4  A    between atoms: S_9  and  C_12
REMARK    5  A    between atoms: C_12  and  C_13
REMARK    6  A    between atoms: C_12  and  C_14
REMARK    7  A    between atoms: C_24  and  C_25
REMARK                            x       y       z     vdW  Elec       q    Type
REMARK                         _______ _______ _______ _____ _____    ______ ____
ROOT
ATOM      1  S   UNL     1      -6.602  12.759  21.167  0.00  0.00    +0.000 S 
ATOM      2  O   UNL     1      -7.719  13.286  20.401  0.00  0.00    +0.000 OA
ATOM      3  O   UNL     1      -6.311  11.336  21.102  0.00  0.00    +0.000 OA
ENDROOT
BRANCH   1   4
ATOM      4  C   UNL     1      -6.799  13.242  22.899  0.00  0.00    +0.000 C 
ATOM      5  C   UNL     1      -7.542  12.168  23.696  0.00  0.00    +0.000 C 
BRANCH   4   6
ATOM      6  C   UNL     1      -5.427  13.445  23.516  0.00  0.00    +0.000 C 
ATOM      7  O   UNL     1      -4.709  12.439  23.630  0.00  0.00    +0.000 OA
ATOM      8  N   UNL     1      -4.989  14.702  23.954  0.00  0.00    +0.000 N 
ATOM      9  C   UNL     1      -3.572  14.900  23.891  0.00  0.00    +0.000 A 
ATOM     10  C   UNL     1      -2.562  14.011  24.212  0.00  0.00    +0.000 A 
ATOM     11  C   UNL     1      -1.414  14.027  23.426  0.00  0.00    +0.000 A 
ATOM     12  C   UNL     1      -1.339  14.896  22.328  0.00  0.00    +0.000 A 
ATOM     13  C   UNL     1      -2.283  15.912  22.161  0.00  0.00    +0.000 A 
ATOM     14  C   UNL     1      -3.344  15.971  23.043  0.00  0.00    +0.000 A 
ATOM     15  C   UNL     1      -4.478  16.934  23.104  0.00  0.00    +0.000 C 
ATOM     16  C   UNL     1      -5.548  16.098  23.851  0.00  0.00    +0.000 C 
ATOM     17  C   UNL     1      -6.926  16.425  23.310  0.00  0.00    +0.000 C 
ENDBRANCH   4   6
ENDBRANCH   1   4
BRANCH   1  18
ATOM     18  C   UNL     1      -5.159  13.624  20.532  0.00  0.00    +0.000 C 
BRANCH  18  25
ATOM     19  C   UNL     1       0.988   9.389  17.983  0.00  0.00    +0.000 C 
ATOM     20  C   UNL     1      -0.081  10.254  18.577  0.00  0.00    +0.000 A 
ATOM     21  C   UNL     1       0.208  10.954  19.808  0.00  0.00    +0.000 A 
ATOM     22  C   UNL     1      -0.716  11.742  20.374  0.00  0.00    +0.000 A 
ATOM     23  C   UNL     1      -2.058  11.874  19.764  0.00  0.00    +0.000 A 
ATOM     24  N   UNL     1      -2.933  12.630  20.360  0.00  0.00    +0.000 NA
ATOM     25  C   UNL     1      -4.194  12.702  19.831  0.00  0.00    +0.000 A 
ATOM     26  C   UNL     1      -4.531  12.072  18.693  0.00  0.00    +0.000 A 
ATOM     27  C   UNL     1      -3.550  11.236  17.997  0.00  0.00    +0.000 A 
ATOM     28  O   UNL     1      -3.853  10.702  16.940  0.00  0.00    +0.000 OA
ATOM     29  N   UNL     1      -2.290  11.159  18.604  0.00  0.00    +0.000 N 
ATOM     30  C   UNL     1      -1.295  10.381  18.021  0.00  0.00    +0.000 A 
ENDBRANCH  18  25
ENDBRANCH   1  18
TORSDOF 4
ENDMDL
MODEL 9
REMARK VINA RESULT:      -6.7      1.970      3.942
REMARK  Name = 
REMARK  7 active torsions:
REMARK  status: ('A' for Active; 'I' for Inactive)
REMARK    1  A    between atoms: C_1  and  C_2
REMARK    2  A    between atoms: C_7  and  C_8
REMARK    3  A    between atoms: C_8  and  S_9
REMARK    4  A    between atoms: S_9  and  C_12
REMARK    5  A    between atoms: C_12  and  C_13
REMARK    6  A    between atoms: C_12  and  C_14
REMARK    7  A    between atoms: C_24  and  C_25
REMARK                            x       y       z     vdW  Elec       q    Type
REMARK                         _______ _______ _______ _____ _____    ______ ____
ROOT
ATOM      1  S   UNL     1       2.531   5.093  18.950  0.00  0.00    +0.000 S 
ATOM      2  O   UNL     1       1.734   5.257  20.155  0.00  0.00    +0.000 OA
ATOM      3  O   UNL     1       1.888   4.600  17.743  0.00  0.00    +0.000 OA
ENDROOT
BRANCH   1   4
ATOM      4  C   UNL     1       3.958   4.049  19.327  0.00  0.00    +0.000 C 
ATOM      5  C   UNL     1       3.540   2.780  20.072  0.00  0.00    +0.000 C 
BRANCH   4   6
ATOM      6  C   UNL     1       4.638   3.651  18.031  0.00  0.00    +0.000 C 
ATOM      7  O   UNL     1       3.988   2.933  17.254  0.00  0.00    +0.000 OA
ATOM      8  N   UNL     1       5.944   4.056  17.722  0.00  0.00    +0.000 N 
ATOM      9  C   UNL     1       6.215   4.194  16.322  0.00  0.00    +0.000 A 
ATOM     10  C   UNL     1       5.814   3.376  15.281  0.00  0.00    +0.000 A 
ATOM     11  C   UNL     1       5.477   3.984  14.076  0.00  0.00    +0.000 A 
ATOM     12  C   UNL     1       5.512   5.382  13.972  0.00  0.00    +0.000 A 
ATOM     13  C   UNL     1       6.114   6.153  14.970  0.00  0.00    +0.000 A 
ATOM     14  C   UNL     1       6.577   5.512  16.102  0.00  0.00    +0.000 A 
ATOM     15  C   UNL     1       7.253   6.075  17.303  0.00  0.00    +0.000 C 
ATOM     16  C   UNL     1       6.926   4.998  18.369  0.00  0.00    +0.000 C 
ATOM     17  C   UNL     1       6.711   5.658  19.717  0.00  0.00    +0.000 C 
ENDBRANCH   4   6
ENDBRANCH   1   4
BRANCH   1  18
ATOM     18  C   UNL     1       3.155   6.739  18.583  0.00  0.00    +0.000 C 
BRANCH  18  25
ATOM     19  C   UNL     1      -1.510  11.698  22.566  0.00  0.00    +0.000 C 
ATOM     20  C   UNL     1      -0.602  10.679  21.948  0.00  0.00    +0.000 A 
ATOM     21  C   UNL     1       0.100   9.766  22.821  0.00  0.00    +0.000 A 
ATOM     22  C   UNL     1       0.920   8.836  22.313  0.00  0.00    +0.000 A 
ATOM     23  C   UNL     1       1.146   8.760  20.852  0.00  0.00    +0.000 A 
ATOM     24  N   UNL     1       1.970   7.858  20.404  0.00  0.00    +0.000 NA
ATOM     25  C   UNL     1       2.228   7.829  19.060  0.00  0.00    +0.000 A 
ATOM     26  C   UNL     1       1.615   8.652  18.193  0.00  0.00    +0.000 A 
ATOM     27  C   UNL     1       0.667   9.658  18.680  0.00  0.00    +0.000 A 
ATOM     28  O   UNL     1       0.082  10.375  17.880  0.00  0.00    +0.000 OA
ATOM     29  N   UNL     1       0.473   9.677  20.067  0.00  0.00    +0.000 N 
ATOM     30  C   UNL     1      -0.401  10.604  20.623  0.00  0.00    +0.000 A 
ENDBRANCH  18  25
ENDBRANCH   1  18
TORSDOF 4
ENDMDL
