MODEL 1
REMARK VINA RESULT:      -8.7      0.000      0.000
REMARK  Name = 
REMARK  6 active torsions:
REMARK  status: ('A' for Active; 'I' for Inactive)
REMARK    1  A    between atoms: C_1  and  C_2
REMARK    2  A    between atoms: C_5  and  N_6
REMARK    3  A    between atoms: C_10  and  S_11
REMARK    4  A    between atoms: S_11  and  C_12
REMARK    5  A    between atoms: C_12  and  C_13
REMARK    6  A    between atoms: N_15  and  C_16
REMARK                            x       y       z     vdW  Elec       q    Type
REMARK                         _______ _______ _______ _____ _____    ______ ____
ROOT
ATOM      1  C   UNL     1       1.534   8.574  21.313  0.00  0.00    +0.000 C 
ENDROOT
BRANCH   1   2
ATOM      2  C   UNL     1       1.858   8.096  19.899  0.00  0.00    +0.000 C 
ATOM      3  O   UNL     1       1.686   8.811  18.915  0.00  0.00    +0.000 OA
ATOM      4  N   UNL     1       2.267   6.783  19.805  0.00  0.00    +0.000 N 
ATOM      5  H   UNL     1       2.571   6.328  20.657  0.00  0.00    +0.000 HD
BRANCH   4   6
ATOM      6  C   UNL     1       2.575   6.114  18.541  0.00  0.00    +0.000 C 
ATOM      7  C   UNL     1       4.021   6.428  18.127  0.00  0.00    +0.000 C 
ATOM      8  C   UNL     1       4.548   5.590  16.969  0.00  0.00    +0.000 C 
ATOM      9  C   UNL     1       4.197   4.106  17.003  0.00  0.00    +0.000 C 
ATOM     10  C   UNL     1       3.052   3.698  17.892  0.00  0.00    +0.000 A 
ATOM     11  C   UNL     1       2.731   2.328  17.947  0.00  0.00    +0.000 A 
ATOM     12  C   UNL     1       1.687   1.865  18.745  0.00  0.00    +0.000 A 
ATOM     13  C   UNL     1       0.948   2.770  19.495  0.00  0.00    +0.000 A 
ATOM     14  C   UNL     1       1.246   4.132  19.433  0.00  0.00    +0.000 A 
ATOM     15  C   UNL     1       2.310   4.620  18.645  0.00  0.00    +0.000 A 
ENDBRANCH   4   6
ENDBRANCH   1   2
BRANCH   1  16
ATOM     16  S   UNL     1      -0.260   8.816  21.507  0.00  0.00    +0.000 S 
BRANCH  16  21
ATOM     17  N   UNL     1      -0.946  11.362  20.544  0.00  0.00    +0.000 N 
ATOM     18  N   UNL     1      -0.752  12.647  20.956  0.00  0.00    +0.000 NA
ATOM     19  N   UNL     1      -0.183  12.590  22.149  0.00  0.00    +0.000 NA
ATOM     20  N   UNL     1       0.040  11.299  22.528  0.00  0.00    +0.000 NA
ATOM     21  C   UNL     1      -0.415  10.545  21.544  0.00  0.00    +0.000 A 
BRANCH  17  26
ATOM     22  C   UNL     1      -3.583  10.476  15.491  0.00  0.00    +0.000 C 
ATOM     23  C   UNL     1      -2.909  10.706  16.812  0.00  0.00    +0.000 A 
ATOM     24  C   UNL     1      -3.421  11.604  17.748  0.00  0.00    +0.000 A 
ATOM     25  C   UNL     1      -2.768  11.806  18.973  0.00  0.00    +0.000 A 
ATOM     26  C   UNL     1      -1.585  11.114  19.288  0.00  0.00    +0.000 A 
ATOM     27  C   UNL     1      -1.094  10.194  18.351  0.00  0.00    +0.000 A 
ATOM     28  C   UNL     1      -1.747   9.999  17.126  0.00  0.00    +0.000 A 
ENDBRANCH  17  26
ENDBRANCH  16  21
ENDBRANCH   1  16
TORSDOF 5
ENDMDL
MODEL 2
REMARK VINA RESULT:      -8.3      7.047     10.315
REMARK  Name = 
REMARK  6 active torsions:
REMARK  status: ('A' for Active; 'I' for Inactive)
REMARK    1  A    between atoms: C_1  and  C_2
REMARK    2  A    between atoms: C_5  and  N_6
REMARK    3  A    between atoms: C_10  and  S_11
REMARK    4  A    between atoms: S_11  and  C_12
REMARK    5  A    between atoms: C_12  and  C_13
REMARK    6  A    between atoms: N_15  and  C_16
REMARK                            x       y       z     vdW  Elec       q    Type
REMARK                         _______ _______ _______ _____ _____    ______ ____
ROOT
ATOM      1  C   UNL     1       7.618   8.872  17.650  0.00  0.00    +0.000 C 
ENDROOT
BRANCH   1   2
ATOM      2  C   UNL     1       8.644   9.726  18.393  0.00  0.00    +0.000 C 
ATOM      3  O   UNL     1       9.176   9.346  19.433  0.00  0.00    +0.000 OA
ATOM      4  N   UNL     1       8.857  10.980  17.860  0.00  0.00    +0.000 N 
ATOM      5  H   UNL     1       8.542  11.142  16.913  0.00  0.00    +0.000 HD
BRANCH   4   6
ATOM      6  C   UNL     1       9.757  11.971  18.448  0.00  0.00    +0.000 C 
ATOM      7  C   UNL     1      11.194  11.719  17.965  0.00  0.00    +0.000 C 
ATOM      8  C   UNL     1      12.182  12.831  18.295  0.00  0.00    +0.000 C 
ATOM      9  C   UNL     1      11.676  14.256  18.093  0.00  0.00    +0.000 C 
ATOM     10  C   UNL     1      10.185  14.445  18.013  0.00  0.00    +0.000 A 
ATOM     11  C   UNL     1       9.707  15.753  17.807  0.00  0.00    +0.000 A 
ATOM     12  C   UNL     1       8.342  16.015  17.720  0.00  0.00    +0.000 A 
ATOM     13  C   UNL     1       7.437  14.970  17.841  0.00  0.00    +0.000 A 
ATOM     14  C   UNL     1       7.899  13.672  18.065  0.00  0.00    +0.000 A 
ATOM     15  C   UNL     1       9.277  13.382  18.139  0.00  0.00    +0.000 A 
ENDBRANCH   4   6
ENDBRANCH   1   2
BRANCH   1  16
ATOM     16  S   UNL     1       7.827   7.114  18.076  0.00  0.00    +0.000 S 
BRANCH  16  21
ATOM     17  N   UNL     1       5.641   5.866  16.834  0.00  0.00    +0.000 N 
ATOM     18  N   UNL     1       5.437   5.182  15.673  0.00  0.00    +0.000 NA
ATOM     19  N   UNL     1       6.561   5.253  14.979  0.00  0.00    +0.000 NA
ATOM     20  N   UNL     1       7.522   5.937  15.664  0.00  0.00    +0.000 NA
ATOM     21  C   UNL     1       6.967   6.304  16.805  0.00  0.00    +0.000 A 
BRANCH  17  26
ATOM     22  C   UNL     1       1.398   6.287  20.719  0.00  0.00    +0.000 C 
ATOM     23  C   UNL     1       2.499   6.164  19.707  0.00  0.00    +0.000 A 
ATOM     24  C   UNL     1       3.413   5.112  19.745  0.00  0.00    +0.000 A 
ATOM     25  C   UNL     1       4.438   5.024  18.791  0.00  0.00    +0.000 A 
ATOM     26  C   UNL     1       4.571   5.989  17.777  0.00  0.00    +0.000 A 
ATOM     27  C   UNL     1       3.631   7.028  17.734  0.00  0.00    +0.000 A 
ATOM     28  C   UNL     1       2.612   7.115  18.691  0.00  0.00    +0.000 A 
ENDBRANCH  17  26
ENDBRANCH  16  21
ENDBRANCH   1  16
TORSDOF 5
ENDMDL
MODEL 3
REMARK VINA RESULT:      -8.2      0.894      1.087
REMARK  Name = 
REMARK  6 active torsions:
REMARK  status: ('A' for Active; 'I' for Inactive)
REMARK    1  A    between atoms: C_1  and  C_2
REMARK    2  A    between atoms: C_5  and  N_6
REMARK    3  A    between atoms: C_10  and  S_11
REMARK    4  A    between atoms: S_11  and  C_12
REMARK    5  A    between atoms: C_12  and  C_13
REMARK    6  A    between atoms: N_15  and  C_16
REMARK                            x       y       z     vdW  Elec       q    Type
REMARK                         _______ _______ _______ _____ _____    ______ ____
ROOT
ATOM      1  C   UNL     1       1.532   8.546  21.277  0.00  0.00    +0.000 C 
ENDROOT
BRANCH   1   2
ATOM      2  C   UNL     1       1.788   8.061  19.852  0.00  0.00    +0.000 C 
ATOM      3  O   UNL     1       1.430   8.706  18.870  0.00  0.00    +0.000 OA
ATOM      4  N   UNL     1       2.367   6.813  19.754  0.00  0.00    +0.000 N 
ATOM      5  H   UNL     1       2.808   6.438  20.584  0.00  0.00    +0.000 HD
BRANCH   4   6
ATOM      6  C   UNL     1       2.648   6.143  18.484  0.00  0.00    +0.000 C 
ATOM      7  C   UNL     1       4.097   6.424  18.059  0.00  0.00    +0.000 C 
ATOM      8  C   UNL     1       4.594   5.579  16.893  0.00  0.00    +0.000 C 
ATOM      9  C   UNL     1       4.208   4.104  16.924  0.00  0.00    +0.000 C 
ATOM     10  C   UNL     1       3.063   3.719  17.821  0.00  0.00    +0.000 A 
ATOM     11  C   UNL     1       2.709   2.357  17.873  0.00  0.00    +0.000 A 
ATOM     12  C   UNL     1       1.661   1.915  18.678  0.00  0.00    +0.000 A 
ATOM     13  C   UNL     1       0.951   2.834  19.438  0.00  0.00    +0.000 A 
ATOM     14  C   UNL     1       1.280   4.189  19.380  0.00  0.00    +0.000 A 
ATOM     15  C   UNL     1       2.348   4.655  18.584  0.00  0.00    +0.000 A 
ENDBRANCH   4   6
ENDBRANCH   1   2
BRANCH   1  16
ATOM     16  S   UNL     1      -0.096   9.353  21.390  0.00  0.00    +0.000 S 
BRANCH  16  21
ATOM     17  N   UNL     1      -0.453  11.864  20.189  0.00  0.00    +0.000 N 
ATOM     18  N   UNL     1       0.266  13.019  20.110  0.00  0.00    +0.000 NA
ATOM     19  N   UNL     1       1.323  12.874  20.892  0.00  0.00    +0.000 NA
ATOM     20  N   UNL     1       1.346  11.635  21.464  0.00  0.00    +0.000 NA
ATOM     21  C   UNL     1       0.268  11.010  21.027  0.00  0.00    +0.000 A 
BRANCH  17  26
ATOM     22  C   UNL     1      -5.455  11.500  17.340  0.00  0.00    +0.000 C 
ATOM     23  C   UNL     1      -4.160  11.591  18.093  0.00  0.00    +0.000 A 
ATOM     24  C   UNL     1      -4.069  12.261  19.313  0.00  0.00    +0.000 A 
ATOM     25  C   UNL     1      -2.844  12.339  19.993  0.00  0.00    +0.000 A 
ATOM     26  C   UNL     1      -1.682  11.748  19.466  0.00  0.00    +0.000 A 
ATOM     27  C   UNL     1      -1.792  11.055  18.252  0.00  0.00    +0.000 A 
ATOM     28  C   UNL     1      -3.015  10.984  17.573  0.00  0.00    +0.000 A 
ENDBRANCH  17  26
ENDBRANCH  16  21
ENDBRANCH   1  16
TORSDOF 5
ENDMDL
MODEL 4
REMARK VINA RESULT:      -8.2      2.983      8.909
REMARK  Name = 
REMARK  6 active torsions:
REMARK  status: ('A' for Active; 'I' for Inactive)
REMARK    1  A    between atoms: C_1  and  C_2
REMARK    2  A    between atoms: C_5  and  N_6
REMARK    3  A    between atoms: C_10  and  S_11
REMARK    4  A    between atoms: S_11  and  C_12
REMARK    5  A    between atoms: C_12  and  C_13
REMARK    6  A    between atoms: N_15  and  C_16
REMARK                            x       y       z     vdW  Elec       q    Type
REMARK                         _______ _______ _______ _____ _____    ______ ____
ROOT
ATOM      1  C   UNL     1       3.128   7.586  17.933  0.00  0.00    +0.000 C 
ENDROOT
BRANCH   1   2
ATOM      2  C   UNL     1       2.134   8.020  19.008  0.00  0.00    +0.000 C 
ATOM      3  O   UNL     1       1.955   7.364  20.031  0.00  0.00    +0.000 OA
ATOM      4  N   UNL     1       1.397   9.144  18.703  0.00  0.00    +0.000 N 
ATOM      5  H   UNL     1       1.734   9.732  17.952  0.00  0.00    +0.000 HD
BRANCH   4   6
ATOM      6  C   UNL     1       0.357   9.695  19.571  0.00  0.00    +0.000 C 
ATOM      7  C   UNL     1       0.973  10.726  20.530  0.00  0.00    +0.000 C 
ATOM      8  C   UNL     1      -0.039  11.559  21.307  0.00  0.00    +0.000 C 
ATOM      9  C   UNL     1      -1.244  12.057  20.515  0.00  0.00    +0.000 C 
ATOM     10  C   UNL     1      -1.542  11.357  19.217  0.00  0.00    +0.000 A 
ATOM     11  C   UNL     1      -2.640  11.820  18.467  0.00  0.00    +0.000 A 
ATOM     12  C   UNL     1      -2.985  11.228  17.254  0.00  0.00    +0.000 A 
ATOM     13  C   UNL     1      -2.236  10.161  16.778  0.00  0.00    +0.000 A 
ATOM     14  C   UNL     1      -1.158   9.680  17.523  0.00  0.00    +0.000 A 
ATOM     15  C   UNL     1      -0.781  10.276  18.744  0.00  0.00    +0.000 A 
ENDBRANCH   4   6
ENDBRANCH   1   2
BRANCH   1  16
ATOM     16  S   UNL     1       3.215   5.769  17.843  0.00  0.00    +0.000 S 
BRANCH  16  21
ATOM     17  N   UNL     1       5.892   4.944  17.673  0.00  0.00    +0.000 N 
ATOM     18  N   UNL     1       6.902   4.717  18.559  0.00  0.00    +0.000 NA
ATOM     19  N   UNL     1       6.465   5.090  19.750  0.00  0.00    +0.000 NA
ATOM     20  N   UNL     1       5.175   5.529  19.687  0.00  0.00    +0.000 NA
ATOM     21  C   UNL     1       4.817   5.430  18.419  0.00  0.00    +0.000 A 
BRANCH  17  26
ATOM     22  C   UNL     1       6.585   3.785  12.065  0.00  0.00    +0.000 C 
ATOM     23  C   UNL     1       6.402   4.073  13.526  0.00  0.00    +0.000 A 
ATOM     24  C   UNL     1       5.328   3.552  14.246  0.00  0.00    +0.000 A 
ATOM     25  C   UNL     1       5.175   3.843  15.610  0.00  0.00    +0.000 A 
ATOM     26  C   UNL     1       6.096   4.664  16.284  0.00  0.00    +0.000 A 
ATOM     27  C   UNL     1       7.187   5.160  15.557  0.00  0.00    +0.000 A 
ATOM     28  C   UNL     1       7.332   4.872  14.194  0.00  0.00    +0.000 A 
ENDBRANCH  17  26
ENDBRANCH  16  21
ENDBRANCH   1  16
TORSDOF 5
ENDMDL
MODEL 5
REMARK VINA RESULT:      -8.1      3.202      8.316
REMARK  Name = 
REMARK  6 active torsions:
REMARK  status: ('A' for Active; 'I' for Inactive)
REMARK    1  A    between atoms: C_1  and  C_2
REMARK    2  A    between atoms: C_5  and  N_6
REMARK    3  A    between atoms: C_10  and  S_11
REMARK    4  A    between atoms: S_11  and  C_12
REMARK    5  A    between atoms: C_12  and  C_13
REMARK    6  A    between atoms: N_15  and  C_16
REMARK                            x       y       z     vdW  Elec       q    Type
REMARK                         _______ _______ _______ _____ _____    ______ ____
ROOT
ATOM      1  C   UNL     1       1.461   4.990  20.734  0.00  0.00    +0.000 C 
ENDROOT
BRANCH   1   2
ATOM      2  C   UNL     1       1.952   6.386  20.356  0.00  0.00    +0.000 C 
ATOM      3  O   UNL     1       3.075   6.578  19.896  0.00  0.00    +0.000 OA
ATOM      4  N   UNL     1       1.082   7.413  20.653  0.00  0.00    +0.000 N 
ATOM      5  H   UNL     1       0.118   7.166  20.840  0.00  0.00    +0.000 HD
BRANCH   4   6
ATOM      6  C   UNL     1       1.380   8.826  20.421  0.00  0.00    +0.000 C 
ATOM      7  C   UNL     1       1.327   9.127  18.915  0.00  0.00    +0.000 C 
ATOM      8  C   UNL     1       1.364  10.608  18.560  0.00  0.00    +0.000 C 
ATOM      9  C   UNL     1       0.511  11.526  19.429  0.00  0.00    +0.000 C 
ATOM     10  C   UNL     1       0.074  10.986  20.765  0.00  0.00    +0.000 A 
ATOM     11  C   UNL     1      -0.730  11.816  21.568  0.00  0.00    +0.000 A 
ATOM     12  C   UNL     1      -1.178  11.394  22.818  0.00  0.00    +0.000 A 
ATOM     13  C   UNL     1      -0.822  10.134  23.281  0.00  0.00    +0.000 A 
ATOM     14  C   UNL     1      -0.008   9.311  22.501  0.00  0.00    +0.000 A 
ATOM     15  C   UNL     1       0.441   9.712  21.226  0.00  0.00    +0.000 A 
ENDBRANCH   4   6
ENDBRANCH   1   2
BRANCH   1  16
ATOM     16  S   UNL     1       2.840   3.803  20.713  0.00  0.00    +0.000 S 
BRANCH  16  21
ATOM     17  N   UNL     1       3.606   3.717  18.014  0.00  0.00    +0.000 N 
ATOM     18  N   UNL     1       3.183   3.056  16.900  0.00  0.00    +0.000 NA
ATOM     19  N   UNL     1       2.251   2.200  17.286  0.00  0.00    +0.000 NA
ATOM     20  N   UNL     1       2.017   2.298  18.626  0.00  0.00    +0.000 NA
ATOM     21  C   UNL     1       2.836   3.233  19.073  0.00  0.00    +0.000 A 
BRANCH  17  26
ATOM     22  C   UNL     1       7.724   7.723  17.508  0.00  0.00    +0.000 C 
ATOM     23  C   UNL     1       6.653   6.680  17.626  0.00  0.00    +0.000 A 
ATOM     24  C   UNL     1       5.528   6.690  16.802  0.00  0.00    +0.000 A 
ATOM     25  C   UNL     1       4.536   5.707  16.938  0.00  0.00    +0.000 A 
ATOM     26  C   UNL     1       4.649   4.690  17.903  0.00  0.00    +0.000 A 
ATOM     27  C   UNL     1       5.797   4.674  18.707  0.00  0.00    +0.000 A 
ATOM     28  C   UNL     1       6.782   5.661  18.572  0.00  0.00    +0.000 A 
ENDBRANCH  17  26
ENDBRANCH  16  21
ENDBRANCH   1  16
TORSDOF 5
ENDMDL
MODEL 6
REMARK VINA RESULT:      -8.1      1.024      2.666
REMARK  Name = 
REMARK  6 active torsions:
REMARK  status: ('A' for Active; 'I' for Inactive)
REMARK    1  A    between atoms: C_1  and  C_2
REMARK    2  A    between atoms: C_5  and  N_6
REMARK    3  A    between atoms: C_10  and  S_11
REMARK    4  A    between atoms: S_11  and  C_12
REMARK    5  A    between atoms: C_12  and  C_13
REMARK    6  A    between atoms: N_15  and  C_16
REMARK                            x       y       z     vdW  Elec       q    Type
REMARK                         _______ _______ _______ _____ _____    ______ ____
ROOT
ATOM      1  C   UNL     1       1.434   8.587  20.298  0.00  0.00    +0.000 C 
ENDROOT
BRANCH   1   2
ATOM      2  C   UNL     1       1.798   7.106  20.210  0.00  0.00    +0.000 C 
ATOM      3  O   UNL     1       1.608   6.333  21.145  0.00  0.00    +0.000 OA
ATOM      4  N   UNL     1       2.432   6.728  19.045  0.00  0.00    +0.000 N 
ATOM      5  H   UNL     1       2.374   7.360  18.258  0.00  0.00    +0.000 HD
BRANCH   4   6
ATOM      6  C   UNL     1       2.911   5.371  18.783  0.00  0.00    +0.000 C 
ATOM      7  C   UNL     1       1.722   4.455  18.458  0.00  0.00    +0.000 C 
ATOM      8  C   UNL     1       2.103   3.083  17.915  0.00  0.00    +0.000 C 
ATOM      9  C   UNL     1       3.231   3.061  16.889  0.00  0.00    +0.000 C 
ATOM     10  C   UNL     1       4.122   4.273  16.829  0.00  0.00    +0.000 A 
ATOM     11  C   UNL     1       5.155   4.272  15.873  0.00  0.00    +0.000 A 
ATOM     12  C   UNL     1       6.024   5.354  15.750  0.00  0.00    +0.000 A 
ATOM     13  C   UNL     1       5.871   6.450  16.588  0.00  0.00    +0.000 A 
ATOM     14  C   UNL     1       4.862   6.454  17.553  0.00  0.00    +0.000 A 
ATOM     15  C   UNL     1       3.961   5.376  17.682  0.00  0.00    +0.000 A 
ENDBRANCH   4   6
ENDBRANCH   1   2
BRANCH   1  16
ATOM     16  S   UNL     1      -0.107   8.807  21.241  0.00  0.00    +0.000 S 
BRANCH  16  21
ATOM     17  N   UNL     1      -0.875  11.349  20.331  0.00  0.00    +0.000 N 
ATOM     18  N   UNL     1      -0.677  12.634  20.741  0.00  0.00    +0.000 NA
ATOM     19  N   UNL     1      -0.048  12.578  21.903  0.00  0.00    +0.000 NA
ATOM     20  N   UNL     1       0.211  11.288  22.262  0.00  0.00    +0.000 NA
ATOM     21  C   UNL     1      -0.283  10.533  21.297  0.00  0.00    +0.000 A 
BRANCH  17  26
ATOM     22  C   UNL     1      -3.622  10.227  15.385  0.00  0.00    +0.000 C 
ATOM     23  C   UNL     1      -2.896  10.520  16.665  0.00  0.00    +0.000 A 
ATOM     24  C   UNL     1      -1.676   9.916  16.968  0.00  0.00    +0.000 A 
ATOM     25  C   UNL     1      -1.020  10.202  18.175  0.00  0.00    +0.000 A 
ATOM     26  C   UNL     1      -1.573  11.099  19.107  0.00  0.00    +0.000 A 
ATOM     27  C   UNL     1      -2.786  11.720  18.779  0.00  0.00    +0.000 A 
ATOM     28  C   UNL     1      -3.441  11.427  17.576  0.00  0.00    +0.000 A 
ENDBRANCH  17  26
ENDBRANCH  16  21
ENDBRANCH   1  16
TORSDOF 5
ENDMDL
MODEL 7
REMARK VINA RESULT:      -8.1      3.648      7.957
REMARK  Name = 
REMARK  6 active torsions:
REMARK  status: ('A' for Active; 'I' for Inactive)
REMARK    1  A    between atoms: C_1  and  C_2
REMARK    2  A    between atoms: C_5  and  N_6
REMARK    3  A    between atoms: C_10  and  S_11
REMARK    4  A    between atoms: S_11  and  C_12
REMARK    5  A    between atoms: C_12  and  C_13
REMARK    6  A    between atoms: N_15  and  C_16
REMARK                            x       y       z     vdW  Elec       q    Type
REMARK                         _______ _______ _______ _____ _____    ______ ____
ROOT
ATOM      1  C   UNL     1       1.910   3.904  21.306  0.00  0.00    +0.000 C 
ENDROOT
BRANCH   1   2
ATOM      2  C   UNL     1       1.716   5.127  20.412  0.00  0.00    +0.000 C 
ATOM      3  O   UNL     1       0.964   5.110  19.440  0.00  0.00    +0.000 OA
ATOM      4  N   UNL     1       2.509   6.211  20.723  0.00  0.00    +0.000 N 
ATOM      5  H   UNL     1       2.945   6.221  21.635  0.00  0.00    +0.000 HD
BRANCH   4   6
ATOM      6  C   UNL     1       2.517   7.459  19.961  0.00  0.00    +0.000 C 
ATOM      7  C   UNL     1       2.379   7.153  18.461  0.00  0.00    +0.000 C 
ATOM      8  C   UNL     1       2.115   8.370  17.584  0.00  0.00    +0.000 C 
ATOM      9  C   UNL     1       1.111   9.381  18.128  0.00  0.00    +0.000 C 
ATOM     10  C   UNL     1       0.814   9.320  19.602  0.00  0.00    +0.000 A 
ATOM     11  C   UNL     1      -0.126  10.235  20.113  0.00  0.00    +0.000 A 
ATOM     12  C   UNL     1      -0.459  10.246  21.466  0.00  0.00    +0.000 A 
ATOM     13  C   UNL     1       0.148   9.340  22.326  0.00  0.00    +0.000 A 
ATOM     14  C   UNL     1       1.096   8.441  21.834  0.00  0.00    +0.000 A 
ATOM     15  C   UNL     1       1.435   8.402  20.465  0.00  0.00    +0.000 A 
ENDBRANCH   4   6
ENDBRANCH   1   2
BRANCH   1  16
ATOM     16  S   UNL     1       3.353   2.939  20.758  0.00  0.00    +0.000 S 
BRANCH  16  21
ATOM     17  N   UNL     1       3.653   3.461  18.017  0.00  0.00    +0.000 N 
ATOM     18  N   UNL     1       3.038   3.051  16.872  0.00  0.00    +0.000 NA
ATOM     19  N   UNL     1       2.170   2.111  17.212  0.00  0.00    +0.000 NA
ATOM     20  N   UNL     1       2.166   1.909  18.561  0.00  0.00    +0.000 NA
ATOM     21  C   UNL     1       3.064   2.741  19.058  0.00  0.00    +0.000 A 
BRANCH  17  26
ATOM     22  C   UNL     1       7.714   7.539  17.648  0.00  0.00    +0.000 C 
ATOM     23  C   UNL     1       6.661   6.474  17.731  0.00  0.00    +0.000 A 
ATOM     24  C   UNL     1       5.775   6.238  16.681  0.00  0.00    +0.000 A 
ATOM     25  C   UNL     1       4.794   5.241  16.787  0.00  0.00    +0.000 A 
ATOM     26  C   UNL     1       4.678   4.457  17.949  0.00  0.00    +0.000 A 
ATOM     27  C   UNL     1       5.590   4.686  18.988  0.00  0.00    +0.000 A 
ATOM     28  C   UNL     1       6.565   5.686  18.880  0.00  0.00    +0.000 A 
ENDBRANCH  17  26
ENDBRANCH  16  21
ENDBRANCH   1  16
TORSDOF 5
ENDMDL
MODEL 8
REMARK VINA RESULT:      -8.1      1.637      2.050
REMARK  Name = 
REMARK  6 active torsions:
REMARK  status: ('A' for Active; 'I' for Inactive)
REMARK    1  A    between atoms: C_1  and  C_2
REMARK    2  A    between atoms: C_5  and  N_6
REMARK    3  A    between atoms: C_10  and  S_11
REMARK    4  A    between atoms: S_11  and  C_12
REMARK    5  A    between atoms: C_12  and  C_13
REMARK    6  A    between atoms: N_15  and  C_16
REMARK                            x       y       z     vdW  Elec       q    Type
REMARK                         _______ _______ _______ _____ _____    ______ ____
ROOT
ATOM      1  C   UNL     1       1.584   9.119  19.815  0.00  0.00    +0.000 C 
ENDROOT
BRANCH   1   2
ATOM      2  C   UNL     1       2.043   8.380  18.559  0.00  0.00    +0.000 C 
ATOM      3  O   UNL     1       1.943   8.876  17.440  0.00  0.00    +0.000 OA
ATOM      4  N   UNL     1       2.490   7.093  18.768  0.00  0.00    +0.000 N 
ATOM      5  H   UNL     1       2.728   6.831  19.716  0.00  0.00    +0.000 HD
BRANCH   4   6
ATOM      6  C   UNL     1       2.924   6.198  17.696  0.00  0.00    +0.000 C 
ATOM      7  C   UNL     1       4.412   6.432  17.394  0.00  0.00    +0.000 C 
ATOM      8  C   UNL     1       5.050   5.392  16.482  0.00  0.00    +0.000 C 
ATOM      9  C   UNL     1       4.671   3.940  16.758  0.00  0.00    +0.000 C 
ATOM     10  C   UNL     1       3.429   3.703  17.574  0.00  0.00    +0.000 A 
ATOM     11  C   UNL     1       3.080   2.368  17.851  0.00  0.00    +0.000 A 
ATOM     12  C   UNL     1       1.946   2.061  18.601  0.00  0.00    +0.000 A 
ATOM     13  C   UNL     1       1.145   3.089  19.079  0.00  0.00    +0.000 A 
ATOM     14  C   UNL     1       1.470   4.416  18.793  0.00  0.00    +0.000 A 
ATOM     15  C   UNL     1       2.623   4.749  18.051  0.00  0.00    +0.000 A 
ENDBRANCH   4   6
ENDBRANCH   1   2
BRANCH   1  16
ATOM     16  S   UNL     1      -0.156   9.627  19.653  0.00  0.00    +0.000 S 
BRANCH  16  21
ATOM     17  N   UNL     1      -1.061  12.061  18.589  0.00  0.00    +0.000 N 
ATOM     18  N   UNL     1      -0.479  13.217  18.164  0.00  0.00    +0.000 NA
ATOM     19  N   UNL     1       0.811  13.128  18.442  0.00  0.00    +0.000 NA
ATOM     20  N   UNL     1       1.110  11.925  19.011  0.00  0.00    +0.000 NA
ATOM     21  C   UNL     1      -0.031  11.265  19.093  0.00  0.00    +0.000 A 
BRANCH  17  26
ATOM     22  C   UNL     1      -6.779  11.468  18.111  0.00  0.00    +0.000 C 
ATOM     23  C   UNL     1      -5.292  11.618  18.248  0.00  0.00    +0.000 A 
ATOM     24  C   UNL     1      -4.716  12.185  19.385  0.00  0.00    +0.000 A 
ATOM     25  C   UNL     1      -3.323  12.320  19.485  0.00  0.00    +0.000 A 
ATOM     26  C   UNL     1      -2.475  11.891  18.448  0.00  0.00    +0.000 A 
ATOM     27  C   UNL     1      -3.064  11.298  17.322  0.00  0.00    +0.000 A 
ATOM     28  C   UNL     1      -4.456  11.170  17.224  0.00  0.00    +0.000 A 
ENDBRANCH  17  26
ENDBRANCH  16  21
ENDBRANCH   1  16
TORSDOF 5
ENDMDL
MODEL 9
REMARK VINA RESULT:      -8.0      2.489      8.406
REMARK  Name = 
REMARK  6 active torsions:
REMARK  status: ('A' for Active; 'I' for Inactive)
REMARK    1  A    between atoms: C_1  and  C_2
REMARK    2  A    between atoms: C_5  and  N_6
REMARK    3  A    between atoms: C_10  and  S_11
REMARK    4  A    between atoms: S_11  and  C_12
REMARK    5  A    between atoms: C_12  and  C_13
REMARK    6  A    between atoms: N_15  and  C_16
REMARK                            x       y       z     vdW  Elec       q    Type
REMARK                         _______ _______ _______ _____ _____    ______ ____
ROOT
ATOM      1  C   UNL     1       2.301   7.178  18.406  0.00  0.00    +0.000 C 
ENDROOT
BRANCH   1   2
ATOM      2  C   UNL     1       1.900   8.648  18.304  0.00  0.00    +0.000 C 
ATOM      3  O   UNL     1       2.468   9.426  17.543  0.00  0.00    +0.000 OA
ATOM      4  N   UNL     1       0.922   9.050  19.189  0.00  0.00    +0.000 N 
ATOM      5  H   UNL     1       0.372   8.327  19.635  0.00  0.00    +0.000 HD
BRANCH   4   6
ATOM      6  C   UNL     1       0.433  10.425  19.292  0.00  0.00    +0.000 C 
ATOM      7  C   UNL     1      -0.481  10.742  18.098  0.00  0.00    +0.000 C 
ATOM      8  C   UNL     1      -1.258  12.046  18.219  0.00  0.00    +0.000 C 
ATOM      9  C   UNL     1      -1.865  12.339  19.587  0.00  0.00    +0.000 C 
ATOM     10  C   UNL     1      -1.305  11.576  20.758  0.00  0.00    +0.000 A 
ATOM     11  C   UNL     1      -1.869  11.823  22.023  0.00  0.00    +0.000 A 
ATOM     12  C   UNL     1      -1.410  11.160  23.159  0.00  0.00    +0.000 A 
ATOM     13  C   UNL     1      -0.375  10.241  23.041  0.00  0.00    +0.000 A 
ATOM     14  C   UNL     1       0.205  10.002  21.794  0.00  0.00    +0.000 A 
ATOM     15  C   UNL     1      -0.257  10.651  20.629  0.00  0.00    +0.000 A 
ENDBRANCH   4   6
ENDBRANCH   1   2
BRANCH   1  16
ATOM     16  S   UNL     1       2.214   6.614  20.134  0.00  0.00    +0.000 S 
BRANCH  16  21
ATOM     17  N   UNL     1       2.750   4.028  19.182  0.00  0.00    +0.000 N 
ATOM     18  N   UNL     1       2.146   2.810  19.272  0.00  0.00    +0.000 NA
ATOM     19  N   UNL     1       1.125   2.943  20.101  0.00  0.00    +0.000 NA
ATOM     20  N   UNL     1       1.011   4.229  20.541  0.00  0.00    +0.000 NA
ATOM     21  C   UNL     1       1.996   4.899  19.971  0.00  0.00    +0.000 A 
BRANCH  17  26
ATOM     22  C   UNL     1       7.389   4.651  15.811  0.00  0.00    +0.000 C 
ATOM     23  C   UNL     1       6.179   4.478  16.681  0.00  0.00    +0.000 A 
ATOM     24  C   UNL     1       4.936   4.141  16.147  0.00  0.00    +0.000 A 
ATOM     25  C   UNL     1       3.818   3.992  16.982  0.00  0.00    +0.000 A 
ATOM     26  C   UNL     1       3.920   4.178  18.372  0.00  0.00    +0.000 A 
ATOM     27  C   UNL     1       5.181   4.490  18.901  0.00  0.00    +0.000 A 
ATOM     28  C   UNL     1       6.293   4.643  18.063  0.00  0.00    +0.000 A 
ENDBRANCH  17  26
ENDBRANCH  16  21
ENDBRANCH   1  16
TORSDOF 5
ENDMDL
