MODEL 1
REMARK VINA RESULT:      -7.8      0.000      0.000
REMARK  Name = 
REMARK  4 active torsions:
REMARK  status: ('A' for Active; 'I' for Inactive)
REMARK    1  A    between atoms: C_1  and  C_2
REMARK    2  A    between atoms: C_7  and  C_8
REMARK    3  A    between atoms: C_8  and  C_9
REMARK    4  A    between atoms: C_15  and  C_17
REMARK                            x       y       z     vdW  Elec       q    Type
REMARK                         _______ _______ _______ _____ _____    ______ ____
ROOT
ATOM      1  C   UNL     1       2.422   4.891  18.015  0.00  0.00    +0.000 C 
ATOM      2  O   UNL     1       1.764   4.501  17.032  0.00  0.00    +0.000 OA
ATOM      3  N   UNL     1       2.322   6.250  18.390  0.00  0.00    +0.000 N 
ATOM      4  C   UNL     1       1.431   7.047  17.539  0.00  0.00    +0.000 C 
ATOM      5  C   UNL     1       1.495   8.560  17.778  0.00  0.00    +0.000 C 
ATOM      6  N   UNL     1       1.421   8.875  19.215  0.00  0.00    +0.000 N 
ATOM      7  C   UNL     1       0.403   9.579  19.863  0.00  0.00    +0.000 C 
ATOM      8  O   UNL     1       0.341   9.632  21.095  0.00  0.00    +0.000 OA
ATOM      9  C   UNL     1       2.429   8.174  20.009  0.00  0.00    +0.000 C 
ATOM     10  C   UNL     1       2.365   6.647  19.804  0.00  0.00    +0.000 C 
ENDROOT
BRANCH   7  11
ATOM     11  C   UNL     1      -0.679  10.250  19.116  0.00  0.00    +0.000 A 
ATOM     12  C   UNL     1      -1.166  11.464  19.633  0.00  0.00    +0.000 A 
ATOM     13  C   UNL     1      -2.254  12.123  19.054  0.00  0.00    +0.000 A 
ATOM     14  C   UNL     1      -2.759  11.547  17.888  0.00  0.00    +0.000 A 
ATOM     15  N   UNL     1      -3.849  11.817  17.106  0.00  0.00    +0.000 N 
ATOM     16  C   UNL     1      -3.626  11.222  15.897  0.00  0.00    +0.000 A 
ATOM     17  N   UNL     1      -2.709  10.286  16.000  0.00  0.00    +0.000 NA
ATOM     18  C   UNL     1      -2.169  10.463  17.250  0.00  0.00    +0.000 A 
ATOM     19  C   UNL     1      -1.142   9.760  17.887  0.00  0.00    +0.000 A 
ATOM     20  H   UNL     1      -4.663  12.354  17.369  0.00  0.00    +0.000 HD
ENDBRANCH   7  11
BRANCH   1  21
ATOM     21  C   UNL     1       3.452   3.929  18.760  0.00  0.00    +0.000 C 
ATOM     22  C   UNL     1       3.033   3.705  20.277  0.00  0.00    +0.000 C 
ATOM     23  C   UNL     1       2.247   2.459  19.828  0.00  0.00    +0.000 C 
ATOM     24  C   UNL     1       3.183   2.373  18.621  0.00  0.00    +0.000 C 
BRANCH  21  31
ATOM     25  C   UNL     1       5.091   3.718  16.044  0.00  0.00    +0.000 C 
ATOM     26  C   UNL     1       5.717   4.295  17.287  0.00  0.00    +0.000 A 
ATOM     27  C   UNL     1       7.058   4.729  17.182  0.00  0.00    +0.000 A 
ATOM     28  C   UNL     1       7.710   5.327  18.250  0.00  0.00    +0.000 A 
ATOM     29  C   UNL     1       7.032   5.515  19.440  0.00  0.00    +0.000 A 
ATOM     30  C   UNL     1       5.712   5.071  19.555  0.00  0.00    +0.000 A 
ATOM     31  C   UNL     1       5.000   4.429  18.505  0.00  0.00    +0.000 A 
ENDBRANCH  21  31
ENDBRANCH   1  21
TORSDOF 3
ENDMDL
MODEL 2
REMARK VINA RESULT:      -7.7      6.233      9.848
REMARK  Name = 
REMARK  4 active torsions:
REMARK  status: ('A' for Active; 'I' for Inactive)
REMARK    1  A    between atoms: C_1  and  C_2
REMARK    2  A    between atoms: C_7  and  C_8
REMARK    3  A    between atoms: C_8  and  C_9
REMARK    4  A    between atoms: C_15  and  C_17
REMARK                            x       y       z     vdW  Elec       q    Type
REMARK                         _______ _______ _______ _____ _____    ______ ____
ROOT
ATOM      1  C   UNL     1       0.606  12.300  21.060  0.00  0.00    +0.000 C 
ATOM      2  O   UNL     1       1.330  11.387  21.500  0.00  0.00    +0.000 OA
ATOM      3  N   UNL     1       1.223  13.505  20.652  0.00  0.00    +0.000 N 
ATOM      4  C   UNL     1       2.682  13.519  20.811  0.00  0.00    +0.000 C 
ATOM      5  C   UNL     1       3.339  14.889  20.602  0.00  0.00    +0.000 C 
ATOM      6  N   UNL     1       2.845  15.534  19.373  0.00  0.00    +0.000 N 
ATOM      7  C   UNL     1       3.594  15.845  18.235  0.00  0.00    +0.000 C 
ATOM      8  O   UNL     1       3.052  16.217  17.190  0.00  0.00    +0.000 OA
ATOM      9  C   UNL     1       1.387  15.637  19.326  0.00  0.00    +0.000 C 
ATOM     10  C   UNL     1       0.706  14.266  19.506  0.00  0.00    +0.000 C 
ENDROOT
BRANCH   7  11
ATOM     11  C   UNL     1       5.062  15.697  18.204  0.00  0.00    +0.000 A 
ATOM     12  C   UNL     1       5.832  16.779  18.665  0.00  0.00    +0.000 A 
ATOM     13  C   UNL     1       7.227  16.774  18.582  0.00  0.00    +0.000 A 
ATOM     14  C   UNL     1       7.800  15.598  18.100  0.00  0.00    +0.000 A 
ATOM     15  N   UNL     1       9.082  15.244  17.776  0.00  0.00    +0.000 N 
ATOM     16  C   UNL     1       9.123  13.879  17.755  0.00  0.00    +0.000 A 
ATOM     17  N   UNL     1       7.914  13.378  17.634  0.00  0.00    +0.000 NA
ATOM     18  C   UNL     1       7.072  14.447  17.827  0.00  0.00    +0.000 A 
ATOM     19  C   UNL     1       5.675  14.494  17.825  0.00  0.00    +0.000 A 
ATOM     20  H   UNL     1       9.853  15.870  17.588  0.00  0.00    +0.000 HD
ENDBRANCH   7  11
BRANCH   1  21
ATOM     21  C   UNL     1      -0.984  12.180  21.074  0.00  0.00    +0.000 C 
ATOM     22  C   UNL     1      -1.497  11.511  22.422  0.00  0.00    +0.000 C 
ATOM     23  C   UNL     1      -1.633  12.924  23.018  0.00  0.00    +0.000 C 
ATOM     24  C   UNL     1      -1.778  13.451  21.588  0.00  0.00    +0.000 C 
BRANCH  21  31
ATOM     25  C   UNL     1      -3.823  12.632  19.716  0.00  0.00    +0.000 C 
ATOM     26  C   UNL     1      -2.812  11.695  19.109  0.00  0.00    +0.000 A 
ATOM     27  C   UNL     1      -3.189  11.033  17.920  0.00  0.00    +0.000 A 
ATOM     28  C   UNL     1      -2.313  10.194  17.248  0.00  0.00    +0.000 A 
ATOM     29  C   UNL     1      -1.037  10.008  17.746  0.00  0.00    +0.000 A 
ATOM     30  C   UNL     1      -0.663  10.645  18.932  0.00  0.00    +0.000 A 
ATOM     31  C   UNL     1      -1.525  11.496  19.677  0.00  0.00    +0.000 A 
ENDBRANCH  21  31
ENDBRANCH   1  21
TORSDOF 3
ENDMDL
MODEL 3
REMARK VINA RESULT:      -7.6      5.845      9.691
REMARK  Name = 
REMARK  4 active torsions:
REMARK  status: ('A' for Active; 'I' for Inactive)
REMARK    1  A    between atoms: C_1  and  C_2
REMARK    2  A    between atoms: C_7  and  C_8
REMARK    3  A    between atoms: C_8  and  C_9
REMARK    4  A    between atoms: C_15  and  C_17
REMARK                            x       y       z     vdW  Elec       q    Type
REMARK                         _______ _______ _______ _____ _____    ______ ____
ROOT
ATOM      1  C   UNL     1       0.687  12.326  21.010  0.00  0.00    +0.000 C 
ATOM      2  O   UNL     1       1.429  11.485  21.551  0.00  0.00    +0.000 OA
ATOM      3  N   UNL     1       1.263  13.535  20.558  0.00  0.00    +0.000 N 
ATOM      4  C   UNL     1       2.706  13.643  20.801  0.00  0.00    +0.000 C 
ATOM      5  C   UNL     1       3.301  15.032  20.539  0.00  0.00    +0.000 C 
ATOM      6  N   UNL     1       2.850  15.568  19.243  0.00  0.00    +0.000 N 
ATOM      7  C   UNL     1       3.650  15.848  18.132  0.00  0.00    +0.000 C 
ATOM      8  O   UNL     1       3.155  16.121  17.035  0.00  0.00    +0.000 OA
ATOM      9  C   UNL     1       1.395  15.584  19.104  0.00  0.00    +0.000 C 
ATOM     10  C   UNL     1       0.778  14.191  19.336  0.00  0.00    +0.000 C 
ENDROOT
BRANCH   7  11
ATOM     11  C   UNL     1       5.124  15.783  18.197  0.00  0.00    +0.000 A 
ATOM     12  C   UNL     1       5.801  16.908  18.700  0.00  0.00    +0.000 A 
ATOM     13  C   UNL     1       7.196  16.981  18.707  0.00  0.00    +0.000 A 
ATOM     14  C   UNL     1       7.864  15.838  18.270  0.00  0.00    +0.000 A 
ATOM     15  N   UNL     1       9.182  15.556  18.031  0.00  0.00    +0.000 N 
ATOM     16  C   UNL     1       9.300  14.196  18.022  0.00  0.00    +0.000 A 
ATOM     17  N   UNL     1       8.131  13.627  17.825  0.00  0.00    +0.000 NA
ATOM     18  C   UNL     1       7.221  14.647  17.958  0.00  0.00    +0.000 A 
ATOM     19  C   UNL     1       5.826  14.616  17.865  0.00  0.00    +0.000 A 
ATOM     20  H   UNL     1       9.927  16.224  17.891  0.00  0.00    +0.000 HD
ENDBRANCH   7  11
BRANCH   1  21
ATOM     21  C   UNL     1      -0.892  12.116  20.939  0.00  0.00    +0.000 C 
ATOM     22  C   UNL     1      -1.430  11.367  22.234  0.00  0.00    +0.000 C 
ATOM     23  C   UNL     1      -1.677  12.746  22.873  0.00  0.00    +0.000 C 
ATOM     24  C   UNL     1      -1.783  13.319  21.458  0.00  0.00    +0.000 C 
BRANCH  21  31
ATOM     25  C   UNL     1       0.478   9.634  19.500  0.00  0.00    +0.000 C 
ATOM     26  C   UNL     1      -0.673  10.364  18.860  0.00  0.00    +0.000 A 
ATOM     27  C   UNL     1      -1.105   9.894  17.599  0.00  0.00    +0.000 A 
ATOM     28  C   UNL     1      -2.192  10.458  16.950  0.00  0.00    +0.000 A 
ATOM     29  C   UNL     1      -2.879  11.496  17.553  0.00  0.00    +0.000 A 
ATOM     30  C   UNL     1      -2.446  11.977  18.791  0.00  0.00    +0.000 A 
ATOM     31  C   UNL     1      -1.324  11.457  19.492  0.00  0.00    +0.000 A 
ENDBRANCH  21  31
ENDBRANCH   1  21
TORSDOF 3
ENDMDL
MODEL 4
REMARK VINA RESULT:      -7.5      6.111      9.835
REMARK  Name = 
REMARK  4 active torsions:
REMARK  status: ('A' for Active; 'I' for Inactive)
REMARK    1  A    between atoms: C_1  and  C_2
REMARK    2  A    between atoms: C_7  and  C_8
REMARK    3  A    between atoms: C_8  and  C_9
REMARK    4  A    between atoms: C_15  and  C_17
REMARK                            x       y       z     vdW  Elec       q    Type
REMARK                         _______ _______ _______ _____ _____    ______ ____
ROOT
ATOM      1  C   UNL     1       0.672  12.248  21.083  0.00  0.00    +0.000 C 
ATOM      2  O   UNL     1       1.457  11.390  21.531  0.00  0.00    +0.000 OA
ATOM      3  N   UNL     1       1.202  13.499  20.692  0.00  0.00    +0.000 N 
ATOM      4  C   UNL     1       2.652  13.625  20.876  0.00  0.00    +0.000 C 
ATOM      5  C   UNL     1       3.204  15.042  20.686  0.00  0.00    +0.000 C 
ATOM      6  N   UNL     1       2.683  15.656  19.452  0.00  0.00    +0.000 N 
ATOM      7  C   UNL     1       3.424  16.030  18.328  0.00  0.00    +0.000 C 
ATOM      8  O   UNL     1       2.873  16.367  17.276  0.00  0.00    +0.000 OA
ATOM      9  C   UNL     1       1.223  15.646  19.379  0.00  0.00    +0.000 C 
ATOM     10  C   UNL     1       0.646  14.225  19.541  0.00  0.00    +0.000 C 
ENDROOT
BRANCH   7  11
ATOM     11  C   UNL     1       4.900  15.996  18.322  0.00  0.00    +0.000 A 
ATOM     12  C   UNL     1       5.519  14.851  17.791  0.00  0.00    +0.000 A 
ATOM     13  C   UNL     1       6.906  14.682  17.832  0.00  0.00    +0.000 A 
ATOM     14  C   UNL     1       7.631  15.755  18.348  0.00  0.00    +0.000 A 
ATOM     15  N   UNL     1       8.954  15.934  18.648  0.00  0.00    +0.000 N 
ATOM     16  C   UNL     1       9.164  17.281  18.727  0.00  0.00    +0.000 A 
ATOM     17  N   UNL     1       8.029  17.920  18.907  0.00  0.00    +0.000 NA
ATOM     18  C   UNL     1       7.058  16.973  18.692  0.00  0.00    +0.000 A 
ATOM     19  C   UNL     1       5.666  17.096  18.735  0.00  0.00    +0.000 A 
ATOM     20  H   UNL     1       9.646  15.211  18.784  0.00  0.00    +0.000 HD
ENDBRANCH   7  11
BRANCH   1  21
ATOM     21  C   UNL     1      -0.903  12.005  21.069  0.00  0.00    +0.000 C 
ATOM     22  C   UNL     1      -1.368  11.175  22.343  0.00  0.00    +0.000 C 
ATOM     23  C   UNL     1      -1.614  12.511  23.067  0.00  0.00    +0.000 C 
ATOM     24  C   UNL     1      -1.795  13.158  21.692  0.00  0.00    +0.000 C 
BRANCH  21  31
ATOM     25  C   UNL     1       0.419   9.601  19.463  0.00  0.00    +0.000 C 
ATOM     26  C   UNL     1      -0.755  10.358  18.901  0.00  0.00    +0.000 A 
ATOM     27  C   UNL     1      -1.230   9.949  17.634  0.00  0.00    +0.000 A 
ATOM     28  C   UNL     1      -2.341  10.540  17.052  0.00  0.00    +0.000 A 
ATOM     29  C   UNL     1      -3.008  11.545  17.729  0.00  0.00    +0.000 A 
ATOM     30  C   UNL     1      -2.532  11.966  18.973  0.00  0.00    +0.000 A 
ATOM     31  C   UNL     1      -1.385  11.416  19.608  0.00  0.00    +0.000 A 
ENDBRANCH  21  31
ENDBRANCH   1  21
TORSDOF 3
ENDMDL
MODEL 5
REMARK VINA RESULT:      -7.5      2.357      4.099
REMARK  Name = 
REMARK  4 active torsions:
REMARK  status: ('A' for Active; 'I' for Inactive)
REMARK    1  A    between atoms: C_1  and  C_2
REMARK    2  A    between atoms: C_7  and  C_8
REMARK    3  A    between atoms: C_8  and  C_9
REMARK    4  A    between atoms: C_15  and  C_17
REMARK                            x       y       z     vdW  Elec       q    Type
REMARK                         _______ _______ _______ _____ _____    ______ ____
ROOT
ATOM      1  C   UNL     1       2.426   7.185  18.369  0.00  0.00    +0.000 C 
ATOM      2  O   UNL     1       2.053   7.465  17.214  0.00  0.00    +0.000 OA
ATOM      3  N   UNL     1       2.129   8.098  19.407  0.00  0.00    +0.000 N 
ATOM      4  C   UNL     1       1.401   9.294  18.970  0.00  0.00    +0.000 C 
ATOM      5  C   UNL     1       1.282  10.398  20.027  0.00  0.00    +0.000 C 
ATOM      6  N   UNL     1       0.845   9.849  21.322  0.00  0.00    +0.000 N 
ATOM      7  C   UNL     1      -0.351  10.130  21.987  0.00  0.00    +0.000 C 
ATOM      8  O   UNL     1      -0.705   9.481  22.976  0.00  0.00    +0.000 OA
ATOM      9  C   UNL     1       1.692   8.756  21.797  0.00  0.00    +0.000 C 
ATOM     10  C   UNL     1       1.804   7.621  20.759  0.00  0.00    +0.000 C 
ENDROOT
BRANCH   7  11
ATOM     11  C   UNL     1      -1.278  11.177  21.515  0.00  0.00    +0.000 A 
ATOM     12  C   UNL     1      -1.548  11.231  20.136  0.00  0.00    +0.000 A 
ATOM     13  C   UNL     1      -2.331  12.246  19.581  0.00  0.00    +0.000 A 
ATOM     14  C   UNL     1      -2.894  13.140  20.490  0.00  0.00    +0.000 A 
ATOM     15  N   UNL     1      -3.611  14.298  20.345  0.00  0.00    +0.000 N 
ATOM     16  C   UNL     1      -4.245  14.522  21.533  0.00  0.00    +0.000 A 
ATOM     17  N   UNL     1      -3.670  13.848  22.504  0.00  0.00    +0.000 NA
ATOM     18  C   UNL     1      -2.805  12.991  21.868  0.00  0.00    +0.000 A 
ATOM     19  C   UNL     1      -1.945  12.029  22.407  0.00  0.00    +0.000 A 
ATOM     20  H   UNL     1      -3.663  14.876  19.519  0.00  0.00    +0.000 HD
ENDBRANCH   7  11
BRANCH   1  21
ATOM     21  C   UNL     1       3.328   5.904  18.663  0.00  0.00    +0.000 C 
ATOM     22  C   UNL     1       4.085   5.422  17.351  0.00  0.00    +0.000 C 
ATOM     23  C   UNL     1       5.272   6.310  17.765  0.00  0.00    +0.000 C 
ATOM     24  C   UNL     1       4.788   6.186  19.211  0.00  0.00    +0.000 C 
BRANCH  21  31
ATOM     25  C   UNL     1       1.115   3.997  17.410  0.00  0.00    +0.000 C 
ATOM     26  C   UNL     1       1.453   3.935  18.876  0.00  0.00    +0.000 A 
ATOM     27  C   UNL     1       0.740   2.997  19.656  0.00  0.00    +0.000 A 
ATOM     28  C   UNL     1       1.013   2.819  21.004  0.00  0.00    +0.000 A 
ATOM     29  C   UNL     1       2.014   3.567  21.597  0.00  0.00    +0.000 A 
ATOM     30  C   UNL     1       2.710   4.509  20.835  0.00  0.00    +0.000 A 
ATOM     31  C   UNL     1       2.457   4.753  19.458  0.00  0.00    +0.000 A 
ENDBRANCH  21  31
ENDBRANCH   1  21
TORSDOF 3
ENDMDL
MODEL 6
REMARK VINA RESULT:      -7.4      6.420     10.095
REMARK  Name = 
REMARK  4 active torsions:
REMARK  status: ('A' for Active; 'I' for Inactive)
REMARK    1  A    between atoms: C_1  and  C_2
REMARK    2  A    between atoms: C_7  and  C_8
REMARK    3  A    between atoms: C_8  and  C_9
REMARK    4  A    between atoms: C_15  and  C_17
REMARK                            x       y       z     vdW  Elec       q    Type
REMARK                         _______ _______ _______ _____ _____    ______ ____
ROOT
ATOM      1  C   UNL     1       0.569  12.345  21.086  0.00  0.00    +0.000 C 
ATOM      2  O   UNL     1       1.322  11.408  21.413  0.00  0.00    +0.000 OA
ATOM      3  N   UNL     1       1.153  13.591  20.765  0.00  0.00    +0.000 N 
ATOM      4  C   UNL     1       2.617  13.617  20.869  0.00  0.00    +0.000 C 
ATOM      5  C   UNL     1       3.246  15.011  20.761  0.00  0.00    +0.000 C 
ATOM      6  N   UNL     1       2.695  15.756  19.616  0.00  0.00    +0.000 N 
ATOM      7  C   UNL     1       3.393  16.180  18.482  0.00  0.00    +0.000 C 
ATOM      8  O   UNL     1       2.805  16.636  17.497  0.00  0.00    +0.000 OA
ATOM      9  C   UNL     1       1.235  15.837  19.633  0.00  0.00    +0.000 C 
ATOM     10  C   UNL     1       0.580  14.444  19.714  0.00  0.00    +0.000 C 
ENDROOT
BRANCH   7  11
ATOM     11  C   UNL     1       4.861  16.061  18.382  0.00  0.00    +0.000 A 
ATOM     12  C   UNL     1       5.378  14.887  17.805  0.00  0.00    +0.000 A 
ATOM     13  C   UNL     1       6.752  14.638  17.757  0.00  0.00    +0.000 A 
ATOM     14  C   UNL     1       7.569  15.662  18.232  0.00  0.00    +0.000 A 
ATOM     15  N   UNL     1       8.918  15.762  18.449  0.00  0.00    +0.000 N 
ATOM     16  C   UNL     1       9.209  17.094  18.523  0.00  0.00    +0.000 A 
ATOM     17  N   UNL     1       8.127  17.795  18.779  0.00  0.00    +0.000 NA
ATOM     18  C   UNL     1       7.091  16.908  18.621  0.00  0.00    +0.000 A 
ATOM     19  C   UNL     1       5.714  17.110  18.752  0.00  0.00    +0.000 A 
ATOM     20  H   UNL     1       9.573  14.999  18.536  0.00  0.00    +0.000 HD
ENDBRANCH   7  11
BRANCH   1  21
ATOM     21  C   UNL     1      -1.017  12.196  21.150  0.00  0.00    +0.000 C 
ATOM     22  C   UNL     1      -1.471  11.459  22.483  0.00  0.00    +0.000 C 
ATOM     23  C   UNL     1      -1.608  12.841  23.147  0.00  0.00    +0.000 C 
ATOM     24  C   UNL     1      -1.812  13.429  21.749  0.00  0.00    +0.000 C 
BRANCH  21  31
ATOM     25  C   UNL     1      -3.919  12.635  19.928  0.00  0.00    +0.000 C 
ATOM     26  C   UNL     1      -2.910  11.757  19.237  0.00  0.00    +0.000 A 
ATOM     27  C   UNL     1      -3.319  11.143  18.032  0.00  0.00    +0.000 A 
ATOM     28  C   UNL     1      -2.449  10.362  17.286  0.00  0.00    +0.000 A 
ATOM     29  C   UNL     1      -1.149  10.187  17.723  0.00  0.00    +0.000 A 
ATOM     30  C   UNL     1      -0.744  10.777  18.923  0.00  0.00    +0.000 A 
ATOM     31  C   UNL     1      -1.597  11.566  19.743  0.00  0.00    +0.000 A 
ENDBRANCH  21  31
ENDBRANCH   1  21
TORSDOF 3
ENDMDL
MODEL 7
REMARK VINA RESULT:      -7.4      0.980      2.822
REMARK  Name = 
REMARK  4 active torsions:
REMARK  status: ('A' for Active; 'I' for Inactive)
REMARK    1  A    between atoms: C_1  and  C_2
REMARK    2  A    between atoms: C_7  and  C_8
REMARK    3  A    between atoms: C_8  and  C_9
REMARK    4  A    between atoms: C_15  and  C_17
REMARK                            x       y       z     vdW  Elec       q    Type
REMARK                         _______ _______ _______ _____ _____    ______ ____
ROOT
ATOM      1  C   UNL     1       3.393   6.067  17.935  0.00  0.00    +0.000 C 
ATOM      2  O   UNL     1       3.252   6.060  16.698  0.00  0.00    +0.000 OA
ATOM      3  N   UNL     1       2.818   7.130  18.668  0.00  0.00    +0.000 N 
ATOM      4  C   UNL     1       2.112   8.119  17.844  0.00  0.00    +0.000 C 
ATOM      5  C   UNL     1       1.692   9.393  18.585  0.00  0.00    +0.000 C 
ATOM      6  N   UNL     1       1.035   9.073  19.864  0.00  0.00    +0.000 N 
ATOM      7  C   UNL     1      -0.293   9.340  20.209  0.00  0.00    +0.000 C 
ATOM      8  O   UNL     1      -0.798   8.870  21.233  0.00  0.00    +0.000 OA
ATOM      9  C   UNL     1       1.841   8.206  20.722  0.00  0.00    +0.000 C 
ATOM     10  C   UNL     1       2.252   6.905  20.005  0.00  0.00    +0.000 C 
ENDROOT
BRANCH   7  11
ATOM     11  C   UNL     1      -1.174  10.153  19.348  0.00  0.00    +0.000 A 
ATOM     12  C   UNL     1      -1.340  11.508  19.688  0.00  0.00    +0.000 A 
ATOM     13  C   UNL     1      -2.230  12.333  18.995  0.00  0.00    +0.000 A 
ATOM     14  C   UNL     1      -2.867  11.750  17.900  0.00  0.00    +0.000 A 
ATOM     15  N   UNL     1      -3.857  12.176  17.056  0.00  0.00    +0.000 N 
ATOM     16  C   UNL     1      -3.795  11.388  15.942  0.00  0.00    +0.000 A 
ATOM     17  N   UNL     1      -3.140  10.276  16.194  0.00  0.00    +0.000 NA
ATOM     18  C   UNL     1      -2.569  10.479  17.427  0.00  0.00    +0.000 A 
ATOM     19  C   UNL     1      -1.749   9.633  18.181  0.00  0.00    +0.000 A 
ATOM     20  H   UNL     1      -4.510  12.928  17.222  0.00  0.00    +0.000 HD
ENDBRANCH   7  11
BRANCH   1  21
ATOM     21  C   UNL     1       4.305   4.987  18.674  0.00  0.00    +0.000 C 
ATOM     22  C   UNL     1       5.388   4.377  17.683  0.00  0.00    +0.000 C 
ATOM     23  C   UNL     1       6.365   5.472  18.150  0.00  0.00    +0.000 C 
ATOM     24  C   UNL     1       5.565   5.550  19.453  0.00  0.00    +0.000 C 
BRANCH  21  31
ATOM     25  C   UNL     1       2.575   2.649  17.391  0.00  0.00    +0.000 C 
ATOM     26  C   UNL     1       2.585   2.881  18.879  0.00  0.00    +0.000 A 
ATOM     27  C   UNL     1       1.792   2.015  19.665  0.00  0.00    +0.000 A 
ATOM     28  C   UNL     1       1.775   2.105  21.048  0.00  0.00    +0.000 A 
ATOM     29  C   UNL     1       2.560   3.054  21.676  0.00  0.00    +0.000 A 
ATOM     30  C   UNL     1       3.333   3.925  20.904  0.00  0.00    +0.000 A 
ATOM     31  C   UNL     1       3.372   3.898  19.483  0.00  0.00    +0.000 A 
ENDBRANCH  21  31
ENDBRANCH   1  21
TORSDOF 3
ENDMDL
MODEL 8
REMARK VINA RESULT:      -7.4      2.741      3.564
REMARK  Name = 
REMARK  4 active torsions:
REMARK  status: ('A' for Active; 'I' for Inactive)
REMARK    1  A    between atoms: C_1  and  C_2
REMARK    2  A    between atoms: C_7  and  C_8
REMARK    3  A    between atoms: C_8  and  C_9
REMARK    4  A    between atoms: C_15  and  C_17
REMARK                            x       y       z     vdW  Elec       q    Type
REMARK                         _______ _______ _______ _____ _____    ______ ____
ROOT
ATOM      1  C   UNL     1       2.725   6.237  19.683  0.00  0.00    +0.000 C 
ATOM      2  O   UNL     1       2.576   6.008  20.898  0.00  0.00    +0.000 OA
ATOM      3  N   UNL     1       2.141   7.407  19.145  0.00  0.00    +0.000 N 
ATOM      4  C   UNL     1       1.409   8.220  20.123  0.00  0.00    +0.000 C 
ATOM      5  C   UNL     1       0.574   9.355  19.520  0.00  0.00    +0.000 C 
ATOM      6  N   UNL     1       1.354  10.126  18.537  0.00  0.00    +0.000 N 
ATOM      7  C   UNL     1       1.726  11.469  18.635  0.00  0.00    +0.000 C 
ATOM      8  O   UNL     1       2.533  11.972  17.848  0.00  0.00    +0.000 OA
ATOM      9  C   UNL     1       1.942   9.291  17.490  0.00  0.00    +0.000 C 
ATOM     10  C   UNL     1       2.809   8.158  18.074  0.00  0.00    +0.000 C 
ENDROOT
BRANCH   7  11
ATOM     11  C   UNL     1       1.217  12.342  19.711  0.00  0.00    +0.000 A 
ATOM     12  C   UNL     1       2.127  13.233  20.308  0.00  0.00    +0.000 A 
ATOM     13  C   UNL     1       1.766  14.027  21.399  0.00  0.00    +0.000 A 
ATOM     14  C   UNL     1       0.432  13.943  21.793  0.00  0.00    +0.000 A 
ATOM     15  N   UNL     1      -0.269  14.461  22.849  0.00  0.00    +0.000 N 
ATOM     16  C   UNL     1      -1.591  14.402  22.515  0.00  0.00    +0.000 A 
ATOM     17  N   UNL     1      -1.789  13.537  21.545  0.00  0.00    +0.000 NA
ATOM     18  C   UNL     1      -0.530  13.223  21.095  0.00  0.00    +0.000 A 
ATOM     19  C   UNL     1      -0.139  12.362  20.065  0.00  0.00    +0.000 A 
ATOM     20  H   UNL     1       0.116  14.820  23.711  0.00  0.00    +0.000 HD
ENDBRANCH   7  11
BRANCH   1  21
ATOM     21  C   UNL     1       3.438   5.184  18.721  0.00  0.00    +0.000 C 
ATOM     22  C   UNL     1       3.148   3.692  19.189  0.00  0.00    +0.000 C 
ATOM     23  C   UNL     1       1.933   3.680  18.243  0.00  0.00    +0.000 C 
ATOM     24  C   UNL     1       2.634   4.765  17.421  0.00  0.00    +0.000 C 
BRANCH  21  31
ATOM     25  C   UNL     1       4.721   6.548  16.152  0.00  0.00    +0.000 C 
ATOM     26  C   UNL     1       5.572   6.161  17.332  0.00  0.00    +0.000 A 
ATOM     27  C   UNL     1       6.956   6.430  17.236  0.00  0.00    +0.000 A 
ATOM     28  C   UNL     1       7.819   6.166  18.288  0.00  0.00    +0.000 A 
ATOM     29  C   UNL     1       7.316   5.638  19.463  0.00  0.00    +0.000 A 
ATOM     30  C   UNL     1       5.952   5.352  19.557  0.00  0.00    +0.000 A 
ATOM     31  C   UNL     1       5.023   5.578  18.505  0.00  0.00    +0.000 A 
ENDBRANCH  21  31
ENDBRANCH   1  21
TORSDOF 3
ENDMDL
MODEL 9
REMARK VINA RESULT:      -7.3      3.636     10.444
REMARK  Name = 
REMARK  4 active torsions:
REMARK  status: ('A' for Active; 'I' for Inactive)
REMARK    1  A    between atoms: C_1  and  C_2
REMARK    2  A    between atoms: C_7  and  C_8
REMARK    3  A    between atoms: C_8  and  C_9
REMARK    4  A    between atoms: C_15  and  C_17
REMARK                            x       y       z     vdW  Elec       q    Type
REMARK                         _______ _______ _______ _____ _____    ______ ____
ROOT
ATOM      1  C   UNL     1      -2.622  12.379  22.675  0.00  0.00    +0.000 C 
ATOM      2  O   UNL     1      -2.624  11.648  23.683  0.00  0.00    +0.000 OA
ATOM      3  N   UNL     1      -1.598  12.195  21.717  0.00  0.00    +0.000 N 
ATOM      4  C   UNL     1      -0.641  11.135  22.053  0.00  0.00    +0.000 C 
ATOM      5  C   UNL     1       0.602  11.082  21.157  0.00  0.00    +0.000 C 
ATOM      6  N   UNL     1       0.234  11.152  19.732  0.00  0.00    +0.000 N 
ATOM      7  C   UNL     1       0.426  10.157  18.771  0.00  0.00    +0.000 C 
ATOM      8  O   UNL     1      -0.081  10.240  17.648  0.00  0.00    +0.000 OA
ATOM      9  C   UNL     1      -0.597  12.311  19.411  0.00  0.00    +0.000 C 
ATOM     10  C   UNL     1      -1.867  12.370  20.283  0.00  0.00    +0.000 C 
ENDROOT
BRANCH   7  11
ATOM     11  C   UNL     1       1.200   8.933  19.059  0.00  0.00    +0.000 A 
ATOM     12  C   UNL     1       0.947   8.279  20.278  0.00  0.00    +0.000 A 
ATOM     13  C   UNL     1       1.698   7.173  20.686  0.00  0.00    +0.000 A 
ATOM     14  C   UNL     1       2.643   6.713  19.770  0.00  0.00    +0.000 A 
ATOM     15  N   UNL     1       3.619   5.755  19.832  0.00  0.00    +0.000 N 
ATOM     16  C   UNL     1       3.957   5.451  18.544  0.00  0.00    +0.000 A 
ATOM     17  N   UNL     1       3.581   6.407  17.725  0.00  0.00    +0.000 NA
ATOM     18  C   UNL     1       2.773   7.218  18.483  0.00  0.00    +0.000 A 
ATOM     19  C   UNL     1       2.084   8.380  18.122  0.00  0.00    +0.000 A 
ATOM     20  H   UNL     1       4.015   5.349  20.668  0.00  0.00    +0.000 HD
ENDBRANCH   7  11
BRANCH   1  21
ATOM     21  C   UNL     1      -3.659  13.580  22.517  0.00  0.00    +0.000 C 
ATOM     22  C   UNL     1      -3.362  14.736  23.567  0.00  0.00    +0.000 C 
ATOM     23  C   UNL     1      -2.473  15.409  22.506  0.00  0.00    +0.000 C 
ATOM     24  C   UNL     1      -3.295  14.683  21.438  0.00  0.00    +0.000 C 
BRANCH  21  31
ATOM     25  C   UNL     1      -5.188  12.371  20.005  0.00  0.00    +0.000 C 
ATOM     26  C   UNL     1      -5.871  12.502  21.341  0.00  0.00    +0.000 A 
ATOM     27  C   UNL     1      -7.213  12.068  21.416  0.00  0.00    +0.000 A 
ATOM     28  C   UNL     1      -7.916  12.091  22.611  0.00  0.00    +0.000 A 
ATOM     29  C   UNL     1      -7.288  12.539  23.759  0.00  0.00    +0.000 A 
ATOM     30  C   UNL     1      -5.967  12.987  23.687  0.00  0.00    +0.000 A 
ATOM     31  C   UNL     1      -5.204  13.010  22.487  0.00  0.00    +0.000 A 
ENDBRANCH  21  31
ENDBRANCH   1  21
TORSDOF 3
ENDMDL
