MODEL 1
REMARK VINA RESULT:      -8.4      0.000      0.000
REMARK  Name = 
REMARK  4 active torsions:
REMARK  status: ('A' for Active; 'I' for Inactive)
REMARK    1  A    between atoms: C_1  and  C_2
REMARK    2  A    between atoms: C_2  and  C_3
REMARK    3  A    between atoms: C_2  and  N_16
REMARK    4  A    between atoms: N_5  and  C_6
REMARK                            x       y       z     vdW  Elec       q    Type
REMARK                         _______ _______ _______ _____ _____    ______ ____
ROOT
ATOM      1  C   UNL     1       1.895   8.940  18.326  0.00  0.00    +0.000 C 
ATOM      2  O   UNL     1       2.241   9.285  17.198  0.00  0.00    +0.000 OA
ATOM      3  N   UNL     1       2.130   7.690  18.885  0.00  0.00    +0.000 N 
ATOM      4  H   UNL     1       1.649   7.490  19.756  0.00  0.00    +0.000 HD
ENDROOT
BRANCH   3   5
ATOM      5  C   UNL     1       2.951   6.682  18.330  0.00  0.00    +0.000 A 
ATOM      6  C   UNL     1       2.456   5.377  18.074  0.00  0.00    +0.000 A 
ATOM      7  C   UNL     1       3.264   4.365  17.546  0.00  0.00    +0.000 A 
ATOM      8  C   UNL     1       4.564   4.698  17.285  0.00  0.00    +0.000 A 
ATOM      9  N   UNL     1       5.592   3.907  16.791  0.00  0.00    +0.000 N 
ATOM     10  C   UNL     1       6.755   4.682  16.708  0.00  0.00    +0.000 A 
ATOM     11  O   UNL     1       7.850   4.310  16.332  0.00  0.00    +0.000 OA
ATOM     12  N   UNL     1       6.408   5.973  17.148  0.00  0.00    +0.000 N 
ATOM     13  C   UNL     1       5.064   5.980  17.505  0.00  0.00    +0.000 A 
ATOM     14  C   UNL     1       4.281   7.000  18.010  0.00  0.00    +0.000 A 
ATOM     15  H   UNL     1       5.546   2.931  16.547  0.00  0.00    +0.000 HD
ATOM     16  H   UNL     1       7.067   6.732  17.204  0.00  0.00    +0.000 HD
ENDBRANCH   3   5
BRANCH   1  18
ATOM     17  C   UNL     1       0.530   9.114  20.437  0.00  0.00    +0.000 C 
ATOM     18  C   UNL     1       1.107   9.901  19.250  0.00  0.00    +0.000 C 
BRANCH  18  19
ATOM     19  N   UNL     1       0.118  10.697  18.475  0.00  0.00    +0.000 NA
ATOM     20  C   UNL     1      -0.461  11.806  19.257  0.00  0.00    +0.000 C 
ATOM     21  C   UNL     1      -1.933  11.649  19.670  0.00  0.00    +0.000 C 
ATOM     22  C   UNL     1      -2.756  11.379  18.443  0.00  0.00    +0.000 A 
ATOM     23  C   UNL     1      -4.036  11.913  18.267  0.00  0.00    +0.000 A 
ATOM     24  C   UNL     1      -4.750  11.631  17.104  0.00  0.00    +0.000 A 
ATOM     25  C   UNL     1      -4.192  10.814  16.120  0.00  0.00    +0.000 A 
ATOM     26  C   UNL     1      -2.923  10.262  16.303  0.00  0.00    +0.000 A 
ATOM     27  C   UNL     1      -2.196  10.542  17.466  0.00  0.00    +0.000 A 
ATOM     28  C   UNL     1      -0.873   9.867  17.756  0.00  0.00    +0.000 C 
ENDBRANCH  18  19
ENDBRANCH   1  18
TORSDOF 3
ENDMDL
MODEL 2
REMARK VINA RESULT:      -8.1      1.562      2.054
REMARK  Name = 
REMARK  4 active torsions:
REMARK  status: ('A' for Active; 'I' for Inactive)
REMARK    1  A    between atoms: C_1  and  C_2
REMARK    2  A    between atoms: C_2  and  C_3
REMARK    3  A    between atoms: C_2  and  N_16
REMARK    4  A    between atoms: N_5  and  C_6
REMARK                            x       y       z     vdW  Elec       q    Type
REMARK                         _______ _______ _______ _____ _____    ______ ____
ROOT
ATOM      1  C   UNL     1       1.829   8.998  18.512  0.00  0.00    +0.000 C 
ATOM      2  O   UNL     1       2.219   9.168  17.359  0.00  0.00    +0.000 OA
ATOM      3  N   UNL     1       1.916   7.802  19.215  0.00  0.00    +0.000 N 
ATOM      4  H   UNL     1       1.409   7.761  20.094  0.00  0.00    +0.000 HD
ENDROOT
BRANCH   3   5
ATOM      5  C   UNL     1       2.620   6.651  18.796  0.00  0.00    +0.000 A 
ATOM      6  C   UNL     1       3.702   6.733  17.882  0.00  0.00    +0.000 A 
ATOM      7  C   UNL     1       4.392   5.599  17.442  0.00  0.00    +0.000 A 
ATOM      8  C   UNL     1       3.970   4.398  17.941  0.00  0.00    +0.000 A 
ATOM      9  N   UNL     1       4.437   3.120  17.669  0.00  0.00    +0.000 N 
ATOM     10  C   UNL     1       3.681   2.198  18.404  0.00  0.00    +0.000 A 
ATOM     11  O   UNL     1       3.804   0.989  18.399  0.00  0.00    +0.000 OA
ATOM     12  N   UNL     1       2.749   2.948  19.147  0.00  0.00    +0.000 N 
ATOM     13  C   UNL     1       2.925   4.297  18.858  0.00  0.00    +0.000 A 
ATOM     14  C   UNL     1       2.241   5.404  19.320  0.00  0.00    +0.000 A 
ATOM     15  H   UNL     1       5.178   2.864  17.037  0.00  0.00    +0.000 HD
ATOM     16  H   UNL     1       2.065   2.530  19.755  0.00  0.00    +0.000 HD
ENDBRANCH   3   5
BRANCH   1  18
ATOM     17  C   UNL     1       0.612   9.596  20.636  0.00  0.00    +0.000 C 
ATOM     18  C   UNL     1       1.149  10.142  19.304  0.00  0.00    +0.000 C 
BRANCH  18  19
ATOM     19  N   UNL     1       0.152  10.855  18.462  0.00  0.00    +0.000 NA
ATOM     20  C   UNL     1      -0.513  11.961  19.179  0.00  0.00    +0.000 C 
ATOM     21  C   UNL     1      -1.990  11.742  19.542  0.00  0.00    +0.000 C 
ATOM     22  C   UNL     1      -2.750  11.384  18.298  0.00  0.00    +0.000 A 
ATOM     23  C   UNL     1      -4.047  11.843  18.054  0.00  0.00    +0.000 A 
ATOM     24  C   UNL     1      -4.700  11.481  16.876  0.00  0.00    +0.000 A 
ATOM     25  C   UNL     1      -4.063  10.658  15.947  0.00  0.00    +0.000 A 
ATOM     26  C   UNL     1      -2.776  10.181  16.198  0.00  0.00    +0.000 A 
ATOM     27  C   UNL     1      -2.110  10.542  17.374  0.00  0.00    +0.000 A 
ATOM     28  C   UNL     1      -0.767   9.949  17.739  0.00  0.00    +0.000 C 
ENDBRANCH  18  19
ENDBRANCH   1  18
TORSDOF 3
ENDMDL
MODEL 3
REMARK VINA RESULT:      -8.0      7.619      9.605
REMARK  Name = 
REMARK  4 active torsions:
REMARK  status: ('A' for Active; 'I' for Inactive)
REMARK    1  A    between atoms: C_1  and  C_2
REMARK    2  A    between atoms: C_2  and  C_3
REMARK    3  A    between atoms: C_2  and  N_16
REMARK    4  A    between atoms: N_5  and  C_6
REMARK                            x       y       z     vdW  Elec       q    Type
REMARK                         _______ _______ _______ _____ _____    ______ ____
ROOT
ATOM      1  C   UNL     1       8.670   9.608  18.518  0.00  0.00    +0.000 C 
ATOM      2  O   UNL     1       7.812  10.002  17.730  0.00  0.00    +0.000 OA
ATOM      3  N   UNL     1       8.803   8.298  18.962  0.00  0.00    +0.000 N 
ATOM      4  H   UNL     1       9.448   8.149  19.731  0.00  0.00    +0.000 HD
ENDROOT
BRANCH   3   5
ATOM      5  C   UNL     1       8.101   7.182  18.453  0.00  0.00    +0.000 A 
ATOM      6  C   UNL     1       7.901   6.012  19.230  0.00  0.00    +0.000 A 
ATOM      7  C   UNL     1       7.228   4.893  18.730  0.00  0.00    +0.000 A 
ATOM      8  C   UNL     1       6.768   4.982  17.446  0.00  0.00    +0.000 A 
ATOM      9  N   UNL     1       6.099   4.035  16.683  0.00  0.00    +0.000 N 
ATOM     10  C   UNL     1       5.847   4.575  15.415  0.00  0.00    +0.000 A 
ATOM     11  O   UNL     1       5.292   4.019  14.487  0.00  0.00    +0.000 OA
ATOM     12  N   UNL     1       6.365   5.884  15.427  0.00  0.00    +0.000 N 
ATOM     13  C   UNL     1       6.933   6.131  16.672  0.00  0.00    +0.000 A 
ATOM     14  C   UNL     1       7.579   7.254  17.151  0.00  0.00    +0.000 A 
ATOM     15  H   UNL     1       5.845   3.101  16.958  0.00  0.00    +0.000 HD
ATOM     16  H   UNL     1       6.330   6.497  14.631  0.00  0.00    +0.000 HD
ENDBRANCH   3   5
BRANCH   1  18
ATOM     17  C   UNL     1       9.253  10.980  20.548  0.00  0.00    +0.000 C 
ATOM     18  C   UNL     1       9.701  10.586  19.132  0.00  0.00    +0.000 C 
BRANCH  18  19
ATOM     19  N   UNL     1       9.973  11.723  18.213  0.00  0.00    +0.000 NA
ATOM     20  C   UNL     1      11.390  11.803  17.808  0.00  0.00    +0.000 C 
ATOM     21  C   UNL     1      12.197  12.972  18.393  0.00  0.00    +0.000 C 
ATOM     22  C   UNL     1      11.485  14.258  18.086  0.00  0.00    +0.000 A 
ATOM     23  C   UNL     1      12.167  15.431  17.752  0.00  0.00    +0.000 A 
ATOM     24  C   UNL     1      11.450  16.593  17.471  0.00  0.00    +0.000 A 
ATOM     25  C   UNL     1      10.057  16.587  17.529  0.00  0.00    +0.000 A 
ATOM     26  C   UNL     1       9.374  15.423  17.884  0.00  0.00    +0.000 A 
ATOM     27  C   UNL     1      10.084  14.249  18.163  0.00  0.00    +0.000 A 
ATOM     28  C   UNL     1       9.389  13.004  18.669  0.00  0.00    +0.000 C 
ENDBRANCH  18  19
ENDBRANCH   1  18
TORSDOF 3
ENDMDL
MODEL 4
REMARK VINA RESULT:      -7.9      3.459      8.628
REMARK  Name = 
REMARK  4 active torsions:
REMARK  status: ('A' for Active; 'I' for Inactive)
REMARK    1  A    between atoms: C_1  and  C_2
REMARK    2  A    between atoms: C_2  and  C_3
REMARK    3  A    between atoms: C_2  and  N_16
REMARK    4  A    between atoms: N_5  and  C_6
REMARK                            x       y       z     vdW  Elec       q    Type
REMARK                         _______ _______ _______ _____ _____    ______ ____
ROOT
ATOM      1  C   UNL     1       2.070   4.719  18.837  0.00  0.00    +0.000 C 
ATOM      2  O   UNL     1       1.102   4.762  18.080  0.00  0.00    +0.000 OA
ATOM      3  N   UNL     1       2.659   5.822  19.443  0.00  0.00    +0.000 N 
ATOM      4  H   UNL     1       3.545   5.657  19.909  0.00  0.00    +0.000 HD
ENDROOT
BRANCH   3   5
ATOM      5  C   UNL     1       2.143   7.137  19.436  0.00  0.00    +0.000 A 
ATOM      6  C   UNL     1       2.173   7.942  18.268  0.00  0.00    +0.000 A 
ATOM      7  C   UNL     1       1.686   9.252  18.254  0.00  0.00    +0.000 A 
ATOM      8  C   UNL     1       1.173   9.724  19.430  0.00  0.00    +0.000 A 
ATOM      9  N   UNL     1       0.651  10.976  19.722  0.00  0.00    +0.000 N 
ATOM     10  C   UNL     1       0.265  10.999  21.069  0.00  0.00    +0.000 A 
ATOM     11  O   UNL     1      -0.218  11.940  21.669  0.00  0.00    +0.000 OA
ATOM     12  N   UNL     1       0.550   9.723  21.589  0.00  0.00    +0.000 N 
ATOM     13  C   UNL     1       1.111   8.943  20.583  0.00  0.00    +0.000 A 
ATOM     14  C   UNL     1       1.570   7.640  20.616  0.00  0.00    +0.000 A 
ATOM     15  H   UNL     1       0.571  11.763  19.100  0.00  0.00    +0.000 HD
ATOM     16  H   UNL     1       0.383   9.468  22.548  0.00  0.00    +0.000 HD
ENDBRANCH   3   5
BRANCH   1  18
ATOM     17  C   UNL     1       2.944   3.255  20.693  0.00  0.00    +0.000 C 
ATOM     18  C   UNL     1       2.764   3.375  19.171  0.00  0.00    +0.000 C 
BRANCH  18  19
ATOM     19  N   UNL     1       4.005   3.201  18.369  0.00  0.00    +0.000 NA
ATOM     20  C   UNL     1       5.207   3.702  19.064  0.00  0.00    +0.000 C 
ATOM     21  C   UNL     1       5.834   4.985  18.495  0.00  0.00    +0.000 C 
ATOM     22  C   UNL     1       6.111   4.784  17.034  0.00  0.00    +0.000 A 
ATOM     23  C   UNL     1       7.252   5.297  16.410  0.00  0.00    +0.000 A 
ATOM     24  C   UNL     1       7.458   5.072  15.050  0.00  0.00    +0.000 A 
ATOM     25  C   UNL     1       6.525   4.345  14.311  0.00  0.00    +0.000 A 
ATOM     26  C   UNL     1       5.374   3.851  14.926  0.00  0.00    +0.000 A 
ATOM     27  C   UNL     1       5.160   4.066  16.292  0.00  0.00    +0.000 A 
ATOM     28  C   UNL     1       3.870   3.654  16.967  0.00  0.00    +0.000 C 
ENDBRANCH  18  19
ENDBRANCH   1  18
TORSDOF 3
ENDMDL
MODEL 5
REMARK VINA RESULT:      -7.8      3.251      8.440
REMARK  Name = 
REMARK  4 active torsions:
REMARK  status: ('A' for Active; 'I' for Inactive)
REMARK    1  A    between atoms: C_1  and  C_2
REMARK    2  A    between atoms: C_2  and  C_3
REMARK    3  A    between atoms: C_2  and  N_16
REMARK    4  A    between atoms: N_5  and  C_6
REMARK                            x       y       z     vdW  Elec       q    Type
REMARK                         _______ _______ _______ _____ _____    ______ ____
ROOT
ATOM      1  C   UNL     1       2.008   4.743  18.957  0.00  0.00    +0.000 C 
ATOM      2  O   UNL     1       1.210   4.937  18.042  0.00  0.00    +0.000 OA
ATOM      3  N   UNL     1       2.455   5.714  19.844  0.00  0.00    +0.000 N 
ATOM      4  H   UNL     1       3.233   5.451  20.441  0.00  0.00    +0.000 HD
ENDROOT
BRANCH   3   5
ATOM      5  C   UNL     1       1.940   7.025  19.957  0.00  0.00    +0.000 A 
ATOM      6  C   UNL     1       1.224   7.445  21.108  0.00  0.00    +0.000 A 
ATOM      7  C   UNL     1       0.689   8.732  21.222  0.00  0.00    +0.000 A 
ATOM      8  C   UNL     1       0.894   9.573  20.163  0.00  0.00    +0.000 A 
ATOM      9  N   UNL     1       0.464  10.880  19.982  0.00  0.00    +0.000 N 
ATOM     10  C   UNL     1       0.900  11.328  18.729  0.00  0.00    +0.000 A 
ATOM     11  O   UNL     1       0.692  12.419  18.235  0.00  0.00    +0.000 OA
ATOM     12  N   UNL     1       1.623  10.265  18.154  0.00  0.00    +0.000 N 
ATOM     13  C   UNL     1       1.615   9.188  19.034  0.00  0.00    +0.000 A 
ATOM     14  C   UNL     1       2.166   7.928  18.906  0.00  0.00    +0.000 A 
ATOM     15  H   UNL     1      -0.090  11.432  20.616  0.00  0.00    +0.000 HD
ATOM     16  H   UNL     1       2.039  10.313  17.239  0.00  0.00    +0.000 HD
ENDBRANCH   3   5
BRANCH   1  18
ATOM     17  C   UNL     1       2.759   3.084  20.698  0.00  0.00    +0.000 C 
ATOM     18  C   UNL     1       2.633   3.345  19.189  0.00  0.00    +0.000 C 
BRANCH  18  19
ATOM     19  N   UNL     1       3.890   3.186  18.410  0.00  0.00    +0.000 NA
ATOM     20  C   UNL     1       5.079   3.660  19.145  0.00  0.00    +0.000 C 
ATOM     21  C   UNL     1       5.726   4.954  18.626  0.00  0.00    +0.000 C 
ATOM     22  C   UNL     1       6.034   4.793  17.165  0.00  0.00    +0.000 A 
ATOM     23  C   UNL     1       7.191   5.315  16.582  0.00  0.00    +0.000 A 
ATOM     24  C   UNL     1       7.426   5.128  15.220  0.00  0.00    +0.000 A 
ATOM     25  C   UNL     1       6.505   4.427  14.441  0.00  0.00    +0.000 A 
ATOM     26  C   UNL     1       5.339   3.923  15.017  0.00  0.00    +0.000 A 
ATOM     27  C   UNL     1       5.096   4.101  16.384  0.00  0.00    +0.000 A 
ATOM     28  C   UNL     1       3.789   3.678  17.019  0.00  0.00    +0.000 C 
ENDBRANCH  18  19
ENDBRANCH   1  18
TORSDOF 3
ENDMDL
MODEL 6
REMARK VINA RESULT:      -7.8      1.684      2.896
REMARK  Name = 
REMARK  4 active torsions:
REMARK  status: ('A' for Active; 'I' for Inactive)
REMARK    1  A    between atoms: C_1  and  C_2
REMARK    2  A    between atoms: C_2  and  C_3
REMARK    3  A    between atoms: C_2  and  N_16
REMARK    4  A    between atoms: N_5  and  C_6
REMARK                            x       y       z     vdW  Elec       q    Type
REMARK                         _______ _______ _______ _____ _____    ______ ____
ROOT
ATOM      1  C   UNL     1       1.769   8.842  18.807  0.00  0.00    +0.000 C 
ATOM      2  O   UNL     1       1.773   8.340  19.929  0.00  0.00    +0.000 OA
ATOM      3  N   UNL     1       2.555   8.420  17.741  0.00  0.00    +0.000 N 
ATOM      4  H   UNL     1       2.569   9.026  16.927  0.00  0.00    +0.000 HD
ENDROOT
BRANCH   3   5
ATOM      5  C   UNL     1       3.344   7.248  17.715  0.00  0.00    +0.000 A 
ATOM      6  C   UNL     1       2.790   5.972  17.990  0.00  0.00    +0.000 A 
ATOM      7  C   UNL     1       3.564   4.808  17.990  0.00  0.00    +0.000 A 
ATOM      8  C   UNL     1       4.893   4.961  17.707  0.00  0.00    +0.000 A 
ATOM      9  N   UNL     1       5.899   4.006  17.661  0.00  0.00    +0.000 N 
ATOM     10  C   UNL     1       7.107   4.639  17.346  0.00  0.00    +0.000 A 
ATOM     11  O   UNL     1       8.198   4.111  17.238  0.00  0.00    +0.000 OA
ATOM     12  N   UNL     1       6.813   6.006  17.184  0.00  0.00    +0.000 N 
ATOM     13  C   UNL     1       5.454   6.203  17.409  0.00  0.00    +0.000 A 
ATOM     14  C   UNL     1       4.705   7.363  17.387  0.00  0.00    +0.000 A 
ATOM     15  H   UNL     1       5.810   3.019  17.842  0.00  0.00    +0.000 HD
ATOM     16  H   UNL     1       7.510   6.698  16.967  0.00  0.00    +0.000 HD
ENDBRANCH   3   5
BRANCH   1  18
ATOM     17  C   UNL     1       1.739  11.325  18.377  0.00  0.00    +0.000 C 
ATOM     18  C   UNL     1       0.871  10.061  18.479  0.00  0.00    +0.000 C 
BRANCH  18  19
ATOM     19  N   UNL     1      -0.273  10.151  19.426  0.00  0.00    +0.000 NA
ATOM     20  C   UNL     1      -1.544  10.485  18.754  0.00  0.00    +0.000 C 
ATOM     21  C   UNL     1      -2.099  11.894  19.016  0.00  0.00    +0.000 C 
ATOM     22  C   UNL     1      -2.212  12.105  20.499  0.00  0.00    +0.000 A 
ATOM     23  C   UNL     1      -3.274  12.804  21.078  0.00  0.00    +0.000 A 
ATOM     24  C   UNL     1      -3.327  12.962  22.462  0.00  0.00    +0.000 A 
ATOM     25  C   UNL     1      -2.320  12.429  23.266  0.00  0.00    +0.000 A 
ATOM     26  C   UNL     1      -1.247  11.750  22.689  0.00  0.00    +0.000 A 
ATOM     27  C   UNL     1      -1.186  11.581  21.301  0.00  0.00    +0.000 A 
ATOM     28  C   UNL     1       0.019  10.960  20.629  0.00  0.00    +0.000 C 
ENDBRANCH  18  19
ENDBRANCH   1  18
TORSDOF 3
ENDMDL
MODEL 7
REMARK VINA RESULT:      -7.8      2.254      3.616
REMARK  Name = 
REMARK  4 active torsions:
REMARK  status: ('A' for Active; 'I' for Inactive)
REMARK    1  A    between atoms: C_1  and  C_2
REMARK    2  A    between atoms: C_2  and  C_3
REMARK    3  A    between atoms: C_2  and  N_16
REMARK    4  A    between atoms: N_5  and  C_6
REMARK                            x       y       z     vdW  Elec       q    Type
REMARK                         _______ _______ _______ _____ _____    ______ ____
ROOT
ATOM      1  C   UNL     1       1.557   8.636  19.373  0.00  0.00    +0.000 C 
ATOM      2  O   UNL     1       1.873   8.184  20.471  0.00  0.00    +0.000 OA
ATOM      3  N   UNL     1       2.089   8.223  18.157  0.00  0.00    +0.000 N 
ATOM      4  H   UNL     1       1.857   8.793  17.350  0.00  0.00    +0.000 HD
ENDROOT
BRANCH   3   5
ATOM      5  C   UNL     1       2.935   7.108  17.966  0.00  0.00    +0.000 A 
ATOM      6  C   UNL     1       2.474   5.781  18.164  0.00  0.00    +0.000 A 
ATOM      7  C   UNL     1       3.307   4.671  18.000  0.00  0.00    +0.000 A 
ATOM      8  C   UNL     1       4.600   4.928  17.636  0.00  0.00    +0.000 A 
ATOM      9  N   UNL     1       5.648   4.043  17.430  0.00  0.00    +0.000 N 
ATOM     10  C   UNL     1       6.793   4.773  17.087  0.00  0.00    +0.000 A 
ATOM     11  O   UNL     1       7.898   4.324  16.852  0.00  0.00    +0.000 OA
ATOM     12  N   UNL     1       6.413   6.129  17.072  0.00  0.00    +0.000 N 
ATOM     13  C   UNL     1       5.068   6.222  17.413  0.00  0.00    +0.000 A 
ATOM     14  C   UNL     1       4.259   7.333  17.552  0.00  0.00    +0.000 A 
ATOM     15  H   UNL     1       5.627   3.041  17.527  0.00  0.00    +0.000 HD
ATOM     16  H   UNL     1       7.053   6.878  16.869  0.00  0.00    +0.000 HD
ENDBRANCH   3   5
BRANCH   1  18
ATOM     17  C   UNL     1      -0.139   9.720  17.857  0.00  0.00    +0.000 C 
ATOM     18  C   UNL     1       0.515   9.775  19.247  0.00  0.00    +0.000 C 
BRANCH  18  19
ATOM     19  N   UNL     1       1.110  11.087  19.616  0.00  0.00    +0.000 NA
ATOM     20  C   UNL     1       0.145  11.984  20.281  0.00  0.00    +0.000 C 
ATOM     21  C   UNL     1      -0.325  13.198  19.464  0.00  0.00    +0.000 C 
ATOM     22  C   UNL     1       0.878  13.966  18.997  0.00  0.00    +0.000 A 
ATOM     23  C   UNL     1       0.902  15.362  18.945  0.00  0.00    +0.000 A 
ATOM     24  C   UNL     1       2.051  16.020  18.508  0.00  0.00    +0.000 A 
ATOM     25  C   UNL     1       3.172  15.287  18.118  0.00  0.00    +0.000 A 
ATOM     26  C   UNL     1       3.143  13.892  18.149  0.00  0.00    +0.000 A 
ATOM     27  C   UNL     1       1.996  13.222  18.590  0.00  0.00    +0.000 A 
ATOM     28  C   UNL     1       1.883  11.715  18.522  0.00  0.00    +0.000 C 
ENDBRANCH  18  19
ENDBRANCH   1  18
TORSDOF 3
ENDMDL
MODEL 8
REMARK VINA RESULT:      -7.7      2.152      3.448
REMARK  Name = 
REMARK  4 active torsions:
REMARK  status: ('A' for Active; 'I' for Inactive)
REMARK    1  A    between atoms: C_1  and  C_2
REMARK    2  A    between atoms: C_2  and  C_3
REMARK    3  A    between atoms: C_2  and  N_16
REMARK    4  A    between atoms: N_5  and  C_6
REMARK                            x       y       z     vdW  Elec       q    Type
REMARK                         _______ _______ _______ _____ _____    ______ ____
ROOT
ATOM      1  C   UNL     1       1.684   8.800  18.878  0.00  0.00    +0.000 C 
ATOM      2  O   UNL     1       1.741   8.363  20.026  0.00  0.00    +0.000 OA
ATOM      3  N   UNL     1       2.337   8.249  17.782  0.00  0.00    +0.000 N 
ATOM      4  H   UNL     1       2.332   8.805  16.933  0.00  0.00    +0.000 HD
ENDROOT
BRANCH   3   5
ATOM      5  C   UNL     1       3.018   7.012  17.767  0.00  0.00    +0.000 A 
ATOM      6  C   UNL     1       4.381   6.918  17.386  0.00  0.00    +0.000 A 
ATOM      7  C   UNL     1       5.060   5.696  17.345  0.00  0.00    +0.000 A 
ATOM      8  C   UNL     1       4.340   4.588  17.694  0.00  0.00    +0.000 A 
ATOM      9  N   UNL     1       4.733   3.257  17.721  0.00  0.00    +0.000 N 
ATOM     10  C   UNL     1       3.644   2.475  18.128  0.00  0.00    +0.000 A 
ATOM     11  O   UNL     1       3.624   1.265  18.249  0.00  0.00    +0.000 OA
ATOM     12  N   UNL     1       2.579   3.364  18.365  0.00  0.00    +0.000 N 
ATOM     13  C   UNL     1       3.007   4.660  18.095  0.00  0.00    +0.000 A 
ATOM     14  C   UNL     1       2.321   5.857  18.159  0.00  0.00    +0.000 A 
ATOM     15  H   UNL     1       5.634   2.882  17.473  0.00  0.00    +0.000 HD
ATOM     16  H   UNL     1       1.664   3.063  18.657  0.00  0.00    +0.000 HD
ENDBRANCH   3   5
BRANCH   1  18
ATOM     17  C   UNL     1       1.806  11.292  18.528  0.00  0.00    +0.000 C 
ATOM     18  C   UNL     1       0.868  10.074  18.548  0.00  0.00    +0.000 C 
BRANCH  18  19
ATOM     19  N   UNL     1      -0.315  10.198  19.441  0.00  0.00    +0.000 NA
ATOM     20  C   UNL     1      -1.538  10.592  18.715  0.00  0.00    +0.000 C 
ATOM     21  C   UNL     1      -2.049  12.018  18.973  0.00  0.00    +0.000 C 
ATOM     22  C   UNL     1      -2.223  12.214  20.451  0.00  0.00    +0.000 A 
ATOM     23  C   UNL     1      -3.284  12.947  20.990  0.00  0.00    +0.000 A 
ATOM     24  C   UNL     1      -3.396  13.089  22.372  0.00  0.00    +0.000 A 
ATOM     25  C   UNL     1      -2.450  12.506  23.215  0.00  0.00    +0.000 A 
ATOM     26  C   UNL     1      -1.378  11.792  22.679  0.00  0.00    +0.000 A 
ATOM     27  C   UNL     1      -1.258  11.639  21.293  0.00  0.00    +0.000 A 
ATOM     28  C   UNL     1      -0.049  10.978  20.669  0.00  0.00    +0.000 C 
ENDBRANCH  18  19
ENDBRANCH   1  18
TORSDOF 3
ENDMDL
MODEL 9
REMARK VINA RESULT:      -7.7      1.784      2.723
REMARK  Name = 
REMARK  4 active torsions:
REMARK  status: ('A' for Active; 'I' for Inactive)
REMARK    1  A    between atoms: C_1  and  C_2
REMARK    2  A    between atoms: C_2  and  C_3
REMARK    3  A    between atoms: C_2  and  N_16
REMARK    4  A    between atoms: N_5  and  C_6
REMARK                            x       y       z     vdW  Elec       q    Type
REMARK                         _______ _______ _______ _____ _____    ______ ____
ROOT
ATOM      1  C   UNL     1       1.383   9.230  18.853  0.00  0.00    +0.000 C 
ATOM      2  O   UNL     1       1.332   8.743  19.980  0.00  0.00    +0.000 OA
ATOM      3  N   UNL     1       2.109   8.707  17.790  0.00  0.00    +0.000 N 
ATOM      4  H   UNL     1       2.191   9.299  16.969  0.00  0.00    +0.000 HD
ENDROOT
BRANCH   3   5
ATOM      5  C   UNL     1       2.754   7.450  17.774  0.00  0.00    +0.000 A 
ATOM      6  C   UNL     1       4.129   7.324  17.446  0.00  0.00    +0.000 A 
ATOM      7  C   UNL     1       4.773   6.084  17.405  0.00  0.00    +0.000 A 
ATOM      8  C   UNL     1       4.008   4.990  17.700  0.00  0.00    +0.000 A 
ATOM      9  N   UNL     1       4.360   3.648  17.713  0.00  0.00    +0.000 N 
ATOM     10  C   UNL     1       3.234   2.890  18.059  0.00  0.00    +0.000 A 
ATOM     11  O   UNL     1       3.174   1.679  18.152  0.00  0.00    +0.000 OA
ATOM     12  N   UNL     1       2.187   3.806  18.273  0.00  0.00    +0.000 N 
ATOM     13  C   UNL     1       2.662   5.093  18.049  0.00  0.00    +0.000 A 
ATOM     14  C   UNL     1       2.009   6.309  18.113  0.00  0.00    +0.000 A 
ATOM     15  H   UNL     1       5.260   3.252  17.493  0.00  0.00    +0.000 HD
ATOM     16  H   UNL     1       1.253   3.526  18.521  0.00  0.00    +0.000 HD
ENDBRANCH   3   5
BRANCH   1  18
ATOM     17  C   UNL     1       1.211  11.693  19.354  0.00  0.00    +0.000 C 
ATOM     18  C   UNL     1       0.633  10.543  18.515  0.00  0.00    +0.000 C 
BRANCH  18  19
ATOM     19  N   UNL     1      -0.839  10.359  18.617  0.00  0.00    +0.000 NA
ATOM     20  C   UNL     1      -1.424   9.756  17.403  0.00  0.00    +0.000 C 
ATOM     21  C   UNL     1      -2.287  10.684  16.534  0.00  0.00    +0.000 C 
ATOM     22  C   UNL     1      -3.357  11.297  17.389  0.00  0.00    +0.000 A 
ATOM     23  C   UNL     1      -4.657  11.513  16.923  0.00  0.00    +0.000 A 
ATOM     24  C   UNL     1      -5.610  12.081  17.767  0.00  0.00    +0.000 A 
ATOM     25  C   UNL     1      -5.266  12.439  19.071  0.00  0.00    +0.000 A 
ATOM     26  C   UNL     1      -3.963  12.245  19.531  0.00  0.00    +0.000 A 
ATOM     27  C   UNL     1      -3.000  11.670  18.694  0.00  0.00    +0.000 A 
ATOM     28  C   UNL     1      -1.551  11.557  19.114  0.00  0.00    +0.000 C 
ENDBRANCH  18  19
ENDBRANCH   1  18
TORSDOF 3
ENDMDL
