MODEL 1
REMARK VINA RESULT:      -8.6      0.000      0.000
REMARK  Name = 
REMARK  6 active torsions:
REMARK  status: ('A' for Active; 'I' for Inactive)
REMARK    1  A    between atoms: N_6  and  C_7
REMARK    2  A    between atoms: C_7  and  C_8
REMARK    3  A    between atoms: C_13  and  N_14
REMARK    4  A    between atoms: N_14  and  C_15
REMARK    5  A    between atoms: C_15  and  C_16
REMARK    6  A    between atoms: C_19  and  C_20
REMARK                            x       y       z     vdW  Elec       q    Type
REMARK                         _______ _______ _______ _____ _____    ______ ____
ROOT
ATOM      1  C   UNL     1       3.731   5.357  19.104  0.00  0.00    +0.000 A 
ATOM      2  C   UNL     1       2.849   6.470  19.062  0.00  0.00    +0.000 A 
ATOM      3  C   UNL     1       2.994   7.490  18.132  0.00  0.00    +0.000 A 
ATOM      4  C   UNL     1       4.045   7.434  17.234  0.00  0.00    +0.000 A 
ATOM      5  C   UNL     1       4.932   6.354  17.271  0.00  0.00    +0.000 A 
ATOM      6  C   UNL     1       4.788   5.273  18.173  0.00  0.00    +0.000 A 
ENDROOT
BRANCH   6   7
ATOM      7  N   UNL     1       5.792   4.297  18.113  0.00  0.00    +0.000 N 
ATOM      8  H   UNL     1       5.942   3.859  19.019  0.00  0.00    +0.000 HD
BRANCH   7   9
ATOM      9  C   UNL     1       7.093   4.515  17.460  0.00  0.00    +0.000 C 
BRANCH   9  10
ATOM     10  C   UNL     1       7.064   4.715  15.972  0.00  0.00    +0.000 A 
ATOM     11  N   UNL     1       7.615   5.673  15.256  0.00  0.00    +0.000 NA
ATOM     12  N   UNL     1       7.283   5.420  13.942  0.00  0.00    +0.000 NA
ATOM     13  C   UNL     1       6.560   4.318  13.941  0.00  0.00    +0.000 A 
ATOM     14  O   UNL     1       6.383   3.803  15.203  0.00  0.00    +0.000 OA
BRANCH  13  15
ATOM     15  C   UNL     1       6.004   3.569  12.822  0.00  0.00    +0.000 A 
ATOM     16  C   UNL     1       6.775   2.572  12.200  0.00  0.00    +0.000 A 
ATOM     17  C   UNL     1       6.243   1.790  11.171  0.00  0.00    +0.000 A 
ATOM     18  C   UNL     1       4.932   1.998  10.749  0.00  0.00    +0.000 A 
ATOM     19  C   UNL     1       4.162   3.000  11.336  0.00  0.00    +0.000 A 
ATOM     20  C   UNL     1       4.696   3.784  12.363  0.00  0.00    +0.000 A 
ENDBRANCH  13  15
ENDBRANCH   9  10
ENDBRANCH   7   9
ENDBRANCH   6   7
BRANCH   1  21
ATOM     21  C   UNL     1       3.379   4.307  20.133  0.00  0.00    +0.000 C 
BRANCH  21  27
ATOM     22  O   UNL     1       3.892   1.787  18.656  0.00  0.00    +0.000 OA
ATOM     23  C   UNL     1       2.771   2.162  18.960  0.00  0.00    +0.000 C 
ATOM     24  N   UNL     1       1.587   1.504  18.651  0.00  0.00    +0.000 N 
ATOM     25  C   UNL     1       0.468   2.374  18.899  0.00  0.00    +0.000 C 
ATOM     26  C   UNL     1       1.018   3.333  19.940  0.00  0.00    +0.000 C 
ATOM     27  N   UNL     1       2.428   3.346  19.605  0.00  0.00    +0.000 N 
ATOM     28  H   UNL     1       1.617   0.758  17.970  0.00  0.00    +0.000 HD
ENDBRANCH  21  27
ENDBRANCH   1  21
TORSDOF 6
ENDMDL
MODEL 2
REMARK VINA RESULT:      -8.6      3.946      8.549
REMARK  Name = 
REMARK  6 active torsions:
REMARK  status: ('A' for Active; 'I' for Inactive)
REMARK    1  A    between atoms: N_6  and  C_7
REMARK    2  A    between atoms: C_7  and  C_8
REMARK    3  A    between atoms: C_13  and  N_14
REMARK    4  A    between atoms: N_14  and  C_15
REMARK    5  A    between atoms: C_15  and  C_16
REMARK    6  A    between atoms: C_19  and  C_20
REMARK                            x       y       z     vdW  Elec       q    Type
REMARK                         _______ _______ _______ _____ _____    ______ ____
ROOT
ATOM      1  C   UNL     1       3.807   3.601  18.916  0.00  0.00    +0.000 A 
ATOM      2  C   UNL     1       3.385   2.259  18.719  0.00  0.00    +0.000 A 
ATOM      3  C   UNL     1       2.050   1.926  18.534  0.00  0.00    +0.000 A 
ATOM      4  C   UNL     1       1.098   2.929  18.567  0.00  0.00    +0.000 A 
ATOM      5  C   UNL     1       1.494   4.254  18.775  0.00  0.00    +0.000 A 
ATOM      6  C   UNL     1       2.848   4.637  18.920  0.00  0.00    +0.000 A 
ENDROOT
BRANCH   6   7
ATOM      7  N   UNL     1       3.070   5.997  19.172  0.00  0.00    +0.000 N 
ATOM      8  H   UNL     1       2.555   6.315  19.991  0.00  0.00    +0.000 HD
BRANCH   7   9
ATOM      9  C   UNL     1       3.003   7.033  18.130  0.00  0.00    +0.000 C 
BRANCH   9  10
ATOM     10  C   UNL     1       2.158   8.235  18.441  0.00  0.00    +0.000 A 
ATOM     11  N   UNL     1       1.775   9.207  17.638  0.00  0.00    +0.000 NA
ATOM     12  N   UNL     1       1.033  10.079  18.405  0.00  0.00    +0.000 NA
ATOM     13  C   UNL     1       1.003   9.578  19.624  0.00  0.00    +0.000 A 
ATOM     14  O   UNL     1       1.694   8.394  19.724  0.00  0.00    +0.000 OA
BRANCH  13  15
ATOM     15  C   UNL     1       0.309  10.057  20.812  0.00  0.00    +0.000 A 
ATOM     16  C   UNL     1      -0.291  11.327  20.803  0.00  0.00    +0.000 A 
ATOM     17  C   UNL     1      -1.024  11.783  21.902  0.00  0.00    +0.000 A 
ATOM     18  C   UNL     1      -1.163  10.975  23.027  0.00  0.00    +0.000 A 
ATOM     19  C   UNL     1      -0.552   9.723  23.064  0.00  0.00    +0.000 A 
ATOM     20  C   UNL     1       0.184   9.268  21.966  0.00  0.00    +0.000 A 
ENDBRANCH  13  15
ENDBRANCH   9  10
ENDBRANCH   7   9
ENDBRANCH   6   7
BRANCH   1  21
ATOM     21  C   UNL     1       5.303   3.786  19.027  0.00  0.00    +0.000 C 
BRANCH  21  27
ATOM     22  O   UNL     1       8.101   4.570  18.435  0.00  0.00    +0.000 OA
ATOM     23  C   UNL     1       7.208   4.618  17.604  0.00  0.00    +0.000 C 
ATOM     24  N   UNL     1       7.346   5.060  16.295  0.00  0.00    +0.000 N 
ATOM     25  C   UNL     1       6.047   5.259  15.709  0.00  0.00    +0.000 C 
ATOM     26  C   UNL     1       5.168   4.329  16.527  0.00  0.00    +0.000 C 
ATOM     27  N   UNL     1       5.863   4.320  17.799  0.00  0.00    +0.000 N 
ATOM     28  H   UNL     1       8.191   5.552  16.041  0.00  0.00    +0.000 HD
ENDBRANCH  21  27
ENDBRANCH   1  21
TORSDOF 6
ENDMDL
MODEL 3
REMARK VINA RESULT:      -8.6      3.881      8.456
REMARK  Name = 
REMARK  6 active torsions:
REMARK  status: ('A' for Active; 'I' for Inactive)
REMARK    1  A    between atoms: N_6  and  C_7
REMARK    2  A    between atoms: C_7  and  C_8
REMARK    3  A    between atoms: C_13  and  N_14
REMARK    4  A    between atoms: N_14  and  C_15
REMARK    5  A    between atoms: C_15  and  C_16
REMARK    6  A    between atoms: C_19  and  C_20
REMARK                            x       y       z     vdW  Elec       q    Type
REMARK                         _______ _______ _______ _____ _____    ______ ____
ROOT
ATOM      1  C   UNL     1       4.022   3.722  18.583  0.00  0.00    +0.000 A 
ATOM      2  C   UNL     1       3.542   2.391  18.449  0.00  0.00    +0.000 A 
ATOM      3  C   UNL     1       2.186   2.095  18.449  0.00  0.00    +0.000 A 
ATOM      4  C   UNL     1       1.274   3.123  18.609  0.00  0.00    +0.000 A 
ATOM      5  C   UNL     1       1.730   4.437  18.758  0.00  0.00    +0.000 A 
ATOM      6  C   UNL     1       3.101   4.783  18.716  0.00  0.00    +0.000 A 
ENDROOT
BRANCH   6   7
ATOM      7  N   UNL     1       3.391   6.137  18.933  0.00  0.00    +0.000 N 
ATOM      8  H   UNL     1       3.001   6.467  19.813  0.00  0.00    +0.000 HD
BRANCH   7   9
ATOM      9  C   UNL     1       3.211   7.175  17.906  0.00  0.00    +0.000 C 
BRANCH   9  10
ATOM     10  C   UNL     1       2.300   8.314  18.265  0.00  0.00    +0.000 A 
ATOM     11  N   UNL     1       1.885   9.310  17.510  0.00  0.00    +0.000 NA
ATOM     12  N   UNL     1       1.084  10.099  18.308  0.00  0.00    +0.000 NA
ATOM     13  C   UNL     1       1.055   9.527  19.495  0.00  0.00    +0.000 A 
ATOM     14  O   UNL     1       1.803   8.375  19.544  0.00  0.00    +0.000 OA
BRANCH  13  15
ATOM     15  C   UNL     1       0.313   9.901  20.692  0.00  0.00    +0.000 A 
ATOM     16  C   UNL     1       0.142   8.965  21.726  0.00  0.00    +0.000 A 
ATOM     17  C   UNL     1      -0.504   9.317  22.914  0.00  0.00    +0.000 A 
ATOM     18  C   UNL     1      -0.990  10.611  23.083  0.00  0.00    +0.000 A 
ATOM     19  C   UNL     1      -0.852  11.545  22.057  0.00  0.00    +0.000 A 
ATOM     20  C   UNL     1      -0.210  11.191  20.867  0.00  0.00    +0.000 A 
ENDBRANCH  13  15
ENDBRANCH   9  10
ENDBRANCH   7   9
ENDBRANCH   6   7
BRANCH   1  21
ATOM     21  C   UNL     1       5.524   3.866  18.488  0.00  0.00    +0.000 C 
BRANCH  21  27
ATOM     22  O   UNL     1       7.867   5.587  17.904  0.00  0.00    +0.000 OA
ATOM     23  C   UNL     1       7.069   5.240  17.049  0.00  0.00    +0.000 C 
ATOM     24  N   UNL     1       7.111   5.604  15.709  0.00  0.00    +0.000 N 
ATOM     25  C   UNL     1       5.865   5.264  15.073  0.00  0.00    +0.000 C 
ATOM     26  C   UNL     1       5.344   4.137  15.947  0.00  0.00    +0.000 C 
ATOM     27  N   UNL     1       5.919   4.479  17.233  0.00  0.00    +0.000 N 
ATOM     28  H   UNL     1       7.729   6.354  15.435  0.00  0.00    +0.000 HD
ENDBRANCH  21  27
ENDBRANCH   1  21
TORSDOF 6
ENDMDL
MODEL 4
REMARK VINA RESULT:      -8.6      4.272      6.780
REMARK  Name = 
REMARK  6 active torsions:
REMARK  status: ('A' for Active; 'I' for Inactive)
REMARK    1  A    between atoms: N_6  and  C_7
REMARK    2  A    between atoms: C_7  and  C_8
REMARK    3  A    between atoms: C_13  and  N_14
REMARK    4  A    between atoms: N_14  and  C_15
REMARK    5  A    between atoms: C_15  and  C_16
REMARK    6  A    between atoms: C_19  and  C_20
REMARK                            x       y       z     vdW  Elec       q    Type
REMARK                         _______ _______ _______ _____ _____    ______ ____
ROOT
ATOM      1  C   UNL     1       5.536   4.160  17.259  0.00  0.00    +0.000 A 
ATOM      2  C   UNL     1       4.619   4.071  16.177  0.00  0.00    +0.000 A 
ATOM      3  C   UNL     1       5.008   4.296  14.863  0.00  0.00    +0.000 A 
ATOM      4  C   UNL     1       6.322   4.642  14.602  0.00  0.00    +0.000 A 
ATOM      5  C   UNL     1       7.233   4.750  15.657  0.00  0.00    +0.000 A 
ATOM      6  C   UNL     1       6.886   4.482  17.002  0.00  0.00    +0.000 A 
ENDROOT
BRANCH   6   7
ATOM      7  N   UNL     1       7.904   4.686  17.943  0.00  0.00    +0.000 N 
ATOM      8  H   UNL     1       8.186   3.813  18.384  0.00  0.00    +0.000 HD
BRANCH   7   9
ATOM      9  C   UNL     1       7.863   5.748  18.960  0.00  0.00    +0.000 C 
BRANCH   9  10
ATOM     10  C   UNL     1       7.966   7.158  18.452  0.00  0.00    +0.000 A 
ATOM     11  N   UNL     1       7.368   7.709  17.415  0.00  0.00    +0.000 NA
ATOM     12  N   UNL     1       7.807   9.015  17.360  0.00  0.00    +0.000 NA
ATOM     13  C   UNL     1       8.636   9.178  18.371  0.00  0.00    +0.000 A 
ATOM     14  O   UNL     1       8.783   8.036  19.121  0.00  0.00    +0.000 OA
BRANCH  13  15
ATOM     15  C   UNL     1       9.335  10.376  18.820  0.00  0.00    +0.000 A 
ATOM     16  C   UNL     1       9.891  11.252  17.873  0.00  0.00    +0.000 A 
ATOM     17  C   UNL     1      10.504  12.443  18.271  0.00  0.00    +0.000 A 
ATOM     18  C   UNL     1      10.573  12.770  19.623  0.00  0.00    +0.000 A 
ATOM     19  C   UNL     1      10.051  11.899  20.577  0.00  0.00    +0.000 A 
ATOM     20  C   UNL     1       9.440  10.706  20.179  0.00  0.00    +0.000 A 
ENDBRANCH  13  15
ENDBRANCH   9  10
ENDBRANCH   7   9
ENDBRANCH   6   7
BRANCH   1  21
ATOM     21  C   UNL     1       4.956   3.812  18.610  0.00  0.00    +0.000 C 
BRANCH  21  27
ATOM     22  O   UNL     1       3.855   1.068  18.373  0.00  0.00    +0.000 OA
ATOM     23  C   UNL     1       3.151   2.062  18.437  0.00  0.00    +0.000 C 
ATOM     24  N   UNL     1       1.763   2.074  18.383  0.00  0.00    +0.000 N 
ATOM     25  C   UNL     1       1.295   3.421  18.187  0.00  0.00    +0.000 C 
ATOM     26  C   UNL     1       2.436   4.253  18.744  0.00  0.00    +0.000 C 
ATOM     27  N   UNL     1       3.572   3.387  18.500  0.00  0.00    +0.000 N 
ATOM     28  H   UNL     1       1.287   1.234  18.088  0.00  0.00    +0.000 HD
ENDBRANCH  21  27
ENDBRANCH   1  21
TORSDOF 6
ENDMDL
MODEL 5
REMARK VINA RESULT:      -8.5      3.970      8.580
REMARK  Name = 
REMARK  6 active torsions:
REMARK  status: ('A' for Active; 'I' for Inactive)
REMARK    1  A    between atoms: N_6  and  C_7
REMARK    2  A    between atoms: C_7  and  C_8
REMARK    3  A    between atoms: C_13  and  N_14
REMARK    4  A    between atoms: N_14  and  C_15
REMARK    5  A    between atoms: C_15  and  C_16
REMARK    6  A    between atoms: C_19  and  C_20
REMARK                            x       y       z     vdW  Elec       q    Type
REMARK                         _______ _______ _______ _____ _____    ______ ____
ROOT
ATOM      1  C   UNL     1       3.835   3.975  18.507  0.00  0.00    +0.000 A 
ATOM      2  C   UNL     1       4.074   2.955  19.465  0.00  0.00    +0.000 A 
ATOM      3  C   UNL     1       3.254   2.777  20.572  0.00  0.00    +0.000 A 
ATOM      4  C   UNL     1       2.186   3.635  20.759  0.00  0.00    +0.000 A 
ATOM      5  C   UNL     1       1.944   4.655  19.834  0.00  0.00    +0.000 A 
ATOM      6  C   UNL     1       2.730   4.838  18.671  0.00  0.00    +0.000 A 
ENDROOT
BRANCH   6   7
ATOM      7  N   UNL     1       2.385   5.938  17.874  0.00  0.00    +0.000 N 
ATOM      8  H   UNL     1       2.265   5.671  16.899  0.00  0.00    +0.000 HD
BRANCH   7   9
ATOM      9  C   UNL     1       3.083   7.232  17.938  0.00  0.00    +0.000 C 
BRANCH   9  10
ATOM     10  C   UNL     1       2.248   8.418  18.328  0.00  0.00    +0.000 A 
ATOM     11  N   UNL     1       1.950   9.488  17.620  0.00  0.00    +0.000 NA
ATOM     12  N   UNL     1       1.177  10.291  18.431  0.00  0.00    +0.000 NA
ATOM     13  C   UNL     1       1.045   9.654  19.577  0.00  0.00    +0.000 A 
ATOM     14  O   UNL     1       1.696   8.444  19.585  0.00  0.00    +0.000 OA
BRANCH  13  15
ATOM     15  C   UNL     1       0.277  10.016  20.762  0.00  0.00    +0.000 A 
ATOM     16  C   UNL     1       0.246   9.145  21.864  0.00  0.00    +0.000 A 
ATOM     17  C   UNL     1      -0.423   9.498  23.039  0.00  0.00    +0.000 A 
ATOM     18  C   UNL     1      -1.073  10.726  23.125  0.00  0.00    +0.000 A 
ATOM     19  C   UNL     1      -1.075  11.590  22.032  0.00  0.00    +0.000 A 
ATOM     20  C   UNL     1      -0.409  11.236  20.856  0.00  0.00    +0.000 A 
ENDBRANCH  13  15
ENDBRANCH   9  10
ENDBRANCH   7   9
ENDBRANCH   6   7
BRANCH   1  21
ATOM     21  C   UNL     1       4.784   3.976  17.331  0.00  0.00    +0.000 C 
BRANCH  21  27
ATOM     22  O   UNL     1       5.683   5.926  15.284  0.00  0.00    +0.000 OA
ATOM     23  C   UNL     1       6.092   5.933  16.434  0.00  0.00    +0.000 C 
ATOM     24  N   UNL     1       7.038   6.810  16.948  0.00  0.00    +0.000 N 
ATOM     25  C   UNL     1       7.492   6.340  18.230  0.00  0.00    +0.000 C 
ATOM     26  C   UNL     1       6.325   5.492  18.704  0.00  0.00    +0.000 C 
ATOM     27  N   UNL     1       5.770   5.035  17.446  0.00  0.00    +0.000 N 
ATOM     28  H   UNL     1       7.573   7.373  16.302  0.00  0.00    +0.000 HD
ENDBRANCH  21  27
ENDBRANCH   1  21
TORSDOF 6
ENDMDL
MODEL 6
REMARK VINA RESULT:      -8.3      2.343      3.842
REMARK  Name = 
REMARK  6 active torsions:
REMARK  status: ('A' for Active; 'I' for Inactive)
REMARK    1  A    between atoms: N_6  and  C_7
REMARK    2  A    between atoms: C_7  and  C_8
REMARK    3  A    between atoms: C_13  and  N_14
REMARK    4  A    between atoms: N_14  and  C_15
REMARK    5  A    between atoms: C_15  and  C_16
REMARK    6  A    between atoms: C_19  and  C_20
REMARK                            x       y       z     vdW  Elec       q    Type
REMARK                         _______ _______ _______ _____ _____    ______ ____
ROOT
ATOM      1  C   UNL     1       2.899   4.450  19.371  0.00  0.00    +0.000 A 
ATOM      2  C   UNL     1       1.586   4.181  18.900  0.00  0.00    +0.000 A 
ATOM      3  C   UNL     1       1.291   3.051  18.147  0.00  0.00    +0.000 A 
ATOM      4  C   UNL     1       2.312   2.174  17.827  0.00  0.00    +0.000 A 
ATOM      5  C   UNL     1       3.612   2.431  18.270  0.00  0.00    +0.000 A 
ATOM      6  C   UNL     1       3.942   3.546  19.077  0.00  0.00    +0.000 A 
ENDROOT
BRANCH   6   7
ATOM      7  N   UNL     1       5.300   3.685  19.392  0.00  0.00    +0.000 N 
ATOM      8  H   UNL     1       5.513   3.301  20.310  0.00  0.00    +0.000 HD
BRANCH   7   9
ATOM      9  C   UNL     1       6.047   4.940  19.209  0.00  0.00    +0.000 C 
BRANCH   9  10
ATOM     10  C   UNL     1       6.117   5.473  17.807  0.00  0.00    +0.000 A 
ATOM     11  N   UNL     1       6.049   6.722  17.393  0.00  0.00    +0.000 NA
ATOM     12  N   UNL     1       6.143   6.684  16.018  0.00  0.00    +0.000 NA
ATOM     13  C   UNL     1       6.272   5.416  15.683  0.00  0.00    +0.000 A 
ATOM     14  O   UNL     1       6.273   4.580  16.775  0.00  0.00    +0.000 OA
BRANCH  13  15
ATOM     15  C   UNL     1       6.473   4.813  14.372  0.00  0.00    +0.000 A 
ATOM     16  C   UNL     1       5.548   3.871  13.890  0.00  0.00    +0.000 A 
ATOM     17  C   UNL     1       5.677   3.330  12.608  0.00  0.00    +0.000 A 
ATOM     18  C   UNL     1       6.735   3.722  11.792  0.00  0.00    +0.000 A 
ATOM     19  C   UNL     1       7.676   4.635  12.264  0.00  0.00    +0.000 A 
ATOM     20  C   UNL     1       7.549   5.174  13.548  0.00  0.00    +0.000 A 
ENDBRANCH  13  15
ENDBRANCH   9  10
ENDBRANCH   7   9
ENDBRANCH   6   7
BRANCH   1  21
ATOM     21  C   UNL     1       3.021   5.684  20.235  0.00  0.00    +0.000 C 
BRANCH  21  27
ATOM     22  O   UNL     1       1.369   7.905  21.301  0.00  0.00    +0.000 OA
ATOM     23  C   UNL     1       1.783   7.877  20.153  0.00  0.00    +0.000 C 
ATOM     24  N   UNL     1       1.533   8.836  19.181  0.00  0.00    +0.000 N 
ATOM     25  C   UNL     1       1.919   8.333  17.889  0.00  0.00    +0.000 C 
ATOM     26  C   UNL     1       2.964   7.289  18.239  0.00  0.00    +0.000 C 
ATOM     27  N   UNL     1       2.518   6.861  19.550  0.00  0.00    +0.000 N 
ATOM     28  H   UNL     1       0.812   9.522  19.357  0.00  0.00    +0.000 HD
ENDBRANCH  21  27
ENDBRANCH   1  21
TORSDOF 6
ENDMDL
MODEL 7
REMARK VINA RESULT:      -8.3      0.865      1.424
REMARK  Name = 
REMARK  6 active torsions:
REMARK  status: ('A' for Active; 'I' for Inactive)
REMARK    1  A    between atoms: N_6  and  C_7
REMARK    2  A    between atoms: C_7  and  C_8
REMARK    3  A    between atoms: C_13  and  N_14
REMARK    4  A    between atoms: N_14  and  C_15
REMARK    5  A    between atoms: C_15  and  C_16
REMARK    6  A    between atoms: C_19  and  C_20
REMARK                            x       y       z     vdW  Elec       q    Type
REMARK                         _______ _______ _______ _____ _____    ______ ____
ROOT
ATOM      1  C   UNL     1       3.091   6.003  19.322  0.00  0.00    +0.000 A 
ATOM      2  C   UNL     1       2.133   6.896  19.873  0.00  0.00    +0.000 A 
ATOM      3  C   UNL     1       1.819   8.104  19.265  0.00  0.00    +0.000 A 
ATOM      4  C   UNL     1       2.475   8.460  18.101  0.00  0.00    +0.000 A 
ATOM      5  C   UNL     1       3.432   7.600  17.553  0.00  0.00    +0.000 A 
ATOM      6  C   UNL     1       3.745   6.341  18.118  0.00  0.00    +0.000 A 
ENDROOT
BRANCH   6   7
ATOM      7  N   UNL     1       4.763   5.625  17.474  0.00  0.00    +0.000 N 
ATOM      8  H   UNL     1       5.052   4.814  18.017  0.00  0.00    +0.000 HD
BRANCH   7   9
ATOM      9  C   UNL     1       5.954   6.262  16.890  0.00  0.00    +0.000 C 
BRANCH   9  10
ATOM     10  C   UNL     1       6.503   5.630  15.644  0.00  0.00    +0.000 A 
ATOM     11  N   UNL     1       7.726   5.685  15.157  0.00  0.00    +0.000 NA
ATOM     12  N   UNL     1       7.714   4.958  13.986  0.00  0.00    +0.000 NA
ATOM     13  C   UNL     1       6.488   4.499  13.839  0.00  0.00    +0.000 A 
ATOM     14  O   UNL     1       5.656   4.880  14.864  0.00  0.00    +0.000 OA
BRANCH  13  15
ATOM     15  C   UNL     1       5.937   3.623  12.812  0.00  0.00    +0.000 A 
ATOM     16  C   UNL     1       4.614   3.806  12.379  0.00  0.00    +0.000 A 
ATOM     17  C   UNL     1       4.083   3.027  11.347  0.00  0.00    +0.000 A 
ATOM     18  C   UNL     1       4.869   2.052  10.738  0.00  0.00    +0.000 A 
ATOM     19  C   UNL     1       6.175   1.840  11.174  0.00  0.00    +0.000 A 
ATOM     20  C   UNL     1       6.705   2.616  12.208  0.00  0.00    +0.000 A 
ENDBRANCH  13  15
ENDBRANCH   9  10
ENDBRANCH   7   9
ENDBRANCH   6   7
BRANCH   1  21
ATOM     21  C   UNL     1       3.254   4.703  20.076  0.00  0.00    +0.000 C 
BRANCH  21  27
ATOM     22  O   UNL     1       4.030   2.669  18.062  0.00  0.00    +0.000 OA
ATOM     23  C   UNL     1       2.924   2.706  18.577  0.00  0.00    +0.000 C 
ATOM     24  N   UNL     1       1.872   1.845  18.292  0.00  0.00    +0.000 N 
ATOM     25  C   UNL     1       0.653   2.364  18.853  0.00  0.00    +0.000 C 
ATOM     26  C   UNL     1       1.156   3.236  19.989  0.00  0.00    +0.000 C 
ATOM     27  N   UNL     1       2.453   3.645  19.488  0.00  0.00    +0.000 N 
ATOM     28  H   UNL     1       1.943   1.255  17.475  0.00  0.00    +0.000 HD
ENDBRANCH  21  27
ENDBRANCH   1  21
TORSDOF 6
ENDMDL
MODEL 8
REMARK VINA RESULT:      -8.2      4.133      8.750
REMARK  Name = 
REMARK  6 active torsions:
REMARK  status: ('A' for Active; 'I' for Inactive)
REMARK    1  A    between atoms: N_6  and  C_7
REMARK    2  A    between atoms: C_7  and  C_8
REMARK    3  A    between atoms: C_13  and  N_14
REMARK    4  A    between atoms: N_14  and  C_15
REMARK    5  A    between atoms: C_15  and  C_16
REMARK    6  A    between atoms: C_19  and  C_20
REMARK                            x       y       z     vdW  Elec       q    Type
REMARK                         _______ _______ _______ _____ _____    ______ ____
ROOT
ATOM      1  C   UNL     1       3.349   3.816  18.502  0.00  0.00    +0.000 A 
ATOM      2  C   UNL     1       3.439   2.778  19.468  0.00  0.00    +0.000 A 
ATOM      3  C   UNL     1       2.786   2.852  20.691  0.00  0.00    +0.000 A 
ATOM      4  C   UNL     1       2.045   3.982  20.989  0.00  0.00    +0.000 A 
ATOM      5  C   UNL     1       1.958   5.019  20.056  0.00  0.00    +0.000 A 
ATOM      6  C   UNL     1       2.571   4.960  18.782  0.00  0.00    +0.000 A 
ENDROOT
BRANCH   6   7
ATOM      7  N   UNL     1       2.429   6.105  17.987  0.00  0.00    +0.000 N 
ATOM      8  H   UNL     1       2.682   5.922  17.019  0.00  0.00    +0.000 HD
BRANCH   7   9
ATOM      9  C   UNL     1       2.942   7.428  18.378  0.00  0.00    +0.000 C 
BRANCH   9  10
ATOM     10  C   UNL     1       1.913   8.499  18.602  0.00  0.00    +0.000 A 
ATOM     11  N   UNL     1       1.312   9.266  17.715  0.00  0.00    +0.000 NA
ATOM     12  N   UNL     1       0.472  10.099  18.424  0.00  0.00    +0.000 NA
ATOM     13  C   UNL     1       0.608   9.779  19.695  0.00  0.00    +0.000 A 
ATOM     14  O   UNL     1       1.507   8.758  19.888  0.00  0.00    +0.000 OA
BRANCH  13  15
ATOM     15  C   UNL     1      -0.088  10.296  20.866  0.00  0.00    +0.000 A 
ATOM     16  C   UNL     1      -0.836  11.481  20.764  0.00  0.00    +0.000 A 
ATOM     17  C   UNL     1      -1.571  11.962  21.851  0.00  0.00    +0.000 A 
ATOM     18  C   UNL     1      -1.563  11.266  23.057  0.00  0.00    +0.000 A 
ATOM     19  C   UNL     1      -0.805  10.103  23.184  0.00  0.00    +0.000 A 
ATOM     20  C   UNL     1      -0.067   9.624  22.097  0.00  0.00    +0.000 A 
ENDBRANCH  13  15
ENDBRANCH   9  10
ENDBRANCH   7   9
ENDBRANCH   6   7
BRANCH   1  21
ATOM     21  C   UNL     1       4.064   3.534  17.201  0.00  0.00    +0.000 C 
BRANCH  21  27
ATOM     22  O   UNL     1       6.096   3.526  15.040  0.00  0.00    +0.000 OA
ATOM     23  C   UNL     1       6.284   4.049  16.126  0.00  0.00    +0.000 C 
ATOM     24  N   UNL     1       7.454   4.681  16.526  0.00  0.00    +0.000 N 
ATOM     25  C   UNL     1       7.424   4.907  17.947  0.00  0.00    +0.000 C 
ATOM     26  C   UNL     1       5.936   4.935  18.247  0.00  0.00    +0.000 C 
ATOM     27  N   UNL     1       5.416   4.061  17.214  0.00  0.00    +0.000 N 
ATOM     28  H   UNL     1       8.284   4.554  15.965  0.00  0.00    +0.000 HD
ENDBRANCH  21  27
ENDBRANCH   1  21
TORSDOF 6
ENDMDL
MODEL 9
REMARK VINA RESULT:      -8.2      4.014      8.704
REMARK  Name = 
REMARK  6 active torsions:
REMARK  status: ('A' for Active; 'I' for Inactive)
REMARK    1  A    between atoms: N_6  and  C_7
REMARK    2  A    between atoms: C_7  and  C_8
REMARK    3  A    between atoms: C_13  and  N_14
REMARK    4  A    between atoms: N_14  and  C_15
REMARK    5  A    between atoms: C_15  and  C_16
REMARK    6  A    between atoms: C_19  and  C_20
REMARK                            x       y       z     vdW  Elec       q    Type
REMARK                         _______ _______ _______ _____ _____    ______ ____
ROOT
ATOM      1  C   UNL     1       3.550   3.667  17.627  0.00  0.00    +0.000 A 
ATOM      2  C   UNL     1       3.674   2.335  18.106  0.00  0.00    +0.000 A 
ATOM      3  C   UNL     1       2.735   1.769  18.958  0.00  0.00    +0.000 A 
ATOM      4  C   UNL     1       1.658   2.533  19.371  0.00  0.00    +0.000 A 
ATOM      5  C   UNL     1       1.529   3.851  18.922  0.00  0.00    +0.000 A 
ATOM      6  C   UNL     1       2.440   4.446  18.018  0.00  0.00    +0.000 A 
ENDROOT
BRANCH   6   7
ATOM      7  N   UNL     1       2.195   5.790  17.708  0.00  0.00    +0.000 N 
ATOM      8  H   UNL     1       2.145   5.940  16.702  0.00  0.00    +0.000 HD
BRANCH   7   9
ATOM      9  C   UNL     1       2.925   6.908  18.326  0.00  0.00    +0.000 C 
BRANCH   9  10
ATOM     10  C   UNL     1       2.128   8.151  18.602  0.00  0.00    +0.000 A 
ATOM     11  N   UNL     1       1.818   9.134  17.781  0.00  0.00    +0.000 NA
ATOM     12  N   UNL     1       1.093  10.046  18.519  0.00  0.00    +0.000 NA
ATOM     13  C   UNL     1       1.000   9.555  19.739  0.00  0.00    +0.000 A 
ATOM     14  O   UNL     1       1.631   8.341  19.868  0.00  0.00    +0.000 OA
BRANCH  13  15
ATOM     15  C   UNL     1       0.291  10.074  20.901  0.00  0.00    +0.000 A 
ATOM     16  C   UNL     1      -0.361  11.316  20.820  0.00  0.00    +0.000 A 
ATOM     17  C   UNL     1      -1.108  11.806  21.894  0.00  0.00    +0.000 A 
ATOM     18  C   UNL     1      -1.210  11.061  23.066  0.00  0.00    +0.000 A 
ATOM     19  C   UNL     1      -0.547   9.839  23.173  0.00  0.00    +0.000 A 
ATOM     20  C   UNL     1       0.203   9.351  22.099  0.00  0.00    +0.000 A 
ENDBRANCH  13  15
ENDBRANCH   9  10
ENDBRANCH   7   9
ENDBRANCH   6   7
BRANCH   1  21
ATOM     21  C   UNL     1       4.625   4.093  16.653  0.00  0.00    +0.000 C 
BRANCH  21  27
ATOM     22  O   UNL     1       5.863   6.602  15.671  0.00  0.00    +0.000 OA
ATOM     23  C   UNL     1       6.107   6.127  16.768  0.00  0.00    +0.000 C 
ATOM     24  N   UNL     1       6.997   6.652  17.695  0.00  0.00    +0.000 N 
ATOM     25  C   UNL     1       7.251   5.683  18.729  0.00  0.00    +0.000 C 
ATOM     26  C   UNL     1       6.004   4.819  18.687  0.00  0.00    +0.000 C 
ATOM     27  N   UNL     1       5.617   4.936  17.295  0.00  0.00    +0.000 N 
ATOM     28  H   UNL     1       7.634   7.375  17.393  0.00  0.00    +0.000 HD
ENDBRANCH  21  27
ENDBRANCH   1  21
TORSDOF 6
ENDMDL
