MODEL 1
REMARK VINA RESULT:      -8.9      0.000      0.000
REMARK  Name = 
REMARK  4 active torsions:
REMARK  status: ('A' for Active; 'I' for Inactive)
REMARK    1  A    between atoms: C_4  and  C_5
REMARK    2  A    between atoms: C_9  and  N_10
REMARK    3  A    between atoms: C_11  and  C_13
REMARK    4  A    between atoms: N_16  and  C_17
REMARK                            x       y       z     vdW  Elec       q    Type
REMARK                         _______ _______ _______ _____ _____    ______ ____
ROOT
ATOM      1  N   UNL     1       2.308   7.008  18.895  0.00  0.00    +0.000 N 
ATOM      2  C   UNL     1       1.790   7.037  20.183  0.00  0.00    +0.000 C 
ATOM      3  O   UNL     1       1.775   6.099  20.982  0.00  0.00    +0.000 OA
ATOM      4  H   UNL     1       2.366   7.919  18.443  0.00  0.00    +0.000 HD
ENDROOT
BRANCH   1   9
ATOM      5  C   UNL     1       5.015   4.732  17.722  0.00  0.00    +0.000 A 
ATOM      6  C   UNL     1       4.256   3.631  17.295  0.00  0.00    +0.000 A 
ATOM      7  C   UNL     1       2.866   3.679  17.325  0.00  0.00    +0.000 A 
ATOM      8  C   UNL     1       2.216   4.809  17.812  0.00  0.00    +0.000 A 
ATOM      9  C   UNL     1       2.937   5.899  18.295  0.00  0.00    +0.000 A 
ATOM     10  C   UNL     1       4.334   5.874  18.201  0.00  0.00    +0.000 A 
BRANCH   5  14
ATOM     11  O   UNL     1       7.693   7.947  17.168  0.00  0.00    +0.000 OA
ATOM     12  C   UNL     1       7.467   6.751  17.135  0.00  0.00    +0.000 C 
ATOM     13  C   UNL     1       7.233   5.844  18.317  0.00  0.00    +0.000 C 
ATOM     14  C   UNL     1       6.536   4.630  17.681  0.00  0.00    +0.000 C 
ATOM     15  C   UNL     1       7.098   4.614  16.258  0.00  0.00    +0.000 C 
ATOM     16  N   UNL     1       7.397   5.989  15.987  0.00  0.00    +0.000 N 
ATOM     17  H   UNL     1       7.530   6.401  15.072  0.00  0.00    +0.000 HD
ENDBRANCH   5  14
ENDBRANCH   1   9
BRANCH   2  18
ATOM     18  C   UNL     1       1.297   8.355  20.596  0.00  0.00    +0.000 A 
ATOM     19  C   UNL     1       1.133   8.801  21.928  0.00  0.00    +0.000 A 
ATOM     20  C   UNL     1       0.787  10.122  21.825  0.00  0.00    +0.000 A 
ATOM     21  N   UNL     1       0.719  10.421  20.484  0.00  0.00    +0.000 N 
ATOM     22  N   UNL     1       0.981   9.324  19.717  0.00  0.00    +0.000 NA
BRANCH  21  23
ATOM     23  C   UNL     1       0.414  11.661  19.868  0.00  0.00    +0.000 A 
ATOM     24  C   UNL     1      -0.779  12.322  20.212  0.00  0.00    +0.000 A 
ATOM     25  C   UNL     1      -1.064  13.576  19.668  0.00  0.00    +0.000 A 
ATOM     26  C   UNL     1      -0.172  14.155  18.772  0.00  0.00    +0.000 A 
ATOM     27  F   UNL     1      -0.441  15.362  18.267  0.00  0.00    +0.000 F 
ATOM     28  C   UNL     1       0.989  13.498  18.394  0.00  0.00    +0.000 A 
ATOM     29  C   UNL     1       1.277  12.255  18.941  0.00  0.00    +0.000 A 
ATOM     30  F   UNL     1       2.407  11.660  18.534  0.00  0.00    +0.000 F 
ENDBRANCH  21  23
ENDBRANCH   2  18
TORSDOF 4
ENDMDL
MODEL 2
REMARK VINA RESULT:      -8.9      0.908      1.117
REMARK  Name = 
REMARK  4 active torsions:
REMARK  status: ('A' for Active; 'I' for Inactive)
REMARK    1  A    between atoms: C_4  and  C_5
REMARK    2  A    between atoms: C_9  and  N_10
REMARK    3  A    between atoms: C_11  and  C_13
REMARK    4  A    between atoms: N_16  and  C_17
REMARK                            x       y       z     vdW  Elec       q    Type
REMARK                         _______ _______ _______ _____ _____    ______ ____
ROOT
ATOM      1  N   UNL     1       2.263   6.979  18.939  0.00  0.00    +0.000 N 
ATOM      2  C   UNL     1       1.791   7.004  20.245  0.00  0.00    +0.000 C 
ATOM      3  O   UNL     1       1.834   6.074  21.052  0.00  0.00    +0.000 OA
ATOM      4  H   UNL     1       2.276   7.886  18.478  0.00  0.00    +0.000 HD
ENDROOT
BRANCH   1   9
ATOM      5  C   UNL     1       4.993   4.736  17.755  0.00  0.00    +0.000 A 
ATOM      6  C   UNL     1       4.244   3.640  17.300  0.00  0.00    +0.000 A 
ATOM      7  C   UNL     1       2.853   3.681  17.315  0.00  0.00    +0.000 A 
ATOM      8  C   UNL     1       2.192   4.799  17.816  0.00  0.00    +0.000 A 
ATOM      9  C   UNL     1       2.903   5.883  18.326  0.00  0.00    +0.000 A 
ATOM     10  C   UNL     1       4.301   5.866  18.247  0.00  0.00    +0.000 A 
BRANCH   5  14
ATOM     11  O   UNL     1       7.658   7.958  17.180  0.00  0.00    +0.000 OA
ATOM     12  C   UNL     1       7.439   6.760  17.162  0.00  0.00    +0.000 C 
ATOM     13  C   UNL     1       7.199   5.868  18.353  0.00  0.00    +0.000 C 
ATOM     14  C   UNL     1       6.515   4.641  17.728  0.00  0.00    +0.000 C 
ATOM     15  C   UNL     1       7.089   4.609  16.311  0.00  0.00    +0.000 C 
ATOM     16  N   UNL     1       7.383   5.982  16.024  0.00  0.00    +0.000 N 
ATOM     17  H   UNL     1       7.522   6.383  15.105  0.00  0.00    +0.000 HD
ENDBRANCH   5  14
ENDBRANCH   1   9
BRANCH   2  18
ATOM     18  C   UNL     1       1.273   8.311  20.664  0.00  0.00    +0.000 A 
ATOM     19  C   UNL     1       0.881   8.667  21.975  0.00  0.00    +0.000 A 
ATOM     20  C   UNL     1       0.603  10.007  21.916  0.00  0.00    +0.000 A 
ATOM     21  N   UNL     1       0.793  10.404  20.613  0.00  0.00    +0.000 N 
ATOM     22  N   UNL     1       1.156   9.354  19.822  0.00  0.00    +0.000 NA
BRANCH  21  23
ATOM     23  C   UNL     1       0.647  11.697  20.052  0.00  0.00    +0.000 A 
ATOM     24  C   UNL     1       1.628  12.672  20.311  0.00  0.00    +0.000 A 
ATOM     25  C   UNL     1       1.538  13.929  19.712  0.00  0.00    +0.000 A 
ATOM     26  C   UNL     1       0.465  14.217  18.876  0.00  0.00    +0.000 A 
ATOM     27  F   UNL     1       0.392  15.416  18.292  0.00  0.00    +0.000 F 
ATOM     28  C   UNL     1      -0.530  13.279  18.641  0.00  0.00    +0.000 A 
ATOM     29  C   UNL     1      -0.437  12.026  19.230  0.00  0.00    +0.000 A 
ATOM     30  F   UNL     1      -1.430  11.162  18.978  0.00  0.00    +0.000 F 
ENDBRANCH  21  23
ENDBRANCH   2  18
TORSDOF 4
ENDMDL
MODEL 3
REMARK VINA RESULT:      -8.8      1.907      2.285
REMARK  Name = 
REMARK  4 active torsions:
REMARK  status: ('A' for Active; 'I' for Inactive)
REMARK    1  A    between atoms: C_4  and  C_5
REMARK    2  A    between atoms: C_9  and  N_10
REMARK    3  A    between atoms: C_11  and  C_13
REMARK    4  A    between atoms: N_16  and  C_17
REMARK                            x       y       z     vdW  Elec       q    Type
REMARK                         _______ _______ _______ _____ _____    ______ ____
ROOT
ATOM      1  N   UNL     1       2.383   6.697  19.619  0.00  0.00    +0.000 N 
ATOM      2  C   UNL     1       1.966   7.967  19.240  0.00  0.00    +0.000 C 
ATOM      3  O   UNL     1       2.084   8.466  18.120  0.00  0.00    +0.000 OA
ATOM      4  H   UNL     1       2.064   6.407  20.542  0.00  0.00    +0.000 HD
ENDROOT
BRANCH   1   9
ATOM      5  C   UNL     1       5.037   4.739  17.884  0.00  0.00    +0.000 A 
ATOM      6  C   UNL     1       4.257   3.763  17.244  0.00  0.00    +0.000 A 
ATOM      7  C   UNL     1       2.869   3.805  17.325  0.00  0.00    +0.000 A 
ATOM      8  C   UNL     1       2.242   4.797  18.073  0.00  0.00    +0.000 A 
ATOM      9  C   UNL     1       2.985   5.750  18.767  0.00  0.00    +0.000 A 
ATOM     10  C   UNL     1       4.378   5.744  18.628  0.00  0.00    +0.000 A 
BRANCH   5  14
ATOM     11  O   UNL     1       7.664   7.969  17.195  0.00  0.00    +0.000 OA
ATOM     12  C   UNL     1       7.446   6.771  17.179  0.00  0.00    +0.000 C 
ATOM     13  C   UNL     1       7.271   5.869  18.374  0.00  0.00    +0.000 C 
ATOM     14  C   UNL     1       6.555   4.647  17.776  0.00  0.00    +0.000 C 
ATOM     15  C   UNL     1       7.053   4.627  16.329  0.00  0.00    +0.000 C 
ATOM     16  N   UNL     1       7.329   6.003  16.038  0.00  0.00    +0.000 N 
ATOM     17  H   UNL     1       7.418   6.412  15.117  0.00  0.00    +0.000 HD
ENDBRANCH   5  14
ENDBRANCH   1   9
BRANCH   2  18
ATOM     18  C   UNL     1       1.264   8.701  20.297  0.00  0.00    +0.000 A 
ATOM     19  C   UNL     1       1.383   8.472  21.687  0.00  0.00    +0.000 A 
ATOM     20  C   UNL     1       0.660   9.474  22.280  0.00  0.00    +0.000 A 
ATOM     21  N   UNL     1       0.115  10.233  21.271  0.00  0.00    +0.000 N 
ATOM     22  N   UNL     1       0.439   9.734  20.043  0.00  0.00    +0.000 NA
BRANCH  21  23
ATOM     23  C   UNL     1      -0.699  11.389  21.374  0.00  0.00    +0.000 A 
ATOM     24  C   UNL     1      -0.669  12.343  20.340  0.00  0.00    +0.000 A 
ATOM     25  C   UNL     1      -1.513  13.453  20.390  0.00  0.00    +0.000 A 
ATOM     26  C   UNL     1      -2.368  13.619  21.474  0.00  0.00    +0.000 A 
ATOM     27  F   UNL     1      -3.185  14.674  21.509  0.00  0.00    +0.000 F 
ATOM     28  C   UNL     1      -2.381  12.706  22.519  0.00  0.00    +0.000 A 
ATOM     29  C   UNL     1      -1.547  11.598  22.466  0.00  0.00    +0.000 A 
ATOM     30  F   UNL     1      -1.593  10.754  23.507  0.00  0.00    +0.000 F 
ENDBRANCH  21  23
ENDBRANCH   2  18
TORSDOF 4
ENDMDL
MODEL 4
REMARK VINA RESULT:      -8.8      1.847      2.249
REMARK  Name = 
REMARK  4 active torsions:
REMARK  status: ('A' for Active; 'I' for Inactive)
REMARK    1  A    between atoms: C_4  and  C_5
REMARK    2  A    between atoms: C_9  and  N_10
REMARK    3  A    between atoms: C_11  and  C_13
REMARK    4  A    between atoms: N_16  and  C_17
REMARK                            x       y       z     vdW  Elec       q    Type
REMARK                         _______ _______ _______ _____ _____    ______ ____
ROOT
ATOM      1  N   UNL     1       2.274   7.333  18.286  0.00  0.00    +0.000 N 
ATOM      2  C   UNL     1       1.837   7.754  19.535  0.00  0.00    +0.000 C 
ATOM      3  O   UNL     1       1.896   7.108  20.583  0.00  0.00    +0.000 OA
ATOM      4  H   UNL     1       2.281   8.061  17.574  0.00  0.00    +0.000 HD
ENDROOT
BRANCH   1   9
ATOM      5  C   UNL     1       4.960   4.799  17.781  0.00  0.00    +0.000 A 
ATOM      6  C   UNL     1       4.191   3.629  17.678  0.00  0.00    +0.000 A 
ATOM      7  C   UNL     1       2.801   3.695  17.697  0.00  0.00    +0.000 A 
ATOM      8  C   UNL     1       2.161   4.921  17.854  0.00  0.00    +0.000 A 
ATOM      9  C   UNL     1       2.893   6.096  18.015  0.00  0.00    +0.000 A 
ATOM     10  C   UNL     1       4.288   6.034  17.928  0.00  0.00    +0.000 A 
BRANCH   5  14
ATOM     11  O   UNL     1       7.686   7.969  17.207  0.00  0.00    +0.000 OA
ATOM     12  C   UNL     1       7.446   6.775  17.194  0.00  0.00    +0.000 C 
ATOM     13  C   UNL     1       7.182   5.894  18.389  0.00  0.00    +0.000 C 
ATOM     14  C   UNL     1       6.480   4.676  17.767  0.00  0.00    +0.000 C 
ATOM     15  C   UNL     1       7.063   4.625  16.353  0.00  0.00    +0.000 C 
ATOM     16  N   UNL     1       7.383   5.991  16.060  0.00  0.00    +0.000 N 
ATOM     17  H   UNL     1       7.536   6.384  15.140  0.00  0.00    +0.000 HD
ENDBRANCH   5  14
ENDBRANCH   1   9
BRANCH   2  18
ATOM     18  C   UNL     1       1.338   9.133  19.555  0.00  0.00    +0.000 A 
ATOM     19  C   UNL     1       1.116   9.952  18.424  0.00  0.00    +0.000 A 
ATOM     20  C   UNL     1       0.524  11.088  18.913  0.00  0.00    +0.000 A 
ATOM     21  N   UNL     1       0.440  10.946  20.279  0.00  0.00    +0.000 N 
ATOM     22  N   UNL     1       0.987   9.766  20.690  0.00  0.00    +0.000 NA
BRANCH  21  23
ATOM     23  C   UNL     1      -0.107  11.843  21.229  0.00  0.00    +0.000 A 
ATOM     24  C   UNL     1      -1.126  11.394  22.090  0.00  0.00    +0.000 A 
ATOM     25  C   UNL     1      -1.629  12.241  23.078  0.00  0.00    +0.000 A 
ATOM     26  C   UNL     1      -1.132  13.535  23.193  0.00  0.00    +0.000 A 
ATOM     27  F   UNL     1      -1.605  14.336  24.151  0.00  0.00    +0.000 F 
ATOM     28  C   UNL     1      -0.155  14.004  22.327  0.00  0.00    +0.000 A 
ATOM     29  C   UNL     1       0.352  13.159  21.350  0.00  0.00    +0.000 A 
ATOM     30  F   UNL     1       1.287  13.667  20.535  0.00  0.00    +0.000 F 
ENDBRANCH  21  23
ENDBRANCH   2  18
TORSDOF 4
ENDMDL
MODEL 5
REMARK VINA RESULT:      -8.7      1.775      1.873
REMARK  Name = 
REMARK  4 active torsions:
REMARK  status: ('A' for Active; 'I' for Inactive)
REMARK    1  A    between atoms: C_4  and  C_5
REMARK    2  A    between atoms: C_9  and  N_10
REMARK    3  A    between atoms: C_11  and  C_13
REMARK    4  A    between atoms: N_16  and  C_17
REMARK                            x       y       z     vdW  Elec       q    Type
REMARK                         _______ _______ _______ _____ _____    ______ ____
ROOT
ATOM      1  N   UNL     1       2.313   6.641  19.508  0.00  0.00    +0.000 N 
ATOM      2  C   UNL     1       2.066   7.960  19.149  0.00  0.00    +0.000 C 
ATOM      3  O   UNL     1       2.394   8.499  18.090  0.00  0.00    +0.000 OA
ATOM      4  H   UNL     1       1.835   6.338  20.355  0.00  0.00    +0.000 HD
ENDROOT
BRANCH   1   9
ATOM      5  C   UNL     1       5.053   4.697  17.895  0.00  0.00    +0.000 A 
ATOM      6  C   UNL     1       4.312   3.684  17.267  0.00  0.00    +0.000 A 
ATOM      7  C   UNL     1       2.921   3.695  17.315  0.00  0.00    +0.000 A 
ATOM      8  C   UNL     1       2.254   4.694  18.017  0.00  0.00    +0.000 A 
ATOM      9  C   UNL     1       2.958   5.684  18.699  0.00  0.00    +0.000 A 
ATOM     10  C   UNL     1       4.353   5.708  18.593  0.00  0.00    +0.000 A 
BRANCH   5  14
ATOM     11  O   UNL     1       7.621   7.972  17.195  0.00  0.00    +0.000 OA
ATOM     12  C   UNL     1       7.431   6.769  17.201  0.00  0.00    +0.000 C 
ATOM     13  C   UNL     1       7.248   5.890  18.411  0.00  0.00    +0.000 C 
ATOM     14  C   UNL     1       6.575   4.638  17.825  0.00  0.00    +0.000 C 
ATOM     15  C   UNL     1       7.108   4.598  16.391  0.00  0.00    +0.000 C 
ATOM     16  N   UNL     1       7.360   5.973  16.076  0.00  0.00    +0.000 N 
ATOM     17  H   UNL     1       7.462   6.363  15.147  0.00  0.00    +0.000 HD
ENDBRANCH   5  14
ENDBRANCH   1   9
BRANCH   2  18
ATOM     18  C   UNL     1       1.274   8.705  20.133  0.00  0.00    +0.000 A 
ATOM     19  C   UNL     1       1.209   8.438  21.520  0.00  0.00    +0.000 A 
ATOM     20  C   UNL     1       0.467   9.462  22.048  0.00  0.00    +0.000 A 
ATOM     21  N   UNL     1       0.089  10.271  21.003  0.00  0.00    +0.000 N 
ATOM     22  N   UNL     1       0.538   9.784  19.810  0.00  0.00    +0.000 NA
BRANCH  21  23
ATOM     23  C   UNL     1      -0.675  11.465  21.039  0.00  0.00    +0.000 A 
ATOM     24  C   UNL     1      -0.445  12.395  22.069  0.00  0.00    +0.000 A 
ATOM     25  C   UNL     1      -1.138  13.606  22.082  0.00  0.00    +0.000 A 
ATOM     26  C   UNL     1      -2.068  13.878  21.085  0.00  0.00    +0.000 A 
ATOM     27  F   UNL     1      -2.716  15.046  21.094  0.00  0.00    +0.000 F 
ATOM     28  C   UNL     1      -2.333  12.954  20.085  0.00  0.00    +0.000 A 
ATOM     29  C   UNL     1      -1.638  11.753  20.066  0.00  0.00    +0.000 A 
ATOM     30  F   UNL     1      -1.941  10.893  19.084  0.00  0.00    +0.000 F 
ENDBRANCH  21  23
ENDBRANCH   2  18
TORSDOF 4
ENDMDL
MODEL 6
REMARK VINA RESULT:      -8.7      3.167      4.490
REMARK  Name = 
REMARK  4 active torsions:
REMARK  status: ('A' for Active; 'I' for Inactive)
REMARK    1  A    between atoms: C_4  and  C_5
REMARK    2  A    between atoms: C_9  and  N_10
REMARK    3  A    between atoms: C_11  and  C_13
REMARK    4  A    between atoms: N_16  and  C_17
REMARK                            x       y       z     vdW  Elec       q    Type
REMARK                         _______ _______ _______ _____ _____    ______ ____
ROOT
ATOM      1  N   UNL     1       1.697   8.211  18.088  0.00  0.00    +0.000 N 
ATOM      2  C   UNL     1       1.340   8.885  19.249  0.00  0.00    +0.000 C 
ATOM      3  O   UNL     1       1.740   8.635  20.387  0.00  0.00    +0.000 OA
ATOM      4  H   UNL     1       1.383   8.657  17.228  0.00  0.00    +0.000 HD
ENDROOT
BRANCH   1   9
ATOM      5  C   UNL     1       3.026   4.733  18.228  0.00  0.00    +0.000 A 
ATOM      6  C   UNL     1       4.315   4.931  17.707  0.00  0.00    +0.000 A 
ATOM      7  C   UNL     1       4.758   6.211  17.391  0.00  0.00    +0.000 A 
ATOM      8  C   UNL     1       3.913   7.304  17.555  0.00  0.00    +0.000 A 
ATOM      9  C   UNL     1       2.609   7.139  18.017  0.00  0.00    +0.000 A 
ATOM     10  C   UNL     1       2.190   5.859  18.397  0.00  0.00    +0.000 A 
BRANCH   5  14
ATOM     11  O   UNL     1       2.215   3.213  22.080  0.00  0.00    +0.000 OA
ATOM     12  C   UNL     1       2.488   3.016  20.910  0.00  0.00    +0.000 C 
ATOM     13  C   UNL     1       1.588   3.248  19.722  0.00  0.00    +0.000 C 
ATOM     14  C   UNL     1       2.580   3.310  18.550  0.00  0.00    +0.000 C 
ATOM     15  C   UNL     1       3.728   2.414  19.020  0.00  0.00    +0.000 C 
ATOM     16  N   UNL     1       3.690   2.522  20.448  0.00  0.00    +0.000 N 
ATOM     17  H   UNL     1       4.444   2.291  21.084  0.00  0.00    +0.000 HD
ENDBRANCH   5  14
ENDBRANCH   1   9
BRANCH   2  18
ATOM     18  C   UNL     1       0.462  10.037  19.021  0.00  0.00    +0.000 A 
ATOM     19  C   UNL     1       0.866  11.390  18.960  0.00  0.00    +0.000 A 
ATOM     20  C   UNL     1      -0.257  12.085  18.595  0.00  0.00    +0.000 A 
ATOM     21  N   UNL     1      -1.281  11.173  18.483  0.00  0.00    +0.000 N 
ATOM     22  N   UNL     1      -0.859   9.914  18.795  0.00  0.00    +0.000 NA
BRANCH  21  23
ATOM     23  C   UNL     1      -2.631  11.398  18.116  0.00  0.00    +0.000 A 
ATOM     24  C   UNL     1      -3.531  11.887  19.080  0.00  0.00    +0.000 A 
ATOM     25  C   UNL     1      -4.847  12.180  18.720  0.00  0.00    +0.000 A 
ATOM     26  C   UNL     1      -5.266  11.968  17.411  0.00  0.00    +0.000 A 
ATOM     27  F   UNL     1      -6.522  12.265  17.069  0.00  0.00    +0.000 F 
ATOM     28  C   UNL     1      -4.400  11.450  16.459  0.00  0.00    +0.000 A 
ATOM     29  C   UNL     1      -3.089  11.166  16.814  0.00  0.00    +0.000 A 
ATOM     30  F   UNL     1      -2.298  10.660  15.858  0.00  0.00    +0.000 F 
ENDBRANCH  21  23
ENDBRANCH   2  18
TORSDOF 4
ENDMDL
MODEL 7
REMARK VINA RESULT:      -8.7      2.014      2.489
REMARK  Name = 
REMARK  4 active torsions:
REMARK  status: ('A' for Active; 'I' for Inactive)
REMARK    1  A    between atoms: C_4  and  C_5
REMARK    2  A    between atoms: C_9  and  N_10
REMARK    3  A    between atoms: C_11  and  C_13
REMARK    4  A    between atoms: N_16  and  C_17
REMARK                            x       y       z     vdW  Elec       q    Type
REMARK                         _______ _______ _______ _____ _____    ______ ____
ROOT
ATOM      1  N   UNL     1       2.330   7.259  18.303  0.00  0.00    +0.000 N 
ATOM      2  C   UNL     1       1.872   7.659  19.552  0.00  0.00    +0.000 C 
ATOM      3  O   UNL     1       1.911   6.994  20.589  0.00  0.00    +0.000 OA
ATOM      4  H   UNL     1       2.349   7.999  17.605  0.00  0.00    +0.000 HD
ENDROOT
BRANCH   1   9
ATOM      5  C   UNL     1       5.022   4.742  17.753  0.00  0.00    +0.000 A 
ATOM      6  C   UNL     1       4.258   3.568  17.661  0.00  0.00    +0.000 A 
ATOM      7  C   UNL     1       2.869   3.625  17.701  0.00  0.00    +0.000 A 
ATOM      8  C   UNL     1       2.224   4.847  17.870  0.00  0.00    +0.000 A 
ATOM      9  C   UNL     1       2.951   6.026  18.021  0.00  0.00    +0.000 A 
ATOM     10  C   UNL     1       4.346   5.972  17.912  0.00  0.00    +0.000 A 
BRANCH   5  14
ATOM     11  O   UNL     1       7.723   7.940  17.216  0.00  0.00    +0.000 OA
ATOM     12  C   UNL     1       7.488   6.745  17.178  0.00  0.00    +0.000 C 
ATOM     13  C   UNL     1       7.246   5.835  18.356  0.00  0.00    +0.000 C 
ATOM     14  C   UNL     1       6.542   4.628  17.714  0.00  0.00    +0.000 C 
ATOM     15  C   UNL     1       7.106   4.614  16.292  0.00  0.00    +0.000 C 
ATOM     16  N   UNL     1       7.414   5.988  16.027  0.00  0.00    +0.000 N 
ATOM     17  H   UNL     1       7.552   6.403  15.114  0.00  0.00    +0.000 HD
ENDBRANCH   5  14
ENDBRANCH   1   9
BRANCH   2  18
ATOM     18  C   UNL     1       1.374   9.038  19.588  0.00  0.00    +0.000 A 
ATOM     19  C   UNL     1       1.136   9.865  18.466  0.00  0.00    +0.000 A 
ATOM     20  C   UNL     1       0.553  10.997  18.970  0.00  0.00    +0.000 A 
ATOM     21  N   UNL     1       0.488  10.847  20.336  0.00  0.00    +0.000 N 
ATOM     22  N   UNL     1       1.039   9.664  20.732  0.00  0.00    +0.000 NA
BRANCH  21  23
ATOM     23  C   UNL     1      -0.045  11.738  21.300  0.00  0.00    +0.000 A 
ATOM     24  C   UNL     1       0.234  13.113  21.190  0.00  0.00    +0.000 A 
ATOM     25  C   UNL     1      -0.337  14.015  22.090  0.00  0.00    +0.000 A 
ATOM     26  C   UNL     1      -1.164  13.544  23.103  0.00  0.00    +0.000 A 
ATOM     27  F   UNL     1      -1.721  14.413  23.951  0.00  0.00    +0.000 F 
ATOM     28  C   UNL     1      -1.417  12.188  23.247  0.00  0.00    +0.000 A 
ATOM     29  C   UNL     1      -0.857  11.292  22.348  0.00  0.00    +0.000 A 
ATOM     30  F   UNL     1      -1.126   9.993  22.539  0.00  0.00    +0.000 F 
ENDBRANCH  21  23
ENDBRANCH   2  18
TORSDOF 4
ENDMDL
MODEL 8
REMARK VINA RESULT:      -8.7      3.946      8.961
REMARK  Name = 
REMARK  4 active torsions:
REMARK  status: ('A' for Active; 'I' for Inactive)
REMARK    1  A    between atoms: C_4  and  C_5
REMARK    2  A    between atoms: C_9  and  N_10
REMARK    3  A    between atoms: C_11  and  C_13
REMARK    4  A    between atoms: N_16  and  C_17
REMARK                            x       y       z     vdW  Elec       q    Type
REMARK                         _______ _______ _______ _____ _____    ______ ____
ROOT
ATOM      1  N   UNL     1       1.564   8.803  18.427  0.00  0.00    +0.000 N 
ATOM      2  C   UNL     1       1.816   7.960  19.501  0.00  0.00    +0.000 C 
ATOM      3  O   UNL     1       1.281   8.015  20.610  0.00  0.00    +0.000 OA
ATOM      4  H   UNL     1       1.991   8.508  17.551  0.00  0.00    +0.000 HD
ENDROOT
BRANCH   1   9
ATOM      5  C   UNL     1      -1.685  10.585  18.033  0.00  0.00    +0.000 A 
ATOM      6  C   UNL     1      -1.352  11.842  18.563  0.00  0.00    +0.000 A 
ATOM      7  C   UNL     1      -0.050  12.113  18.970  0.00  0.00    +0.000 A 
ATOM      8  C   UNL     1       0.928  11.127  18.888  0.00  0.00    +0.000 A 
ATOM      9  C   UNL     1       0.622   9.852  18.418  0.00  0.00    +0.000 A 
ATOM     10  C   UNL     1      -0.672   9.603  17.947  0.00  0.00    +0.000 A 
BRANCH   5  14
ATOM     11  O   UNL     1      -3.103  10.435  14.061  0.00  0.00    +0.000 OA
ATOM     12  C   UNL     1      -3.324  10.573  15.251  0.00  0.00    +0.000 C 
ATOM     13  C   UNL     1      -3.232   9.509  16.315  0.00  0.00    +0.000 C 
ATOM     14  C   UNL     1      -3.127  10.330  17.610  0.00  0.00    +0.000 C 
ATOM     15  C   UNL     1      -3.888  11.613  17.269  0.00  0.00    +0.000 C 
ATOM     16  N   UNL     1      -3.721  11.749  15.852  0.00  0.00    +0.000 N 
ATOM     17  H   UNL     1      -3.850  12.598  15.315  0.00  0.00    +0.000 HD
ENDBRANCH   5  14
ENDBRANCH   1   9
BRANCH   2  18
ATOM     18  C   UNL     1       2.761   6.880  19.200  0.00  0.00    +0.000 A 
ATOM     19  C   UNL     1       2.895   5.669  19.918  0.00  0.00    +0.000 A 
ATOM     20  C   UNL     1       3.791   4.922  19.200  0.00  0.00    +0.000 A 
ATOM     21  N   UNL     1       4.187   5.685  18.126  0.00  0.00    +0.000 N 
ATOM     22  N   UNL     1       3.597   6.914  18.146  0.00  0.00    +0.000 NA
BRANCH  21  23
ATOM     23  C   UNL     1       5.089   5.348  17.086  0.00  0.00    +0.000 A 
ATOM     24  C   UNL     1       4.707   4.390  16.130  0.00  0.00    +0.000 A 
ATOM     25  C   UNL     1       5.553   4.095  15.060  0.00  0.00    +0.000 A 
ATOM     26  C   UNL     1       6.781   4.739  14.957  0.00  0.00    +0.000 A 
ATOM     27  F   UNL     1       7.580   4.466  13.922  0.00  0.00    +0.000 F 
ATOM     28  C   UNL     1       7.188   5.658  15.913  0.00  0.00    +0.000 A 
ATOM     29  C   UNL     1       6.344   5.957  16.973  0.00  0.00    +0.000 A 
ATOM     30  F   UNL     1       6.791   6.844  17.873  0.00  0.00    +0.000 F 
ENDBRANCH  21  23
ENDBRANCH   2  18
TORSDOF 4
ENDMDL
MODEL 9
REMARK VINA RESULT:      -8.7      1.788      2.370
REMARK  Name = 
REMARK  4 active torsions:
REMARK  status: ('A' for Active; 'I' for Inactive)
REMARK    1  A    between atoms: C_4  and  C_5
REMARK    2  A    between atoms: C_9  and  N_10
REMARK    3  A    between atoms: C_11  and  C_13
REMARK    4  A    between atoms: N_16  and  C_17
REMARK                            x       y       z     vdW  Elec       q    Type
REMARK                         _______ _______ _______ _____ _____    ______ ____
ROOT
ATOM      1  N   UNL     1       2.215   7.353  18.265  0.00  0.00    +0.000 N 
ATOM      2  C   UNL     1       1.811   7.812  19.512  0.00  0.00    +0.000 C 
ATOM      3  O   UNL     1       1.921   7.208  20.581  0.00  0.00    +0.000 OA
ATOM      4  H   UNL     1       2.180   8.053  17.527  0.00  0.00    +0.000 HD
ENDROOT
BRANCH   1   9
ATOM      5  C   UNL     1       4.938   4.839  17.870  0.00  0.00    +0.000 A 
ATOM      6  C   UNL     1       4.182   3.664  17.736  0.00  0.00    +0.000 A 
ATOM      7  C   UNL     1       2.793   3.719  17.698  0.00  0.00    +0.000 A 
ATOM      8  C   UNL     1       2.138   4.940  17.829  0.00  0.00    +0.000 A 
ATOM      9  C   UNL     1       2.853   6.120  18.019  0.00  0.00    +0.000 A 
ATOM     10  C   UNL     1       4.252   6.069  17.989  0.00  0.00    +0.000 A 
BRANCH   5  14
ATOM     11  O   UNL     1       7.665   7.985  17.182  0.00  0.00    +0.000 OA
ATOM     12  C   UNL     1       7.432   6.791  17.240  0.00  0.00    +0.000 C 
ATOM     13  C   UNL     1       7.130   5.990  18.481  0.00  0.00    +0.000 C 
ATOM     14  C   UNL     1       6.458   4.728  17.917  0.00  0.00    +0.000 C 
ATOM     15  C   UNL     1       7.091   4.587  16.531  0.00  0.00    +0.000 C 
ATOM     16  N   UNL     1       7.414   5.933  16.159  0.00  0.00    +0.000 N 
ATOM     17  H   UNL     1       7.597   6.265  15.221  0.00  0.00    +0.000 HD
ENDBRANCH   5  14
ENDBRANCH   1   9
BRANCH   2  18
ATOM     18  C   UNL     1       1.280   9.179  19.498  0.00  0.00    +0.000 A 
ATOM     19  C   UNL     1       1.471  10.134  18.472  0.00  0.00    +0.000 A 
ATOM     20  C   UNL     1       0.687  11.201  18.823  0.00  0.00    +0.000 A 
ATOM     21  N   UNL     1       0.092  10.891  20.024  0.00  0.00    +0.000 N 
ATOM     22  N   UNL     1       0.493   9.667  20.474  0.00  0.00    +0.000 NA
BRANCH  21  23
ATOM     23  C   UNL     1      -0.817  11.664  20.787  0.00  0.00    +0.000 A 
ATOM     24  C   UNL     1      -0.509  11.959  22.128  0.00  0.00    +0.000 A 
ATOM     25  C   UNL     1      -1.358  12.777  22.875  0.00  0.00    +0.000 A 
ATOM     26  C   UNL     1      -2.517  13.279  22.294  0.00  0.00    +0.000 A 
ATOM     27  F   UNL     1      -3.318  14.074  23.009  0.00  0.00    +0.000 F 
ATOM     28  C   UNL     1      -2.853  12.965  20.985  0.00  0.00    +0.000 A 
ATOM     29  C   UNL     1      -2.005  12.159  20.239  0.00  0.00    +0.000 A 
ATOM     30  F   UNL     1      -2.383  11.879  18.984  0.00  0.00    +0.000 F 
ENDBRANCH  21  23
ENDBRANCH   2  18
TORSDOF 4
ENDMDL
