MODEL 1
REMARK VINA RESULT:      -8.5      0.000      0.000
REMARK  Name = 
REMARK  4 active torsions:
REMARK  status: ('A' for Active; 'I' for Inactive)
REMARK    1  A    between atoms: C_2  and  C_14
REMARK    2  A    between atoms: N_3  and  C_4
REMARK    3  A    between atoms: C_12  and  O_13
REMARK    4  A    between atoms: C_18  and  C_19
REMARK                            x       y       z     vdW  Elec       q    Type
REMARK                         _______ _______ _______ _____ _____    ______ ____
ROOT
ATOM      1  O   UNL     1       2.986   7.636  18.798  0.00  0.00    +0.000 OA
ATOM      2  C   UNL     1       2.272   7.123  19.657  0.00  0.00    +0.000 C 
ATOM      3  N   UNL     1       1.506   7.870  20.521  0.00  0.00    +0.000 N 
ATOM      4  H   UNL     1       0.984   7.387  21.242  0.00  0.00    +0.000 HD
ENDROOT
BRANCH   3   5
ATOM      5  C   UNL     1       1.510   9.313  20.413  0.00  0.00    +0.000 C 
ATOM      6  C   UNL     1       0.447   9.978  21.243  0.00  0.00    +0.000 A 
ATOM      7  C   UNL     1       0.115   9.738  22.569  0.00  0.00    +0.000 A 
ATOM      8  C   UNL     1      -0.885  10.517  23.157  0.00  0.00    +0.000 A 
ATOM      9  C   UNL     1      -1.533  11.524  22.425  0.00  0.00    +0.000 A 
ATOM     10  C   UNL     1      -1.170  11.786  21.104  0.00  0.00    +0.000 A 
ATOM     11  C   UNL     1      -0.172  11.014  20.531  0.00  0.00    +0.000 A 
ATOM     12  C   UNL     1       0.453  11.197  19.178  0.00  0.00    +0.000 C 
ATOM     13  C   UNL     1       1.165   9.847  18.980  0.00  0.00    +0.000 C 
BRANCH  13  14
ATOM     14  O   UNL     1       0.285   8.961  18.262  0.00  0.00    +0.000 OA
ATOM     15  H   UNL     1       0.796   8.159  18.058  0.00  0.00    +0.000 HD
ENDBRANCH  13  14
ENDBRANCH   3   5
BRANCH   2  16
ATOM     16  C   UNL     1       2.179   5.683  19.847  0.00  0.00    +0.000 A 
ATOM     17  N   UNL     1       1.160   5.050  20.548  0.00  0.00    +0.000 NA
ATOM     18  C   UNL     1       1.542   3.792  20.562  0.00  0.00    +0.000 A 
ATOM     19  O   UNL     1       2.689   3.522  19.884  0.00  0.00    +0.000 OA
ATOM     20  C   UNL     1       3.088   4.740  19.397  0.00  0.00    +0.000 A 
BRANCH  20  21
ATOM     21  C   UNL     1       4.255   4.743  18.531  0.00  0.00    +0.000 A 
ATOM     22  C   UNL     1       5.548   4.907  19.054  0.00  0.00    +0.000 A 
ATOM     23  C   UNL     1       6.663   4.907  18.210  0.00  0.00    +0.000 A 
ATOM     24  C   UNL     1       6.498   4.735  16.838  0.00  0.00    +0.000 A 
ATOM     25  C   UNL     1       5.220   4.536  16.312  0.00  0.00    +0.000 A 
ATOM     26  C   UNL     1       4.107   4.556  17.149  0.00  0.00    +0.000 A 
ATOM     27  O   UNL     1       4.979   4.317  14.979  0.00  0.00    +0.000 OA
ATOM     28  C   UNL     1       6.177   3.947  14.293  0.00  0.00    +0.000 C 
ATOM     29  C   UNL     1       7.315   4.880  14.674  0.00  0.00    +0.000 C 
ATOM     30  O   UNL     1       7.632   4.756  16.067  0.00  0.00    +0.000 OA
ENDBRANCH  20  21
ENDBRANCH   2  16
TORSDOF 4
ENDMDL
MODEL 2
REMARK VINA RESULT:      -8.3      1.449      1.826
REMARK  Name = 
REMARK  4 active torsions:
REMARK  status: ('A' for Active; 'I' for Inactive)
REMARK    1  A    between atoms: C_2  and  C_14
REMARK    2  A    between atoms: N_3  and  C_4
REMARK    3  A    between atoms: C_12  and  O_13
REMARK    4  A    between atoms: C_18  and  C_19
REMARK                            x       y       z     vdW  Elec       q    Type
REMARK                         _______ _______ _______ _____ _____    ______ ____
ROOT
ATOM      1  O   UNL     1       3.874   6.362  19.696  0.00  0.00    +0.000 OA
ATOM      2  C   UNL     1       2.904   6.127  18.979  0.00  0.00    +0.000 C 
ATOM      3  N   UNL     1       1.996   7.098  18.624  0.00  0.00    +0.000 N 
ATOM      4  H   UNL     1       1.188   6.825  18.077  0.00  0.00    +0.000 HD
ENDROOT
BRANCH   3   5
ATOM      5  C   UNL     1       2.189   8.457  19.083  0.00  0.00    +0.000 C 
ATOM      6  C   UNL     1       1.251   8.853  20.189  0.00  0.00    +0.000 A 
ATOM      7  C   UNL     1       0.931   8.149  21.340  0.00  0.00    +0.000 A 
ATOM      8  C   UNL     1       0.063   8.738  22.263  0.00  0.00    +0.000 A 
ATOM      9  C   UNL     1      -0.468  10.017  22.032  0.00  0.00    +0.000 A 
ATOM     10  C   UNL     1      -0.114  10.737  20.891  0.00  0.00    +0.000 A 
ATOM     11  C   UNL     1       0.754  10.147  19.985  0.00  0.00    +0.000 A 
ATOM     12  C   UNL     1       1.356  10.778  18.763  0.00  0.00    +0.000 C 
ATOM     13  C   UNL     1       1.875   9.546  18.001  0.00  0.00    +0.000 C 
BRANCH  13  14
ATOM     14  O   UNL     1       0.863   9.118  17.070  0.00  0.00    +0.000 OA
ATOM     15  H   UNL     1       0.161   9.791  17.086  0.00  0.00    +0.000 HD
ENDBRANCH  13  14
ENDBRANCH   3   5
BRANCH   2  16
ATOM     16  C   UNL     1       2.619   4.802  18.449  0.00  0.00    +0.000 A 
ATOM     17  N   UNL     1       1.515   4.037  18.803  0.00  0.00    +0.000 NA
ATOM     18  C   UNL     1       1.728   2.896  18.186  0.00  0.00    +0.000 A 
ATOM     19  O   UNL     1       2.840   2.853  17.406  0.00  0.00    +0.000 OA
ATOM     20  C   UNL     1       3.404   4.094  17.553  0.00  0.00    +0.000 A 
BRANCH  20  21
ATOM     21  C   UNL     1       4.577   4.377  16.741  0.00  0.00    +0.000 A 
ATOM     22  C   UNL     1       5.740   4.921  17.308  0.00  0.00    +0.000 A 
ATOM     23  C   UNL     1       6.861   5.188  16.517  0.00  0.00    +0.000 A 
ATOM     24  C   UNL     1       6.834   4.904  15.153  0.00  0.00    +0.000 A 
ATOM     25  C   UNL     1       5.694   4.330  14.586  0.00  0.00    +0.000 A 
ATOM     26  C   UNL     1       4.570   4.083  15.369  0.00  0.00    +0.000 A 
ATOM     27  O   UNL     1       5.605   3.983  13.262  0.00  0.00    +0.000 OA
ATOM     28  C   UNL     1       6.898   3.926  12.655  0.00  0.00    +0.000 C 
ATOM     29  C   UNL     1       7.710   5.157  13.023  0.00  0.00    +0.000 C 
ATOM     30  O   UNL     1       7.963   5.199  14.433  0.00  0.00    +0.000 OA
ENDBRANCH  20  21
ENDBRANCH   2  16
TORSDOF 4
ENDMDL
MODEL 3
REMARK VINA RESULT:      -8.1      2.373      8.477
REMARK  Name = 
REMARK  4 active torsions:
REMARK  status: ('A' for Active; 'I' for Inactive)
REMARK    1  A    between atoms: C_2  and  C_14
REMARK    2  A    between atoms: N_3  and  C_4
REMARK    3  A    between atoms: C_12  and  O_13
REMARK    4  A    between atoms: C_18  and  C_19
REMARK                            x       y       z     vdW  Elec       q    Type
REMARK                         _______ _______ _______ _____ _____    ______ ____
ROOT
ATOM      1  O   UNL     1       5.352   6.110  17.478  0.00  0.00    +0.000 OA
ATOM      2  C   UNL     1       4.796   5.038  17.244  0.00  0.00    +0.000 C 
ATOM      3  N   UNL     1       4.846   4.436  16.008  0.00  0.00    +0.000 N 
ATOM      4  H   UNL     1       4.319   3.582  15.867  0.00  0.00    +0.000 HD
ENDROOT
BRANCH   3   5
ATOM      5  C   UNL     1       5.596   5.060  14.940  0.00  0.00    +0.000 C 
ATOM      6  C   UNL     1       5.681   4.216  13.698  0.00  0.00    +0.000 A 
ATOM      7  C   UNL     1       4.662   3.539  13.045  0.00  0.00    +0.000 A 
ATOM      8  C   UNL     1       4.965   2.851  11.868  0.00  0.00    +0.000 A 
ATOM      9  C   UNL     1       6.271   2.851  11.354  0.00  0.00    +0.000 A 
ATOM     10  C   UNL     1       7.285   3.564  11.993  0.00  0.00    +0.000 A 
ATOM     11  C   UNL     1       6.973   4.250  13.156  0.00  0.00    +0.000 A 
ATOM     12  C   UNL     1       7.869   5.169  13.935  0.00  0.00    +0.000 C 
ATOM     13  C   UNL     1       7.112   5.283  15.270  0.00  0.00    +0.000 C 
BRANCH  13  14
ATOM     14  O   UNL     1       7.626   4.292  16.180  0.00  0.00    +0.000 OA
ATOM     15  H   UNL     1       8.449   3.950  15.790  0.00  0.00    +0.000 HD
ENDBRANCH  13  14
ENDBRANCH   3   5
BRANCH   2  16
ATOM     16  C   UNL     1       4.027   4.316  18.246  0.00  0.00    +0.000 A 
ATOM     17  N   UNL     1       4.185   2.965  18.530  0.00  0.00    +0.000 NA
ATOM     18  C   UNL     1       3.223   2.725  19.394  0.00  0.00    +0.000 A 
ATOM     19  O   UNL     1       2.479   3.804  19.755  0.00  0.00    +0.000 OA
ATOM     20  C   UNL     1       3.015   4.839  19.033  0.00  0.00    +0.000 A 
BRANCH  20  21
ATOM     21  C   UNL     1       2.473   6.163  19.295  0.00  0.00    +0.000 A 
ATOM     22  C   UNL     1       1.935   6.493  20.549  0.00  0.00    +0.000 A 
ATOM     23  C   UNL     1       1.418   7.770  20.789  0.00  0.00    +0.000 A 
ATOM     24  C   UNL     1       1.441   8.731  19.781  0.00  0.00    +0.000 A 
ATOM     25  C   UNL     1       2.005   8.424  18.541  0.00  0.00    +0.000 A 
ATOM     26  C   UNL     1       2.502   7.146  18.295  0.00  0.00    +0.000 A 
ATOM     27  O   UNL     1       2.105   9.327  17.514  0.00  0.00    +0.000 OA
ATOM     28  C   UNL     1       1.922  10.664  17.983  0.00  0.00    +0.000 C 
ATOM     29  C   UNL     1       0.709  10.744  18.897  0.00  0.00    +0.000 C 
ATOM     30  O   UNL     1       0.908   9.959  20.079  0.00  0.00    +0.000 OA
ENDBRANCH  20  21
ENDBRANCH   2  16
TORSDOF 4
ENDMDL
MODEL 4
REMARK VINA RESULT:      -8.0      2.085      8.658
REMARK  Name = 
REMARK  4 active torsions:
REMARK  status: ('A' for Active; 'I' for Inactive)
REMARK    1  A    between atoms: C_2  and  C_14
REMARK    2  A    between atoms: N_3  and  C_4
REMARK    3  A    between atoms: C_12  and  O_13
REMARK    4  A    between atoms: C_18  and  C_19
REMARK                            x       y       z     vdW  Elec       q    Type
REMARK                         _______ _______ _______ _____ _____    ______ ____
ROOT
ATOM      1  O   UNL     1       5.767   6.348  17.616  0.00  0.00    +0.000 OA
ATOM      2  C   UNL     1       5.093   5.335  17.440  0.00  0.00    +0.000 C 
ATOM      3  N   UNL     1       4.994   4.720  16.214  0.00  0.00    +0.000 N 
ATOM      4  H   UNL     1       4.377   3.922  16.124  0.00  0.00    +0.000 HD
ENDROOT
BRANCH   3   5
ATOM      5  C   UNL     1       5.724   5.257  15.085  0.00  0.00    +0.000 C 
ATOM      6  C   UNL     1       5.657   4.385  13.861  0.00  0.00    +0.000 A 
ATOM      7  C   UNL     1       4.545   3.784  13.291  0.00  0.00    +0.000 A 
ATOM      8  C   UNL     1       4.712   3.050  12.115  0.00  0.00    +0.000 A 
ATOM      9  C   UNL     1       5.978   2.929  11.520  0.00  0.00    +0.000 A 
ATOM     10  C   UNL     1       7.087   3.565  12.076  0.00  0.00    +0.000 A 
ATOM     11  C   UNL     1       6.910   4.298  13.239  0.00  0.00    +0.000 A 
ATOM     12  C   UNL     1       7.928   5.153  13.937  0.00  0.00    +0.000 C 
ATOM     13  C   UNL     1       7.271   5.357  15.314  0.00  0.00    +0.000 C 
BRANCH  13  14
ATOM     14  O   UNL     1       7.758   4.343  16.214  0.00  0.00    +0.000 OA
ATOM     15  H   UNL     1       7.107   4.266  16.932  0.00  0.00    +0.000 HD
ENDBRANCH  13  14
ENDBRANCH   3   5
BRANCH   2  16
ATOM     16  C   UNL     1       4.330   4.701  18.505  0.00  0.00    +0.000 A 
ATOM     17  N   UNL     1       4.563   3.415  18.976  0.00  0.00    +0.000 NA
ATOM     18  C   UNL     1       3.584   3.226  19.832  0.00  0.00    +0.000 A 
ATOM     19  O   UNL     1       2.757   4.289  20.018  0.00  0.00    +0.000 OA
ATOM     20  C   UNL     1       3.255   5.254  19.180  0.00  0.00    +0.000 A 
BRANCH  20  21
ATOM     21  C   UNL     1       2.618   6.560  19.241  0.00  0.00    +0.000 A 
ATOM     22  C   UNL     1       2.575   7.401  18.118  0.00  0.00    +0.000 A 
ATOM     23  C   UNL     1       1.959   8.655  18.190  0.00  0.00    +0.000 A 
ATOM     24  C   UNL     1       1.373   9.075  19.381  0.00  0.00    +0.000 A 
ATOM     25  C   UNL     1       1.380   8.232  20.494  0.00  0.00    +0.000 A 
ATOM     26  C   UNL     1       2.011   6.992  20.430  0.00  0.00    +0.000 A 
ATOM     27  O   UNL     1       0.788   8.555  21.689  0.00  0.00    +0.000 OA
ATOM     28  C   UNL     1      -0.126   9.643  21.533  0.00  0.00    +0.000 C 
ATOM     29  C   UNL     1       0.510  10.758  20.720  0.00  0.00    +0.000 C 
ATOM     30  O   UNL     1       0.796  10.319  19.386  0.00  0.00    +0.000 OA
ENDBRANCH  20  21
ENDBRANCH   2  16
TORSDOF 4
ENDMDL
MODEL 5
REMARK VINA RESULT:      -8.0      5.068      8.609
REMARK  Name = 
REMARK  4 active torsions:
REMARK  status: ('A' for Active; 'I' for Inactive)
REMARK    1  A    between atoms: C_2  and  C_14
REMARK    2  A    between atoms: N_3  and  C_4
REMARK    3  A    between atoms: C_12  and  O_13
REMARK    4  A    between atoms: C_18  and  C_19
REMARK                            x       y       z     vdW  Elec       q    Type
REMARK                         _______ _______ _______ _____ _____    ______ ____
ROOT
ATOM      1  O   UNL     1      -5.017  12.470  22.646  0.00  0.00    +0.000 OA
ATOM      2  C   UNL     1      -3.965  12.828  22.118  0.00  0.00    +0.000 C 
ATOM      3  N   UNL     1      -3.756  12.743  20.761  0.00  0.00    +0.000 N 
ATOM      4  H   UNL     1      -2.847  13.002  20.397  0.00  0.00    +0.000 HD
ENDROOT
BRANCH   3   5
ATOM      5  C   UNL     1      -4.810  12.241  19.906  0.00  0.00    +0.000 C 
ATOM      6  C   UNL     1      -4.310  11.711  18.590  0.00  0.00    +0.000 A 
ATOM      7  C   UNL     1      -3.246  10.854  18.355  0.00  0.00    +0.000 A 
ATOM      8  C   UNL     1      -2.990  10.451  17.042  0.00  0.00    +0.000 A 
ATOM      9  C   UNL     1      -3.798  10.899  15.985  0.00  0.00    +0.000 A 
ATOM     10  C   UNL     1      -4.890  11.731  16.230  0.00  0.00    +0.000 A 
ATOM     11  C   UNL     1      -5.140  12.119  17.538  0.00  0.00    +0.000 A 
ATOM     12  C   UNL     1      -6.316  12.905  18.041  0.00  0.00    +0.000 C 
ATOM     13  C   UNL     1      -5.828  13.336  19.436  0.00  0.00    +0.000 C 
BRANCH  13  14
ATOM     14  O   UNL     1      -5.221  14.639  19.331  0.00  0.00    +0.000 OA
ATOM     15  H   UNL     1      -5.925  15.291  19.488  0.00  0.00    +0.000 HD
ENDBRANCH  13  14
ENDBRANCH   3   5
BRANCH   2  16
ATOM     16  C   UNL     1      -2.845  13.361  22.877  0.00  0.00    +0.000 A 
ATOM     17  N   UNL     1      -2.898  14.520  23.642  0.00  0.00    +0.000 NA
ATOM     18  C   UNL     1      -1.655  14.676  24.040  0.00  0.00    +0.000 A 
ATOM     19  O   UNL     1      -0.793  13.695  23.660  0.00  0.00    +0.000 OA
ATOM     20  C   UNL     1      -1.567  12.830  22.931  0.00  0.00    +0.000 A 
BRANCH  20  21
ATOM     21  C   UNL     1      -0.922  11.610  22.471  0.00  0.00    +0.000 A 
ATOM     22  C   UNL     1      -0.981  10.428  23.226  0.00  0.00    +0.000 A 
ATOM     23  C   UNL     1      -0.357   9.261  22.773  0.00  0.00    +0.000 A 
ATOM     24  C   UNL     1       0.323   9.263  21.558  0.00  0.00    +0.000 A 
ATOM     25  C   UNL     1       0.358  10.424  20.783  0.00  0.00    +0.000 A 
ATOM     26  C   UNL     1      -0.245  11.592  21.243  0.00  0.00    +0.000 A 
ATOM     27  O   UNL     1       0.970  10.494  19.557  0.00  0.00    +0.000 OA
ATOM     28  C   UNL     1       1.215   9.189  19.028  0.00  0.00    +0.000 C 
ATOM     29  C   UNL     1       1.832   8.294  20.090  0.00  0.00    +0.000 C 
ATOM     30  O   UNL     1       0.921   8.089  21.177  0.00  0.00    +0.000 OA
ENDBRANCH  20  21
ENDBRANCH   2  16
TORSDOF 4
ENDMDL
MODEL 6
REMARK VINA RESULT:      -7.9      3.356      5.829
REMARK  Name = 
REMARK  4 active torsions:
REMARK  status: ('A' for Active; 'I' for Inactive)
REMARK    1  A    between atoms: C_2  and  C_14
REMARK    2  A    between atoms: N_3  and  C_4
REMARK    3  A    between atoms: C_12  and  O_13
REMARK    4  A    between atoms: C_18  and  C_19
REMARK                            x       y       z     vdW  Elec       q    Type
REMARK                         _______ _______ _______ _____ _____    ______ ____
ROOT
ATOM      1  O   UNL     1      -1.175  11.339  19.107  0.00  0.00    +0.000 OA
ATOM      2  C   UNL     1      -0.437  11.574  20.062  0.00  0.00    +0.000 C 
ATOM      3  N   UNL     1       0.330  12.713  20.138  0.00  0.00    +0.000 N 
ATOM      4  H   UNL     1       0.959  12.818  20.925  0.00  0.00    +0.000 HD
ENDROOT
BRANCH   3   5
ATOM      5  C   UNL     1       0.259  13.693  19.076  0.00  0.00    +0.000 C 
ATOM      6  C   UNL     1       1.594  14.293  18.727  0.00  0.00    +0.000 A 
ATOM      7  C   UNL     1       2.799  13.643  18.508  0.00  0.00    +0.000 A 
ATOM      8  C   UNL     1       3.912  14.405  18.144  0.00  0.00    +0.000 A 
ATOM      9  C   UNL     1       3.809  15.797  17.996  0.00  0.00    +0.000 A 
ATOM     10  C   UNL     1       2.587  16.442  18.179  0.00  0.00    +0.000 A 
ATOM     11  C   UNL     1       1.486  15.677  18.533  0.00  0.00    +0.000 A 
ATOM     12  C   UNL     1       0.064  16.139  18.666  0.00  0.00    +0.000 C 
ATOM     13  C   UNL     1      -0.571  14.971  19.441  0.00  0.00    +0.000 C 
BRANCH  13  14
ATOM     14  O   UNL     1      -0.525  15.272  20.849  0.00  0.00    +0.000 OA
ATOM     15  H   UNL     1      -1.214  15.935  21.019  0.00  0.00    +0.000 HD
ENDBRANCH  13  14
ENDBRANCH   3   5
BRANCH   2  16
ATOM     16  C   UNL     1      -0.299  10.667  21.191  0.00  0.00    +0.000 A 
ATOM     17  N   UNL     1      -0.909  10.853  22.425  0.00  0.00    +0.000 NA
ATOM     18  C   UNL     1      -0.418   9.877  23.155  0.00  0.00    +0.000 A 
ATOM     19  O   UNL     1       0.416   9.023  22.503  0.00  0.00    +0.000 OA
ATOM     20  C   UNL     1       0.473   9.517  21.226  0.00  0.00    +0.000 A 
BRANCH  20  21
ATOM     21  C   UNL     1       1.227   8.735  20.259  0.00  0.00    +0.000 A 
ATOM     22  C   UNL     1       1.520   9.242  18.983  0.00  0.00    +0.000 A 
ATOM     23  C   UNL     1       2.246   8.480  18.063  0.00  0.00    +0.000 A 
ATOM     24  C   UNL     1       2.694   7.208  18.412  0.00  0.00    +0.000 A 
ATOM     25  C   UNL     1       2.438   6.708  19.691  0.00  0.00    +0.000 A 
ATOM     26  C   UNL     1       1.697   7.458  20.600  0.00  0.00    +0.000 A 
ATOM     27  O   UNL     1       2.882   5.485  20.124  0.00  0.00    +0.000 OA
ATOM     28  C   UNL     1       3.918   4.982  19.277  0.00  0.00    +0.000 C 
ATOM     29  C   UNL     1       3.525   5.129  17.816  0.00  0.00    +0.000 C 
ATOM     30  O   UNL     1       3.392   6.511  17.459  0.00  0.00    +0.000 OA
ENDBRANCH  20  21
ENDBRANCH   2  16
TORSDOF 4
ENDMDL
MODEL 7
REMARK VINA RESULT:      -7.8      2.624      8.152
REMARK  Name = 
REMARK  4 active torsions:
REMARK  status: ('A' for Active; 'I' for Inactive)
REMARK    1  A    between atoms: C_2  and  C_14
REMARK    2  A    between atoms: N_3  and  C_4
REMARK    3  A    between atoms: C_12  and  O_13
REMARK    4  A    between atoms: C_18  and  C_19
REMARK                            x       y       z     vdW  Elec       q    Type
REMARK                         _______ _______ _______ _____ _____    ______ ____
ROOT
ATOM      1  O   UNL     1       1.968   8.828  18.246  0.00  0.00    +0.000 OA
ATOM      2  C   UNL     1       1.790   8.199  19.287  0.00  0.00    +0.000 C 
ATOM      3  N   UNL     1       2.072   6.857  19.396  0.00  0.00    +0.000 N 
ATOM      4  H   UNL     1       1.849   6.387  20.265  0.00  0.00    +0.000 HD
ENDROOT
BRANCH   3   5
ATOM      5  C   UNL     1       2.623   6.150  18.260  0.00  0.00    +0.000 C 
ATOM      6  C   UNL     1       2.355   4.670  18.290  0.00  0.00    +0.000 A 
ATOM      7  C   UNL     1       1.160   4.017  18.548  0.00  0.00    +0.000 A 
ATOM      8  C   UNL     1       1.132   2.622  18.473  0.00  0.00    +0.000 A 
ATOM      9  C   UNL     1       2.287   1.899  18.137  0.00  0.00    +0.000 A 
ATOM     10  C   UNL     1       3.478   2.562  17.841  0.00  0.00    +0.000 A 
ATOM     11  C   UNL     1       3.494   3.947  17.911  0.00  0.00    +0.000 A 
ATOM     12  C   UNL     1       4.620   4.861  17.524  0.00  0.00    +0.000 C 
ATOM     13  C   UNL     1       4.189   6.182  18.185  0.00  0.00    +0.000 C 
BRANCH  13  14
ATOM     14  O   UNL     1       4.797   6.267  19.488  0.00  0.00    +0.000 OA
ATOM     15  H   UNL     1       5.322   5.458  19.608  0.00  0.00    +0.000 HD
ENDBRANCH  13  14
ENDBRANCH   3   5
BRANCH   2  16
ATOM     16  C   UNL     1       1.255   8.810  20.495  0.00  0.00    +0.000 A 
ATOM     17  N   UNL     1       1.819   8.675  21.757  0.00  0.00    +0.000 NA
ATOM     18  C   UNL     1       0.955   9.282  22.539  0.00  0.00    +0.000 A 
ATOM     19  O   UNL     1      -0.101   9.860  21.907  0.00  0.00    +0.000 OA
ATOM     20  C   UNL     1       0.106   9.579  20.581  0.00  0.00    +0.000 A 
BRANCH  20  21
ATOM     21  C   UNL     1      -0.831  10.168  19.638  0.00  0.00    +0.000 A 
ATOM     22  C   UNL     1      -1.439  11.407  19.894  0.00  0.00    +0.000 A 
ATOM     23  C   UNL     1      -2.338  11.963  18.979  0.00  0.00    +0.000 A 
ATOM     24  C   UNL     1      -2.631  11.291  17.795  0.00  0.00    +0.000 A 
ATOM     25  C   UNL     1      -2.005  10.074  17.514  0.00  0.00    +0.000 A 
ATOM     26  C   UNL     1      -1.126   9.510  18.434  0.00  0.00    +0.000 A 
ATOM     27  O   UNL     1      -2.208   9.373  16.353  0.00  0.00    +0.000 OA
ATOM     28  C   UNL     1      -2.808  10.197  15.351  0.00  0.00    +0.000 C 
ATOM     29  C   UNL     1      -3.976  10.975  15.935  0.00  0.00    +0.000 C 
ATOM     30  O   UNL     1      -3.528  11.887  16.946  0.00  0.00    +0.000 OA
ENDBRANCH  20  21
ENDBRANCH   2  16
TORSDOF 4
ENDMDL
MODEL 8
REMARK VINA RESULT:      -7.8      4.234      7.010
REMARK  Name = 
REMARK  4 active torsions:
REMARK  status: ('A' for Active; 'I' for Inactive)
REMARK    1  A    between atoms: C_2  and  C_14
REMARK    2  A    between atoms: N_3  and  C_4
REMARK    3  A    between atoms: C_12  and  O_13
REMARK    4  A    between atoms: C_18  and  C_19
REMARK                            x       y       z     vdW  Elec       q    Type
REMARK                         _______ _______ _______ _____ _____    ______ ____
ROOT
ATOM      1  O   UNL     1       2.402  13.408  21.585  0.00  0.00    +0.000 OA
ATOM      2  C   UNL     1       1.365  13.389  20.925  0.00  0.00    +0.000 C 
ATOM      3  N   UNL     1       1.189  14.168  19.805  0.00  0.00    +0.000 N 
ATOM      4  H   UNL     1       0.289  14.146  19.340  0.00  0.00    +0.000 HD
ENDROOT
BRANCH   3   5
ATOM      5  C   UNL     1       2.263  15.029  19.359  0.00  0.00    +0.000 C 
ATOM      6  C   UNL     1       1.789  16.204  18.549  0.00  0.00    +0.000 A 
ATOM      7  C   UNL     1       0.748  17.077  18.827  0.00  0.00    +0.000 A 
ATOM      8  C   UNL     1       0.515  18.139  17.949  0.00  0.00    +0.000 A 
ATOM      9  C   UNL     1       1.323  18.321  16.815  0.00  0.00    +0.000 A 
ATOM     10  C   UNL     1       2.392  17.463  16.560  0.00  0.00    +0.000 A 
ATOM     11  C   UNL     1       2.620  16.417  17.441  0.00  0.00    +0.000 A 
ATOM     12  C   UNL     1       3.771  15.454  17.427  0.00  0.00    +0.000 C 
ATOM     13  C   UNL     1       3.259  14.344  18.361  0.00  0.00    +0.000 C 
BRANCH  13  14
ATOM     14  O   UNL     1       2.623  13.326  17.565  0.00  0.00    +0.000 OA
ATOM     15  H   UNL     1       3.197  13.169  16.796  0.00  0.00    +0.000 HD
ENDBRANCH  13  14
ENDBRANCH   3   5
BRANCH   2  16
ATOM     16  C   UNL     1       0.226  12.551  21.271  0.00  0.00    +0.000 A 
ATOM     17  N   UNL     1      -0.860  12.979  22.025  0.00  0.00    +0.000 NA
ATOM     18  C   UNL     1      -1.566  11.882  22.184  0.00  0.00    +0.000 A 
ATOM     19  O   UNL     1      -1.082  10.778  21.555  0.00  0.00    +0.000 OA
ATOM     20  C   UNL     1       0.064  11.216  20.941  0.00  0.00    +0.000 A 
BRANCH  20  21
ATOM     21  C   UNL     1       0.756  10.256  20.095  0.00  0.00    +0.000 A 
ATOM     22  C   UNL     1       1.168  10.597  18.797  0.00  0.00    +0.000 A 
ATOM     23  C   UNL     1       1.833   9.665  17.994  0.00  0.00    +0.000 A 
ATOM     24  C   UNL     1       2.100   8.389  18.483  0.00  0.00    +0.000 A 
ATOM     25  C   UNL     1       1.725   8.052  19.786  0.00  0.00    +0.000 A 
ATOM     26  C   UNL     1       1.045   8.972  20.579  0.00  0.00    +0.000 A 
ATOM     27  O   UNL     1       1.991   6.832  20.355  0.00  0.00    +0.000 OA
ATOM     28  C   UNL     1       2.992   6.126  19.618  0.00  0.00    +0.000 C 
ATOM     29  C   UNL     1       2.688   6.175  18.129  0.00  0.00    +0.000 C 
ATOM     30  O   UNL     1       2.746   7.521  17.640  0.00  0.00    +0.000 OA
ENDBRANCH  20  21
ENDBRANCH   2  16
TORSDOF 4
ENDMDL
MODEL 9
REMARK VINA RESULT:      -7.8      3.258      5.305
REMARK  Name = 
REMARK  4 active torsions:
REMARK  status: ('A' for Active; 'I' for Inactive)
REMARK    1  A    between atoms: C_2  and  C_14
REMARK    2  A    between atoms: N_3  and  C_4
REMARK    3  A    between atoms: C_12  and  O_13
REMARK    4  A    between atoms: C_18  and  C_19
REMARK                            x       y       z     vdW  Elec       q    Type
REMARK                         _______ _______ _______ _____ _____    ______ ____
ROOT
ATOM      1  O   UNL     1       0.191  11.690  19.229  0.00  0.00    +0.000 OA
ATOM      2  C   UNL     1      -0.594  10.996  19.874  0.00  0.00    +0.000 C 
ATOM      3  N   UNL     1      -1.923  10.882  19.540  0.00  0.00    +0.000 N 
ATOM      4  H   UNL     1      -2.527  10.340  20.145  0.00  0.00    +0.000 HD
ENDROOT
BRANCH   3   5
ATOM      5  C   UNL     1      -2.428  11.578  18.375  0.00  0.00    +0.000 C 
ATOM      6  C   UNL     1      -3.884  11.941  18.481  0.00  0.00    +0.000 A 
ATOM      7  C   UNL     1      -4.547  12.534  19.545  0.00  0.00    +0.000 A 
ATOM      8  C   UNL     1      -5.906  12.829  19.403  0.00  0.00    +0.000 A 
ATOM      9  C   UNL     1      -6.581  12.536  18.208  0.00  0.00    +0.000 A 
ATOM     10  C   UNL     1      -5.901  11.975  17.128  0.00  0.00    +0.000 A 
ATOM     11  C   UNL     1      -4.552  11.693  17.275  0.00  0.00    +0.000 A 
ATOM     12  C   UNL     1      -3.607  11.203  16.217  0.00  0.00    +0.000 C 
ATOM     13  C   UNL     1      -2.416  10.720  17.064  0.00  0.00    +0.000 C 
BRANCH  13  14
ATOM     14  O   UNL     1      -2.577   9.313  17.328  0.00  0.00    +0.000 OA
ATOM     15  H   UNL     1      -2.922   8.910  16.513  0.00  0.00    +0.000 HD
ENDBRANCH  13  14
ENDBRANCH   3   5
BRANCH   2  16
ATOM     16  C   UNL     1      -0.193  10.243  21.052  0.00  0.00    +0.000 A 
ATOM     17  N   UNL     1      -0.673  10.480  22.335  0.00  0.00    +0.000 NA
ATOM     18  C   UNL     1       0.036   9.661  23.078  0.00  0.00    +0.000 A 
ATOM     19  O   UNL     1       0.901   8.859  22.402  0.00  0.00    +0.000 OA
ATOM     20  C   UNL     1       0.734   9.215  21.089  0.00  0.00    +0.000 A 
BRANCH  20  21
ATOM     21  C   UNL     1       1.473   8.439  20.106  0.00  0.00    +0.000 A 
ATOM     22  C   UNL     1       1.796   8.975  18.849  0.00  0.00    +0.000 A 
ATOM     23  C   UNL     1       2.508   8.219  17.913  0.00  0.00    +0.000 A 
ATOM     24  C   UNL     1       2.911   6.923  18.227  0.00  0.00    +0.000 A 
ATOM     25  C   UNL     1       2.625   6.393  19.487  0.00  0.00    +0.000 A 
ATOM     26  C   UNL     1       1.899   7.138  20.412  0.00  0.00    +0.000 A 
ATOM     27  O   UNL     1       3.025   5.143  19.887  0.00  0.00    +0.000 OA
ATOM     28  C   UNL     1       4.054   4.633  19.034  0.00  0.00    +0.000 C 
ATOM     29  C   UNL     1       3.682   4.837  17.575  0.00  0.00    +0.000 C 
ATOM     30  O   UNL     1       3.596   6.233  17.260  0.00  0.00    +0.000 OA
ENDBRANCH  20  21
ENDBRANCH   2  16
TORSDOF 4
ENDMDL
