MODEL 1
REMARK VINA RESULT:      -8.5      0.000      0.000
REMARK  Name = 
REMARK  7 active torsions:
REMARK  status: ('A' for Active; 'I' for Inactive)
REMARK    1  A    between atoms: C_2  and  C_3
REMARK    2  A    between atoms: C_3  and  O_4
REMARK    3  A    between atoms: O_4  and  C_5
REMARK    4  A    between atoms: C_9  and  N_10
REMARK    5  A    between atoms: C_11  and  C_13
REMARK    6  A    between atoms: N_19  and  C_20
REMARK    7  A    between atoms: C_20  and  C_21
REMARK                            x       y       z     vdW  Elec       q    Type
REMARK                         _______ _______ _______ _____ _____    ______ ____
ROOT
ATOM      1  C   UNL     1       3.510   2.713  21.029  0.00  0.00    +0.000 C 
ENDROOT
BRANCH   1   3
ATOM      2  O   UNL     1       1.284   3.216  20.238  0.00  0.00    +0.000 OA
ATOM      3  C   UNL     1       2.308   3.637  20.770  0.00  0.00    +0.000 C 
ATOM      4  N   UNL     1       2.458   4.943  21.150  0.00  0.00    +0.000 N 
ATOM      5  H   UNL     1       3.350   5.225  21.544  0.00  0.00    +0.000 HD
BRANCH   4   6
ATOM      6  C   UNL     1       1.471   5.970  20.818  0.00  0.00    +0.000 C 
BRANCH   6   7
ATOM      7  C   UNL     1       2.058   7.297  20.245  0.00  0.00    +0.000 C 
ATOM      8  C   UNL     1       2.453   7.063  18.768  0.00  0.00    +0.000 C 
ATOM      9  C   UNL     1       2.143   8.134  17.733  0.00  0.00    +0.000 C 
ATOM     10  C   UNL     1       1.751   9.505  18.241  0.00  0.00    +0.000 C 
ATOM     11  C   UNL     1       1.026   9.528  19.552  0.00  0.00    +0.000 A 
ATOM     12  C   UNL     1       0.267  10.677  19.849  0.00  0.00    +0.000 A 
ATOM     13  C   UNL     1      -0.380  10.819  21.070  0.00  0.00    +0.000 A 
ATOM     14  C   UNL     1      -0.241   9.826  22.028  0.00  0.00    +0.000 A 
ATOM     15  C   UNL     1       0.540   8.695  21.756  0.00  0.00    +0.000 A 
ATOM     16  C   UNL     1       1.163   8.507  20.503  0.00  0.00    +0.000 A 
ENDBRANCH   6   7
ENDBRANCH   4   6
ENDBRANCH   1   3
BRANCH   1  17
ATOM     17  O   UNL     1       4.191   2.187  19.888  0.00  0.00    +0.000 OA
BRANCH  17  18
ATOM     18  C   UNL     1       4.306   3.052  18.815  0.00  0.00    +0.000 A 
ATOM     19  C   UNL     1       3.613   2.922  17.609  0.00  0.00    +0.000 A 
ATOM     20  C   UNL     1       3.806   3.842  16.580  0.00  0.00    +0.000 A 
ATOM     21  C   UNL     1       4.672   4.919  16.752  0.00  0.00    +0.000 A 
ATOM     22  C   UNL     1       5.350   5.103  17.958  0.00  0.00    +0.000 A 
ATOM     23  C   UNL     1       5.183   4.143  18.976  0.00  0.00    +0.000 A 
BRANCH  22  24
ATOM     24  N   UNL     1       6.184   6.224  18.195  0.00  0.00    +0.000 N 
ATOM     25  C   UNL     1       7.146   6.748  17.330  0.00  0.00    +0.000 C 
ATOM     26  O   UNL     1       7.413   6.299  16.220  0.00  0.00    +0.000 OA
ATOM     27  H   UNL     1       6.016   6.769  19.034  0.00  0.00    +0.000 HD
BRANCH  25  28
ATOM     28  C   UNL     1       7.806   7.941  17.834  0.00  0.00    +0.000 A 
ATOM     29  C   UNL     1       7.756   9.251  17.381  0.00  0.00    +0.000 A 
ATOM     30  C   UNL     1       8.582  10.012  18.239  0.00  0.00    +0.000 A 
ATOM     31  C   UNL     1       9.089   9.127  19.163  0.00  0.00    +0.000 A 
ATOM     32  O   UNL     1       8.624   7.871  18.930  0.00  0.00    +0.000 OA
ENDBRANCH  25  28
ENDBRANCH  22  24
ENDBRANCH  17  18
ENDBRANCH   1  17
TORSDOF 7
ENDMDL
MODEL 2
REMARK VINA RESULT:      -8.3      1.148      1.425
REMARK  Name = 
REMARK  7 active torsions:
REMARK  status: ('A' for Active; 'I' for Inactive)
REMARK    1  A    between atoms: C_2  and  C_3
REMARK    2  A    between atoms: C_3  and  O_4
REMARK    3  A    between atoms: O_4  and  C_5
REMARK    4  A    between atoms: C_9  and  N_10
REMARK    5  A    between atoms: C_11  and  C_13
REMARK    6  A    between atoms: N_19  and  C_20
REMARK    7  A    between atoms: C_20  and  C_21
REMARK                            x       y       z     vdW  Elec       q    Type
REMARK                         _______ _______ _______ _____ _____    ______ ____
ROOT
ATOM      1  C   UNL     1       3.225   3.159  18.910  0.00  0.00    +0.000 C 
ENDROOT
BRANCH   1   3
ATOM      2  O   UNL     1       0.961   3.777  19.481  0.00  0.00    +0.000 OA
ATOM      3  C   UNL     1       2.152   4.074  19.525  0.00  0.00    +0.000 C 
ATOM      4  N   UNL     1       2.603   5.231  20.100  0.00  0.00    +0.000 N 
ATOM      5  H   UNL     1       3.599   5.427  20.058  0.00  0.00    +0.000 HD
BRANCH   4   6
ATOM      6  C   UNL     1       1.693   6.272  20.575  0.00  0.00    +0.000 C 
BRANCH   6   7
ATOM      7  C   UNL     1       2.058   7.725  20.139  0.00  0.00    +0.000 C 
ATOM      8  C   UNL     1       2.261   7.742  18.605  0.00  0.00    +0.000 C 
ATOM      9  C   UNL     1       1.702   8.900  17.792  0.00  0.00    +0.000 C 
ATOM     10  C   UNL     1       1.252  10.133  18.546  0.00  0.00    +0.000 C 
ATOM     11  C   UNL     1       0.722   9.891  19.926  0.00  0.00    +0.000 A 
ATOM     12  C   UNL     1      -0.097  10.891  20.487  0.00  0.00    +0.000 A 
ATOM     13  C   UNL     1      -0.574  10.787  21.787  0.00  0.00    +0.000 A 
ATOM     14  C   UNL     1      -0.203   9.697  22.559  0.00  0.00    +0.000 A 
ATOM     15  C   UNL     1       0.639   8.715  22.023  0.00  0.00    +0.000 A 
ATOM     16  C   UNL     1       1.094   8.773  20.687  0.00  0.00    +0.000 A 
ENDBRANCH   6   7
ENDBRANCH   4   6
ENDBRANCH   1   3
BRANCH   1  17
ATOM     17  O   UNL     1       4.582   3.604  18.975  0.00  0.00    +0.000 OA
BRANCH  17  18
ATOM     18  C   UNL     1       5.031   4.302  17.869  0.00  0.00    +0.000 A 
ATOM     19  C   UNL     1       4.817   3.917  16.543  0.00  0.00    +0.000 A 
ATOM     20  C   UNL     1       5.322   4.685  15.494  0.00  0.00    +0.000 A 
ATOM     21  C   UNL     1       6.022   5.861  15.756  0.00  0.00    +0.000 A 
ATOM     22  C   UNL     1       6.219   6.296  17.068  0.00  0.00    +0.000 A 
ATOM     23  C   UNL     1       5.745   5.490  18.122  0.00  0.00    +0.000 A 
BRANCH  22  24
ATOM     24  N   UNL     1       6.865   7.521  17.370  0.00  0.00    +0.000 N 
ATOM     25  C   UNL     1       7.934   7.709  18.247  0.00  0.00    +0.000 C 
ATOM     26  O   UNL     1       8.474   6.820  18.896  0.00  0.00    +0.000 OA
ATOM     27  H   UNL     1       6.597   8.341  16.835  0.00  0.00    +0.000 HD
BRANCH  25  28
ATOM     28  C   UNL     1       8.416   9.079  18.305  0.00  0.00    +0.000 A 
ATOM     29  C   UNL     1       8.199  10.142  17.442  0.00  0.00    +0.000 A 
ATOM     30  C   UNL     1       8.897  11.250  17.974  0.00  0.00    +0.000 A 
ATOM     31  C   UNL     1       9.502  10.801  19.126  0.00  0.00    +0.000 A 
ATOM     32  O   UNL     1       9.215   9.489  19.339  0.00  0.00    +0.000 OA
ENDBRANCH  25  28
ENDBRANCH  22  24
ENDBRANCH  17  18
ENDBRANCH   1  17
TORSDOF 7
ENDMDL
MODEL 3
REMARK VINA RESULT:      -8.2      3.225      4.995
REMARK  Name = 
REMARK  7 active torsions:
REMARK  status: ('A' for Active; 'I' for Inactive)
REMARK    1  A    between atoms: C_2  and  C_3
REMARK    2  A    between atoms: C_3  and  O_4
REMARK    3  A    between atoms: O_4  and  C_5
REMARK    4  A    between atoms: C_9  and  N_10
REMARK    5  A    between atoms: C_11  and  C_13
REMARK    6  A    between atoms: N_19  and  C_20
REMARK    7  A    between atoms: C_20  and  C_21
REMARK                            x       y       z     vdW  Elec       q    Type
REMARK                         _______ _______ _______ _____ _____    ______ ____
ROOT
ATOM      1  C   UNL     1       1.831   7.018  20.351  0.00  0.00    +0.000 C 
ENDROOT
BRANCH   1   3
ATOM      2  O   UNL     1       1.033   8.952  21.557  0.00  0.00    +0.000 OA
ATOM      3  C   UNL     1       1.345   8.473  20.470  0.00  0.00    +0.000 C 
ATOM      4  N   UNL     1       1.271   9.182  19.301  0.00  0.00    +0.000 N 
ATOM      5  H   UNL     1       1.506   8.702  18.438  0.00  0.00    +0.000 HD
BRANCH   4   6
ATOM      6  C   UNL     1       0.672  10.514  19.235  0.00  0.00    +0.000 C 
BRANCH   6   7
ATOM      7  C   UNL     1      -0.832  10.589  19.638  0.00  0.00    +0.000 C 
ATOM      8  C   UNL     1      -1.000  11.685  20.717  0.00  0.00    +0.000 C 
ATOM      9  C   UNL     1      -2.190  12.629  20.643  0.00  0.00    +0.000 C 
ATOM     10  C   UNL     1      -3.322  12.258  19.708  0.00  0.00    +0.000 C 
ATOM     11  C   UNL     1      -2.925  11.490  18.484  0.00  0.00    +0.000 A 
ATOM     12  C   UNL     1      -3.820  11.505  17.396  0.00  0.00    +0.000 A 
ATOM     13  C   UNL     1      -3.572  10.764  16.248  0.00  0.00    +0.000 A 
ATOM     14  C   UNL     1      -2.440   9.964  16.191  0.00  0.00    +0.000 A 
ATOM     15  C   UNL     1      -1.563   9.915  17.281  0.00  0.00    +0.000 A 
ATOM     16  C   UNL     1      -1.768  10.699  18.437  0.00  0.00    +0.000 A 
ENDBRANCH   6   7
ENDBRANCH   4   6
ENDBRANCH   1   3
BRANCH   1  17
ATOM     17  O   UNL     1       3.078   6.795  19.687  0.00  0.00    +0.000 OA
BRANCH  17  18
ATOM     18  C   UNL     1       3.192   5.583  19.032  0.00  0.00    +0.000 A 
ATOM     19  C   UNL     1       2.588   4.393  19.446  0.00  0.00    +0.000 A 
ATOM     20  C   UNL     1       2.774   3.217  18.721  0.00  0.00    +0.000 A 
ATOM     21  C   UNL     1       3.542   3.220  17.559  0.00  0.00    +0.000 A 
ATOM     22  C   UNL     1       4.127   4.400  17.094  0.00  0.00    +0.000 A 
ATOM     23  C   UNL     1       3.972   5.573  17.858  0.00  0.00    +0.000 A 
BRANCH  22  24
ATOM     24  N   UNL     1       4.856   4.456  15.880  0.00  0.00    +0.000 N 
ATOM     25  C   UNL     1       6.244   4.413  15.735  0.00  0.00    +0.000 C 
ATOM     26  O   UNL     1       7.044   4.322  16.659  0.00  0.00    +0.000 OA
ATOM     27  H   UNL     1       4.331   4.432  15.012  0.00  0.00    +0.000 HD
BRANCH  25  28
ATOM     28  C   UNL     1       6.694   4.435  14.353  0.00  0.00    +0.000 A 
ATOM     29  C   UNL     1       6.337   3.630  13.282  0.00  0.00    +0.000 A 
ATOM     30  C   UNL     1       7.071   4.088  12.164  0.00  0.00    +0.000 A 
ATOM     31  C   UNL     1       7.833   5.142  12.615  0.00  0.00    +0.000 A 
ATOM     32  O   UNL     1       7.611   5.364  13.937  0.00  0.00    +0.000 OA
ENDBRANCH  25  28
ENDBRANCH  22  24
ENDBRANCH  17  18
ENDBRANCH   1  17
TORSDOF 7
ENDMDL
MODEL 4
REMARK VINA RESULT:      -8.2      3.390      5.443
REMARK  Name = 
REMARK  7 active torsions:
REMARK  status: ('A' for Active; 'I' for Inactive)
REMARK    1  A    between atoms: C_2  and  C_3
REMARK    2  A    between atoms: C_3  and  O_4
REMARK    3  A    between atoms: O_4  and  C_5
REMARK    4  A    between atoms: C_9  and  N_10
REMARK    5  A    between atoms: C_11  and  C_13
REMARK    6  A    between atoms: N_19  and  C_20
REMARK    7  A    between atoms: C_20  and  C_21
REMARK                            x       y       z     vdW  Elec       q    Type
REMARK                         _______ _______ _______ _____ _____    ______ ____
ROOT
ATOM      1  C   UNL     1       2.557   8.177  18.018  0.00  0.00    +0.000 C 
ENDROOT
BRANCH   1   3
ATOM      2  O   UNL     1       2.217  10.492  17.420  0.00  0.00    +0.000 OA
ATOM      3  C   UNL     1       1.878   9.552  18.134  0.00  0.00    +0.000 C 
ATOM      4  N   UNL     1       0.896   9.662  19.082  0.00  0.00    +0.000 N 
ATOM      5  H   UNL     1       0.702   8.852  19.662  0.00  0.00    +0.000 HD
BRANCH   4   6
ATOM      6  C   UNL     1       0.279  10.944  19.420  0.00  0.00    +0.000 C 
BRANCH   6   7
ATOM      7  C   UNL     1      -1.251  10.888  19.717  0.00  0.00    +0.000 C 
ATOM      8  C   UNL     1      -1.593  11.986  20.752  0.00  0.00    +0.000 C 
ATOM      9  C   UNL     1      -2.855  12.815  20.571  0.00  0.00    +0.000 C 
ATOM     10  C   UNL     1      -3.879  12.323  19.571  0.00  0.00    +0.000 C 
ATOM     11  C   UNL     1      -3.330  11.569  18.399  0.00  0.00    +0.000 A 
ATOM     12  C   UNL     1      -4.143  11.479  17.252  0.00  0.00    +0.000 A 
ATOM     13  C   UNL     1      -3.748  10.740  16.144  0.00  0.00    +0.000 A 
ATOM     14  C   UNL     1      -2.548  10.047  16.186  0.00  0.00    +0.000 A 
ATOM     15  C   UNL     1      -1.749  10.101  17.335  0.00  0.00    +0.000 A 
ATOM     16  C   UNL     1      -2.105  10.887  18.453  0.00  0.00    +0.000 A 
ENDBRANCH   6   7
ENDBRANCH   4   6
ENDBRANCH   1   3
BRANCH   1  17
ATOM     17  O   UNL     1       2.368   7.259  19.097  0.00  0.00    +0.000 OA
BRANCH  17  18
ATOM     18  C   UNL     1       3.000   6.037  18.953  0.00  0.00    +0.000 A 
ATOM     19  C   UNL     1       3.008   5.026  19.918  0.00  0.00    +0.000 A 
ATOM     20  C   UNL     1       3.685   3.830  19.682  0.00  0.00    +0.000 A 
ATOM     21  C   UNL     1       4.339   3.618  18.471  0.00  0.00    +0.000 A 
ATOM     22  C   UNL     1       4.317   4.591  17.469  0.00  0.00    +0.000 A 
ATOM     23  C   UNL     1       3.670   5.814  17.734  0.00  0.00    +0.000 A 
BRANCH  22  24
ATOM     24  N   UNL     1       4.912   4.383  16.200  0.00  0.00    +0.000 N 
ATOM     25  C   UNL     1       5.725   5.276  15.501  0.00  0.00    +0.000 C 
ATOM     26  O   UNL     1       6.044   6.393  15.896  0.00  0.00    +0.000 OA
ATOM     27  H   UNL     1       4.824   3.463  15.782  0.00  0.00    +0.000 HD
BRANCH  25  28
ATOM     28  C   UNL     1       6.231   4.754  14.242  0.00  0.00    +0.000 A 
ATOM     29  C   UNL     1       5.751   3.729  13.441  0.00  0.00    +0.000 A 
ATOM     30  C   UNL     1       6.618   3.640  12.328  0.00  0.00    +0.000 A 
ATOM     31  C   UNL     1       7.576   4.611  12.514  0.00  0.00    +0.000 A 
ATOM     32  O   UNL     1       7.350   5.294  13.667  0.00  0.00    +0.000 OA
ENDBRANCH  25  28
ENDBRANCH  22  24
ENDBRANCH  17  18
ENDBRANCH   1  17
TORSDOF 7
ENDMDL
MODEL 5
REMARK VINA RESULT:      -8.2      3.260      5.041
REMARK  Name = 
REMARK  7 active torsions:
REMARK  status: ('A' for Active; 'I' for Inactive)
REMARK    1  A    between atoms: C_2  and  C_3
REMARK    2  A    between atoms: C_3  and  O_4
REMARK    3  A    between atoms: O_4  and  C_5
REMARK    4  A    between atoms: C_9  and  N_10
REMARK    5  A    between atoms: C_11  and  C_13
REMARK    6  A    between atoms: N_19  and  C_20
REMARK    7  A    between atoms: C_20  and  C_21
REMARK                            x       y       z     vdW  Elec       q    Type
REMARK                         _______ _______ _______ _____ _____    ______ ____
ROOT
ATOM      1  C   UNL     1       1.565   7.881  20.264  0.00  0.00    +0.000 C 
ENDROOT
BRANCH   1   3
ATOM      2  O   UNL     1      -0.122   8.824  21.712  0.00  0.00    +0.000 OA
ATOM      3  C   UNL     1       0.571   8.967  20.708  0.00  0.00    +0.000 C 
ATOM      4  N   UNL     1       0.498  10.080  19.915  0.00  0.00    +0.000 N 
ATOM      5  H   UNL     1       1.072  10.106  19.077  0.00  0.00    +0.000 HD
BRANCH   4   6
ATOM      6  C   UNL     1      -0.514  11.116  20.115  0.00  0.00    +0.000 C 
BRANCH   6   7
ATOM      7  C   UNL     1      -1.367  11.465  18.857  0.00  0.00    +0.000 C 
ATOM      8  C   UNL     1      -1.253  10.301  17.846  0.00  0.00    +0.000 C 
ATOM      9  C   UNL     1      -2.495   9.833  17.102  0.00  0.00    +0.000 C 
ATOM     10  C   UNL     1      -3.716  10.727  17.147  0.00  0.00    +0.000 C 
ATOM     11  C   UNL     1      -3.878  11.540  18.395  0.00  0.00    +0.000 A 
ATOM     12  C   UNL     1      -5.168  12.029  18.683  0.00  0.00    +0.000 A 
ATOM     13  C   UNL     1      -5.400  12.852  19.778  0.00  0.00    +0.000 A 
ATOM     14  C   UNL     1      -4.332  13.230  20.577  0.00  0.00    +0.000 A 
ATOM     15  C   UNL     1      -3.040  12.779  20.279  0.00  0.00    +0.000 A 
ATOM     16  C   UNL     1      -2.789  11.900  19.202  0.00  0.00    +0.000 A 
ENDBRANCH   6   7
ENDBRANCH   4   6
ENDBRANCH   1   3
BRANCH   1  17
ATOM     17  O   UNL     1       1.635   6.693  21.056  0.00  0.00    +0.000 OA
BRANCH  17  18
ATOM     18  C   UNL     1       1.803   5.517  20.348  0.00  0.00    +0.000 A 
ATOM     19  C   UNL     1       1.099   4.334  20.588  0.00  0.00    +0.000 A 
ATOM     20  C   UNL     1       1.349   3.195  19.824  0.00  0.00    +0.000 A 
ATOM     21  C   UNL     1       2.286   3.230  18.794  0.00  0.00    +0.000 A 
ATOM     22  C   UNL     1       2.978   4.406  18.499  0.00  0.00    +0.000 A 
ATOM     23  C   UNL     1       2.752   5.539  19.306  0.00  0.00    +0.000 A 
BRANCH  22  24
ATOM     24  N   UNL     1       3.886   4.499  17.415  0.00  0.00    +0.000 N 
ATOM     25  C   UNL     1       5.269   4.316  17.464  0.00  0.00    +0.000 C 
ATOM     26  O   UNL     1       5.907   4.047  18.476  0.00  0.00    +0.000 OA
ATOM     27  H   UNL     1       3.499   4.620  16.485  0.00  0.00    +0.000 HD
BRANCH  25  28
ATOM     28  C   UNL     1       5.924   4.423  16.171  0.00  0.00    +0.000 A 
ATOM     29  C   UNL     1       5.504   4.009  14.917  0.00  0.00    +0.000 A 
ATOM     30  C   UNL     1       6.524   4.365  14.005  0.00  0.00    +0.000 A 
ATOM     31  C   UNL     1       7.507   4.972  14.753  0.00  0.00    +0.000 A 
ATOM     32  O   UNL     1       7.154   5.017  16.065  0.00  0.00    +0.000 OA
ENDBRANCH  25  28
ENDBRANCH  22  24
ENDBRANCH  17  18
ENDBRANCH   1  17
TORSDOF 7
ENDMDL
MODEL 6
REMARK VINA RESULT:      -8.2      3.361      5.228
REMARK  Name = 
REMARK  7 active torsions:
REMARK  status: ('A' for Active; 'I' for Inactive)
REMARK    1  A    between atoms: C_2  and  C_3
REMARK    2  A    between atoms: C_3  and  O_4
REMARK    3  A    between atoms: O_4  and  C_5
REMARK    4  A    between atoms: C_9  and  N_10
REMARK    5  A    between atoms: C_11  and  C_13
REMARK    6  A    between atoms: N_19  and  C_20
REMARK    7  A    between atoms: C_20  and  C_21
REMARK                            x       y       z     vdW  Elec       q    Type
REMARK                         _______ _______ _______ _____ _____    ______ ____
ROOT
ATOM      1  C   UNL     1       2.879   7.399  18.961  0.00  0.00    +0.000 C 
ENDROOT
BRANCH   1   3
ATOM      2  O   UNL     1       2.294   8.947  17.202  0.00  0.00    +0.000 OA
ATOM      3  C   UNL     1       2.090   8.571  18.354  0.00  0.00    +0.000 C 
ATOM      4  N   UNL     1       1.171   9.169  19.174  0.00  0.00    +0.000 N 
ATOM      5  H   UNL     1       1.091   8.828  20.127  0.00  0.00    +0.000 HD
BRANCH   4   6
ATOM      6  C   UNL     1       0.468  10.394  18.795  0.00  0.00    +0.000 C 
BRANCH   6   7
ATOM      7  C   UNL     1      -1.005  10.497  19.296  0.00  0.00    +0.000 C 
ATOM      8  C   UNL     1      -1.069  11.556  20.421  0.00  0.00    +0.000 C 
ATOM      9  C   UNL     1      -2.231  12.537  20.458  0.00  0.00    +0.000 C 
ATOM     10  C   UNL     1      -3.430  12.235  19.585  0.00  0.00    +0.000 C 
ATOM     11  C   UNL     1      -3.137  11.503  18.311  0.00  0.00    +0.000 A 
ATOM     12  C   UNL     1      -4.097  11.585  17.284  0.00  0.00    +0.000 A 
ATOM     13  C   UNL     1      -3.946  10.881  16.097  0.00  0.00    +0.000 A 
ATOM     14  C   UNL     1      -2.846  10.050  15.939  0.00  0.00    +0.000 A 
ATOM     15  C   UNL     1      -1.903   9.934  16.968  0.00  0.00    +0.000 A 
ATOM     16  C   UNL     1      -2.011  10.680  18.162  0.00  0.00    +0.000 A 
ENDBRANCH   6   7
ENDBRANCH   4   6
ENDBRANCH   1   3
BRANCH   1  17
ATOM     17  O   UNL     1       2.135   6.249  19.371  0.00  0.00    +0.000 OA
BRANCH  17  18
ATOM     18  C   UNL     1       2.617   5.036  18.915  0.00  0.00    +0.000 A 
ATOM     19  C   UNL     1       2.388   3.804  19.534  0.00  0.00    +0.000 A 
ATOM     20  C   UNL     1       2.930   2.635  19.002  0.00  0.00    +0.000 A 
ATOM     21  C   UNL     1       3.684   2.677  17.831  0.00  0.00    +0.000 A 
ATOM     22  C   UNL     1       3.899   3.885  17.165  0.00  0.00    +0.000 A 
ATOM     23  C   UNL     1       3.386   5.068  17.735  0.00  0.00    +0.000 A 
BRANCH  22  24
ATOM     24  N   UNL     1       4.601   3.957  15.936  0.00  0.00    +0.000 N 
ATOM     25  C   UNL     1       5.922   4.367  15.751  0.00  0.00    +0.000 C 
ATOM     26  O   UNL     1       6.677   4.732  16.645  0.00  0.00    +0.000 OA
ATOM     27  H   UNL     1       4.143   3.591  15.108  0.00  0.00    +0.000 HD
BRANCH  25  28
ATOM     28  C   UNL     1       6.379   4.280  14.374  0.00  0.00    +0.000 A 
ATOM     29  C   UNL     1       7.408   4.949  13.728  0.00  0.00    +0.000 A 
ATOM     30  C   UNL     1       7.424   4.484  12.393  0.00  0.00    +0.000 A 
ATOM     31  C   UNL     1       6.406   3.563  12.299  0.00  0.00    +0.000 A 
ATOM     32  O   UNL     1       5.769   3.427  13.492  0.00  0.00    +0.000 OA
ENDBRANCH  25  28
ENDBRANCH  22  24
ENDBRANCH  17  18
ENDBRANCH   1  17
TORSDOF 7
ENDMDL
MODEL 7
REMARK VINA RESULT:      -8.1      3.098      7.612
REMARK  Name = 
REMARK  7 active torsions:
REMARK  status: ('A' for Active; 'I' for Inactive)
REMARK    1  A    between atoms: C_2  and  C_3
REMARK    2  A    between atoms: C_3  and  O_4
REMARK    3  A    between atoms: O_4  and  C_5
REMARK    4  A    between atoms: C_9  and  N_10
REMARK    5  A    between atoms: C_11  and  C_13
REMARK    6  A    between atoms: N_19  and  C_20
REMARK    7  A    between atoms: C_20  and  C_21
REMARK                            x       y       z     vdW  Elec       q    Type
REMARK                         _______ _______ _______ _____ _____    ______ ____
ROOT
ATOM      1  C   UNL     1       7.950   6.620  18.506  0.00  0.00    +0.000 C 
ENDROOT
BRANCH   1   3
ATOM      2  O   UNL     1       7.452   8.448  17.009  0.00  0.00    +0.000 OA
ATOM      3  C   UNL     1       8.017   8.083  18.037  0.00  0.00    +0.000 C 
ATOM      4  N   UNL     1       8.748   8.936  18.819  0.00  0.00    +0.000 N 
ATOM      5  H   UNL     1       9.221   8.550  19.631  0.00  0.00    +0.000 HD
BRANCH   4   6
ATOM      6  C   UNL     1       9.038  10.311  18.414  0.00  0.00    +0.000 C 
BRANCH   6   7
ATOM      7  C   UNL     1      10.257  10.972  19.130  0.00  0.00    +0.000 C 
ATOM      8  C   UNL     1      11.209  11.543  18.054  0.00  0.00    +0.000 C 
ATOM      9  C   UNL     1      11.846  12.907  18.269  0.00  0.00    +0.000 C 
ATOM     10  C   UNL     1      11.772  13.503  19.659  0.00  0.00    +0.000 C 
ATOM     11  C   UNL     1      10.562  13.130  20.461  0.00  0.00    +0.000 A 
ATOM     12  C   UNL     1      10.220  13.969  21.539  0.00  0.00    +0.000 A 
ATOM     13  C   UNL     1       9.158  13.664  22.382  0.00  0.00    +0.000 A 
ATOM     14  C   UNL     1       8.450  12.489  22.178  0.00  0.00    +0.000 A 
ATOM     15  C   UNL     1       8.804  11.631  21.130  0.00  0.00    +0.000 A 
ATOM     16  C   UNL     1       9.846  11.946  20.231  0.00  0.00    +0.000 A 
ENDBRANCH   6   7
ENDBRANCH   4   6
ENDBRANCH   1   3
BRANCH   1  17
ATOM     17  O   UNL     1       7.636   5.630  17.524  0.00  0.00    +0.000 OA
BRANCH  17  18
ATOM     18  C   UNL     1       6.305   5.262  17.457  0.00  0.00    +0.000 A 
ATOM     19  C   UNL     1       5.815   4.171  16.734  0.00  0.00    +0.000 A 
ATOM     20  C   UNL     1       4.450   3.888  16.720  0.00  0.00    +0.000 A 
ATOM     21  C   UNL     1       3.561   4.674  17.449  0.00  0.00    +0.000 A 
ATOM     22  C   UNL     1       4.020   5.747  18.215  0.00  0.00    +0.000 A 
ATOM     23  C   UNL     1       5.396   6.053  18.186  0.00  0.00    +0.000 A 
BRANCH  22  24
ATOM     24  N   UNL     1       3.155   6.525  19.024  0.00  0.00    +0.000 N 
ATOM     25  C   UNL     1       2.498   7.700  18.656  0.00  0.00    +0.000 C 
ATOM     26  O   UNL     1       2.581   8.238  17.557  0.00  0.00    +0.000 OA
ATOM     27  H   UNL     1       2.903   6.157  19.936  0.00  0.00    +0.000 HD
BRANCH  25  28
ATOM     28  C   UNL     1       1.632   8.241  19.691  0.00  0.00    +0.000 A 
ATOM     29  C   UNL     1       1.341   7.758  20.958  0.00  0.00    +0.000 A 
ATOM     30  C   UNL     1       0.444   8.676  21.550  0.00  0.00    +0.000 A 
ATOM     31  C   UNL     1       0.237   9.663  20.613  0.00  0.00    +0.000 A 
ATOM     32  O   UNL     1       0.954   9.413  19.485  0.00  0.00    +0.000 OA
ENDBRANCH  25  28
ENDBRANCH  22  24
ENDBRANCH  17  18
ENDBRANCH   1  17
TORSDOF 7
ENDMDL
MODEL 8
REMARK VINA RESULT:      -8.0      3.352      8.113
REMARK  Name = 
REMARK  7 active torsions:
REMARK  status: ('A' for Active; 'I' for Inactive)
REMARK    1  A    between atoms: C_2  and  C_3
REMARK    2  A    between atoms: C_3  and  O_4
REMARK    3  A    between atoms: O_4  and  C_5
REMARK    4  A    between atoms: C_9  and  N_10
REMARK    5  A    between atoms: C_11  and  C_13
REMARK    6  A    between atoms: N_19  and  C_20
REMARK    7  A    between atoms: C_20  and  C_21
REMARK                            x       y       z     vdW  Elec       q    Type
REMARK                         _______ _______ _______ _____ _____    ______ ____
ROOT
ATOM      1  C   UNL     1       7.446   7.698  17.767  0.00  0.00    +0.000 C 
ENDROOT
BRANCH   1   3
ATOM      2  O   UNL     1       7.967  10.006  17.285  0.00  0.00    +0.000 OA
ATOM      3  C   UNL     1       8.149   9.041  18.024  0.00  0.00    +0.000 C 
ATOM      4  N   UNL     1       8.990   9.086  19.103  0.00  0.00    +0.000 N 
ATOM      5  H   UNL     1       9.121   8.235  19.640  0.00  0.00    +0.000 HD
BRANCH   4   6
ATOM      6  C   UNL     1       9.850  10.237  19.373  0.00  0.00    +0.000 C 
BRANCH   6   7
ATOM      7  C   UNL     1       9.117  11.505  19.911  0.00  0.00    +0.000 C 
ATOM      8  C   UNL     1       9.000  11.392  21.449  0.00  0.00    +0.000 C 
ATOM      9  C   UNL     1       9.254  12.620  22.309  0.00  0.00    +0.000 C 
ATOM     10  C   UNL     1       9.299  13.964  21.614  0.00  0.00    +0.000 C 
ATOM     11  C   UNL     1       9.801  13.948  20.203  0.00  0.00    +0.000 A 
ATOM     12  C   UNL     1      10.275  15.164  19.673  0.00  0.00    +0.000 A 
ATOM     13  C   UNL     1      10.693  15.261  18.352  0.00  0.00    +0.000 A 
ATOM     14  C   UNL     1      10.601  14.148  17.530  0.00  0.00    +0.000 A 
ATOM     15  C   UNL     1      10.098  12.944  18.037  0.00  0.00    +0.000 A 
ATOM     16  C   UNL     1       9.717  12.808  19.390  0.00  0.00    +0.000 A 
ENDBRANCH   6   7
ENDBRANCH   4   6
ENDBRANCH   1   3
BRANCH   1  17
ATOM     17  O   UNL     1       7.815   6.979  16.588  0.00  0.00    +0.000 OA
BRANCH  17  18
ATOM     18  C   UNL     1       6.980   5.931  16.246  0.00  0.00    +0.000 A 
ATOM     19  C   UNL     1       7.104   5.158  15.089  0.00  0.00    +0.000 A 
ATOM     20  C   UNL     1       6.202   4.127  14.827  0.00  0.00    +0.000 A 
ATOM     21  C   UNL     1       5.183   3.838  15.731  0.00  0.00    +0.000 A 
ATOM     22  C   UNL     1       5.054   4.564  16.916  0.00  0.00    +0.000 A 
ATOM     23  C   UNL     1       5.941   5.633  17.150  0.00  0.00    +0.000 A 
BRANCH  22  24
ATOM     24  N   UNL     1       4.073   4.253  17.891  0.00  0.00    +0.000 N 
ATOM     25  C   UNL     1       4.295   3.722  19.162  0.00  0.00    +0.000 C 
ATOM     26  O   UNL     1       5.396   3.439  19.623  0.00  0.00    +0.000 OA
ATOM     27  H   UNL     1       3.114   4.524  17.699  0.00  0.00    +0.000 HD
BRANCH  25  28
ATOM     28  C   UNL     1       3.088   3.564  19.956  0.00  0.00    +0.000 A 
ATOM     29  C   UNL     1       1.864   4.209  19.863  0.00  0.00    +0.000 A 
ATOM     30  C   UNL     1       1.039   3.671  20.876  0.00  0.00    +0.000 A 
ATOM     31  C   UNL     1       1.805   2.732  21.530  0.00  0.00    +0.000 A 
ATOM     32  O   UNL     1       3.045   2.655  20.980  0.00  0.00    +0.000 OA
ENDBRANCH  25  28
ENDBRANCH  22  24
ENDBRANCH  17  18
ENDBRANCH   1  17
TORSDOF 7
ENDMDL
MODEL 9
REMARK VINA RESULT:      -7.9      2.409      3.235
REMARK  Name = 
REMARK  7 active torsions:
REMARK  status: ('A' for Active; 'I' for Inactive)
REMARK    1  A    between atoms: C_2  and  C_3
REMARK    2  A    between atoms: C_3  and  O_4
REMARK    3  A    between atoms: O_4  and  C_5
REMARK    4  A    between atoms: C_9  and  N_10
REMARK    5  A    between atoms: C_11  and  C_13
REMARK    6  A    between atoms: N_19  and  C_20
REMARK    7  A    between atoms: C_20  and  C_21
REMARK                            x       y       z     vdW  Elec       q    Type
REMARK                         _______ _______ _______ _____ _____    ______ ____
ROOT
ATOM      1  C   UNL     1       1.132   2.581  19.374  0.00  0.00    +0.000 C 
ENDROOT
BRANCH   1   3
ATOM      2  O   UNL     1       1.402   3.408  21.626  0.00  0.00    +0.000 OA
ATOM      3  C   UNL     1       1.304   3.682  20.433  0.00  0.00    +0.000 C 
ATOM      4  N   UNL     1       1.325   4.969  19.967  0.00  0.00    +0.000 N 
ATOM      5  H   UNL     1       1.195   5.118  18.971  0.00  0.00    +0.000 HD
BRANCH   4   6
ATOM      6  C   UNL     1       1.315   6.124  20.865  0.00  0.00    +0.000 C 
BRANCH   6   7
ATOM      7  C   UNL     1       1.979   7.415  20.296  0.00  0.00    +0.000 C 
ATOM      8  C   UNL     1       2.451   7.131  18.851  0.00  0.00    +0.000 C 
ATOM      9  C   UNL     1       2.238   8.184  17.775  0.00  0.00    +0.000 C 
ATOM     10  C   UNL     1       1.863   9.580  18.226  0.00  0.00    +0.000 C 
ATOM     11  C   UNL     1       1.064   9.660  19.491  0.00  0.00    +0.000 A 
ATOM     12  C   UNL     1       0.329  10.840  19.716  0.00  0.00    +0.000 A 
ATOM     13  C   UNL     1      -0.383  11.034  20.893  0.00  0.00    +0.000 A 
ATOM     14  C   UNL     1      -0.334  10.062  21.880  0.00  0.00    +0.000 A 
ATOM     15  C   UNL     1       0.423   8.900  21.681  0.00  0.00    +0.000 A 
ATOM     16  C   UNL     1       1.112   8.660  20.472  0.00  0.00    +0.000 A 
ENDBRANCH   6   7
ENDBRANCH   4   6
ENDBRANCH   1   3
BRANCH   1  17
ATOM     17  O   UNL     1       2.321   2.003  18.829  0.00  0.00    +0.000 OA
BRANCH  17  18
ATOM     18  C   UNL     1       3.413   2.848  18.759  0.00  0.00    +0.000 A 
ATOM     19  C   UNL     1       4.064   3.401  19.865  0.00  0.00    +0.000 A 
ATOM     20  C   UNL     1       5.153   4.255  19.690  0.00  0.00    +0.000 A 
ATOM     21  C   UNL     1       5.621   4.545  18.411  0.00  0.00    +0.000 A 
ATOM     22  C   UNL     1       5.020   3.977  17.286  0.00  0.00    +0.000 A 
ATOM     23  C   UNL     1       3.892   3.153  17.470  0.00  0.00    +0.000 A 
BRANCH  22  24
ATOM     24  N   UNL     1       5.512   4.193  15.974  0.00  0.00    +0.000 N 
ATOM     25  C   UNL     1       6.839   4.419  15.606  0.00  0.00    +0.000 C 
ATOM     26  O   UNL     1       7.786   4.467  16.383  0.00  0.00    +0.000 OA
ATOM     27  H   UNL     1       4.863   4.085  15.202  0.00  0.00    +0.000 HD
BRANCH  25  28
ATOM     28  C   UNL     1       7.039   4.552  14.172  0.00  0.00    +0.000 A 
ATOM     29  C   UNL     1       6.484   3.838  13.121  0.00  0.00    +0.000 A 
ATOM     30  C   UNL     1       7.018   4.382  11.930  0.00  0.00    +0.000 A 
ATOM     31  C   UNL     1       7.868   5.392  12.321  0.00  0.00    +0.000 A 
ATOM     32  O   UNL     1       7.886   5.507  13.675  0.00  0.00    +0.000 OA
ENDBRANCH  25  28
ENDBRANCH  22  24
ENDBRANCH  17  18
ENDBRANCH   1  17
TORSDOF 7
ENDMDL
