MODEL 1
REMARK VINA RESULT:      -8.1      0.000      0.000
REMARK  Name = 
REMARK  5 active torsions:
REMARK  status: ('A' for Active; 'I' for Inactive)
REMARK    1  A    between atoms: C_1  and  C_2
REMARK    2  A    between atoms: C_3  and  N_4
REMARK    3  A    between atoms: C_10  and  C_11
REMARK    4  A    between atoms: N_21  and  C_22
REMARK    5  A    between atoms: C_22  and  C_23
REMARK                            x       y       z     vdW  Elec       q    Type
REMARK                         _______ _______ _______ _____ _____    ______ ____
ROOT
ATOM      1  N   UNL     1       1.319   8.885  19.603  0.00  0.00    +0.000 N 
ATOM      2  C   UNL     1       2.163   8.479  18.584  0.00  0.00    +0.000 C 
ATOM      3  O   UNL     1       2.499   9.184  17.641  0.00  0.00    +0.000 OA
ATOM      4  N   UNL     1       2.626   7.148  18.679  0.00  0.00    +0.000 N 
ATOM      5  C   UNL     1       2.219   6.208  19.713  0.00  0.00    +0.000 C 
ATOM      6  C   UNL     1       3.284   5.166  20.008  0.00  0.00    +0.000 C 
ATOM      7  C   UNL     1       3.708   4.450  18.722  0.00  0.00    +0.000 C 
ATOM      8  C   UNL     1       4.471   3.181  19.097  0.00  0.00    +0.000 C 
ATOM      9  C   UNL     1       4.320   5.480  17.701  0.00  0.00    +0.000 C 
ATOM     10  C   UNL     1       4.682   4.809  16.348  0.00  0.00    +0.000 C 
ATOM     11  C   UNL     1       5.974   3.980  16.352  0.00  0.00    +0.000 C 
ATOM     12  C   UNL     1       7.168   4.660  17.015  0.00  0.00    +0.000 C 
ATOM     13  C   UNL     1       6.849   5.458  18.274  0.00  0.00    +0.000 C 
ATOM     14  C   UNL     1       5.573   6.275  18.155  0.00  0.00    +0.000 C 
ATOM     15  C   UNL     1       3.192   6.547  17.448  0.00  0.00    +0.000 C 
ATOM     16  H   UNL     1       1.062   8.261  20.338  0.00  0.00    +0.000 HD
ENDROOT
BRANCH   1  19
ATOM     17  C   UNL     1      -1.077  10.042  17.789  0.00  0.00    +0.000 C 
ATOM     18  C   UNL     1      -0.289  10.627  18.901  0.00  0.00    +0.000 A 
ATOM     19  C   UNL     1       0.756  10.146  19.677  0.00  0.00    +0.000 A 
ATOM     20  N   UNL     1       1.151  11.111  20.555  0.00  0.00    +0.000 NA
ATOM     21  N   UNL     1       0.374  12.168  20.396  0.00  0.00    +0.000 NA
ATOM     22  N   UNL     1      -0.507  11.886  19.420  0.00  0.00    +0.000 N 
BRANCH  22  23
ATOM     23  C   UNL     1      -1.562  12.854  19.141  0.00  0.00    +0.000 C 
BRANCH  23  24
ATOM     24  C   UNL     1      -2.750  12.661  20.045  0.00  0.00    +0.000 A 
ATOM     25  C   UNL     1      -2.662  12.876  21.430  0.00  0.00    +0.000 A 
ATOM     26  C   UNL     1      -3.811  12.842  22.225  0.00  0.00    +0.000 A 
ATOM     27  C   UNL     1      -5.052  12.568  21.652  0.00  0.00    +0.000 A 
ATOM     28  C   UNL     1      -5.136  12.268  20.293  0.00  0.00    +0.000 A 
ATOM     29  C   UNL     1      -3.988  12.304  19.508  0.00  0.00    +0.000 A 
ATOM     30  F   UNL     1      -4.089  12.013  18.203  0.00  0.00    +0.000 F 
ENDBRANCH  23  24
ENDBRANCH  22  23
ENDBRANCH   1  19
TORSDOF 3
ENDMDL
MODEL 2
REMARK VINA RESULT:      -8.1      0.972      1.058
REMARK  Name = 
REMARK  5 active torsions:
REMARK  status: ('A' for Active; 'I' for Inactive)
REMARK    1  A    between atoms: C_1  and  C_2
REMARK    2  A    between atoms: C_3  and  N_4
REMARK    3  A    between atoms: C_10  and  C_11
REMARK    4  A    between atoms: N_21  and  C_22
REMARK    5  A    between atoms: C_22  and  C_23
REMARK                            x       y       z     vdW  Elec       q    Type
REMARK                         _______ _______ _______ _____ _____    ______ ____
ROOT
ATOM      1  N   UNL     1       1.120   8.758  20.458  0.00  0.00    +0.000 N 
ATOM      2  C   UNL     1       1.886   8.371  19.372  0.00  0.00    +0.000 C 
ATOM      3  O   UNL     1       2.241   9.123  18.472  0.00  0.00    +0.000 OA
ATOM      4  N   UNL     1       2.241   7.005  19.340  0.00  0.00    +0.000 N 
ATOM      5  C   UNL     1       1.801   6.018  20.315  0.00  0.00    +0.000 C 
ATOM      6  C   UNL     1       2.788   4.875  20.477  0.00  0.00    +0.000 C 
ATOM      7  C   UNL     1       3.099   4.236  19.121  0.00  0.00    +0.000 C 
ATOM      8  C   UNL     1       3.770   2.884  19.359  0.00  0.00    +0.000 C 
ATOM      9  C   UNL     1       3.752   5.294  18.156  0.00  0.00    +0.000 C 
ATOM     10  C   UNL     1       4.002   4.710  16.739  0.00  0.00    +0.000 C 
ATOM     11  C   UNL     1       5.221   3.785  16.618  0.00  0.00    +0.000 C 
ATOM     12  C   UNL     1       6.493   4.312  17.275  0.00  0.00    +0.000 C 
ATOM     13  C   UNL     1       6.292   5.027  18.606  0.00  0.00    +0.000 C 
ATOM     14  C   UNL     1       5.083   5.949  18.612  0.00  0.00    +0.000 C 
ATOM     15  C   UNL     1       2.706   6.464  18.041  0.00  0.00    +0.000 C 
ATOM     16  H   UNL     1       0.842   8.098  21.153  0.00  0.00    +0.000 HD
ENDROOT
BRANCH   1  19
ATOM     17  C   UNL     1      -1.220  10.257  18.830  0.00  0.00    +0.000 C 
ATOM     18  C   UNL     1      -0.356  10.677  19.960  0.00  0.00    +0.000 A 
ATOM     19  C   UNL     1       0.667  10.049  20.657  0.00  0.00    +0.000 A 
ATOM     20  N   UNL     1       1.163  10.899  21.599  0.00  0.00    +0.000 NA
ATOM     21  N   UNL     1       0.473  12.025  21.555  0.00  0.00    +0.000 NA
ATOM     22  N   UNL     1      -0.455  11.901  20.590  0.00  0.00    +0.000 N 
BRANCH  22  23
ATOM     23  C   UNL     1      -1.432  12.971  20.430  0.00  0.00    +0.000 C 
BRANCH  23  24
ATOM     24  C   UNL     1      -2.599  12.805  21.365  0.00  0.00    +0.000 A 
ATOM     25  C   UNL     1      -2.426  12.780  22.759  0.00  0.00    +0.000 A 
ATOM     26  C   UNL     1      -3.534  12.782  23.610  0.00  0.00    +0.000 A 
ATOM     27  C   UNL     1      -4.824  12.783  23.080  0.00  0.00    +0.000 A 
ATOM     28  C   UNL     1      -5.006  12.720  21.700  0.00  0.00    +0.000 A 
ATOM     29  C   UNL     1      -3.897  12.719  20.859  0.00  0.00    +0.000 A 
ATOM     30  F   UNL     1      -4.092  12.659  19.534  0.00  0.00    +0.000 F 
ENDBRANCH  23  24
ENDBRANCH  22  23
ENDBRANCH   1  19
TORSDOF 3
ENDMDL
MODEL 3
REMARK VINA RESULT:      -8.0      2.697      9.993
REMARK  Name = 
REMARK  5 active torsions:
REMARK  status: ('A' for Active; 'I' for Inactive)
REMARK    1  A    between atoms: C_1  and  C_2
REMARK    2  A    between atoms: C_3  and  N_4
REMARK    3  A    between atoms: C_10  and  C_11
REMARK    4  A    between atoms: N_21  and  C_22
REMARK    5  A    between atoms: C_22  and  C_23
REMARK                            x       y       z     vdW  Elec       q    Type
REMARK                         _______ _______ _______ _____ _____    ______ ____
ROOT
ATOM      1  N   UNL     1       1.513   8.621  20.107  0.00  0.00    +0.000 N 
ATOM      2  C   UNL     1       1.004   9.837  19.684  0.00  0.00    +0.000 C 
ATOM      3  O   UNL     1       1.082  10.259  18.536  0.00  0.00    +0.000 OA
ATOM      4  N   UNL     1       0.378  10.611  20.686  0.00  0.00    +0.000 N 
ATOM      5  C   UNL     1       0.308  10.235  22.090  0.00  0.00    +0.000 C 
ATOM      6  C   UNL     1      -0.913  10.808  22.789  0.00  0.00    +0.000 C 
ATOM      7  C   UNL     1      -0.977  12.326  22.601  0.00  0.00    +0.000 C 
ATOM      8  C   UNL     1      -1.969  12.902  23.610  0.00  0.00    +0.000 C 
ATOM      9  C   UNL     1      -1.094  12.682  21.072  0.00  0.00    +0.000 C 
ATOM     10  C   UNL     1      -1.073  14.217  20.831  0.00  0.00    +0.000 C 
ATOM     11  C   UNL     1      -2.387  14.947  21.145  0.00  0.00    +0.000 C 
ATOM     12  C   UNL     1      -3.640  14.277  20.591  0.00  0.00    +0.000 C 
ATOM     13  C   UNL     1      -3.654  12.754  20.668  0.00  0.00    +0.000 C 
ATOM     14  C   UNL     1      -2.320  12.125  20.301  0.00  0.00    +0.000 C 
ATOM     15  C   UNL     1       0.175  12.049  20.392  0.00  0.00    +0.000 C 
ATOM     16  H   UNL     1       1.438   8.336  21.060  0.00  0.00    +0.000 HD
ENDROOT
BRANCH   1  19
ATOM     17  C   UNL     1       1.853   5.450  20.553  0.00  0.00    +0.000 C 
ATOM     18  C   UNL     1       2.293   6.364  19.470  0.00  0.00    +0.000 A 
ATOM     19  C   UNL     1       2.168   7.732  19.275  0.00  0.00    +0.000 A 
ATOM     20  N   UNL     1       2.786   8.083  18.113  0.00  0.00    +0.000 NA
ATOM     21  N   UNL     1       3.262   6.990  17.542  0.00  0.00    +0.000 NA
ATOM     22  N   UNL     1       2.957   5.948  18.335  0.00  0.00    +0.000 N 
BRANCH  22  23
ATOM     23  C   UNL     1       3.266   4.604  17.859  0.00  0.00    +0.000 C 
BRANCH  23  24
ATOM     24  C   UNL     1       4.692   4.492  17.392  0.00  0.00    +0.000 A 
ATOM     25  C   UNL     1       5.007   4.265  16.042  0.00  0.00    +0.000 A 
ATOM     26  C   UNL     1       6.334   4.319  15.607  0.00  0.00    +0.000 A 
ATOM     27  C   UNL     1       7.360   4.572  16.517  0.00  0.00    +0.000 A 
ATOM     28  C   UNL     1       7.065   4.712  17.872  0.00  0.00    +0.000 A 
ATOM     29  C   UNL     1       5.742   4.658  18.297  0.00  0.00    +0.000 A 
ATOM     30  F   UNL     1       5.478   4.795  19.604  0.00  0.00    +0.000 F 
ENDBRANCH  23  24
ENDBRANCH  22  23
ENDBRANCH   1  19
TORSDOF 3
ENDMDL
MODEL 4
REMARK VINA RESULT:      -8.0      2.681     10.093
REMARK  Name = 
REMARK  5 active torsions:
REMARK  status: ('A' for Active; 'I' for Inactive)
REMARK    1  A    between atoms: C_1  and  C_2
REMARK    2  A    between atoms: C_3  and  N_4
REMARK    3  A    between atoms: C_10  and  C_11
REMARK    4  A    between atoms: N_21  and  C_22
REMARK    5  A    between atoms: C_22  and  C_23
REMARK                            x       y       z     vdW  Elec       q    Type
REMARK                         _______ _______ _______ _____ _____    ______ ____
ROOT
ATOM      1  N   UNL     1       0.957  10.846  19.713  0.00  0.00    +0.000 N 
ATOM      2  C   UNL     1      -0.404  11.033  19.874  0.00  0.00    +0.000 C 
ATOM      3  O   UNL     1      -1.265  10.301  19.400  0.00  0.00    +0.000 OA
ATOM      4  N   UNL     1      -0.773  12.167  20.630  0.00  0.00    +0.000 N 
ATOM      5  C   UNL     1       0.170  13.140  21.164  0.00  0.00    +0.000 C 
ATOM      6  C   UNL     1      -0.339  13.815  22.426  0.00  0.00    +0.000 C 
ATOM      7  C   UNL     1      -1.720  14.431  22.188  0.00  0.00    +0.000 C 
ATOM      8  C   UNL     1      -2.023  15.408  23.324  0.00  0.00    +0.000 C 
ATOM      9  C   UNL     1      -2.756  13.313  21.798  0.00  0.00    +0.000 C 
ATOM     10  C   UNL     1      -4.151  13.907  21.460  0.00  0.00    +0.000 C 
ATOM     11  C   UNL     1      -4.995  14.325  22.673  0.00  0.00    +0.000 C 
ATOM     12  C   UNL     1      -5.044  13.301  23.802  0.00  0.00    +0.000 C 
ATOM     13  C   UNL     1      -3.733  12.576  24.084  0.00  0.00    +0.000 C 
ATOM     14  C   UNL     1      -2.992  12.170  22.820  0.00  0.00    +0.000 C 
ATOM     15  C   UNL     1      -2.175  12.630  20.505  0.00  0.00    +0.000 C 
ATOM     16  H   UNL     1       1.614  11.486  20.105  0.00  0.00    +0.000 HD
ENDROOT
BRANCH   1  19
ATOM     17  C   UNL     1       1.517   7.859  20.777  0.00  0.00    +0.000 C 
ATOM     18  C   UNL     1       1.729   8.511  19.462  0.00  0.00    +0.000 A 
ATOM     19  C   UNL     1       1.509   9.800  18.997  0.00  0.00    +0.000 A 
ATOM     20  N   UNL     1       1.910   9.888  17.697  0.00  0.00    +0.000 NA
ATOM     21  N   UNL     1       2.337   8.700  17.307  0.00  0.00    +0.000 NA
ATOM     22  N   UNL     1       2.217   7.858  18.349  0.00  0.00    +0.000 N 
BRANCH  22  23
ATOM     23  C   UNL     1       2.507   6.446  18.133  0.00  0.00    +0.000 C 
BRANCH  23  24
ATOM     24  C   UNL     1       3.987   6.174  18.128  0.00  0.00    +0.000 A 
ATOM     25  C   UNL     1       4.825   6.690  17.125  0.00  0.00    +0.000 A 
ATOM     26  C   UNL     1       6.213   6.556  17.225  0.00  0.00    +0.000 A 
ATOM     27  C   UNL     1       6.775   5.885  18.310  0.00  0.00    +0.000 A 
ATOM     28  C   UNL     1       5.948   5.295  19.265  0.00  0.00    +0.000 A 
ATOM     29  C   UNL     1       4.568   5.433  19.158  0.00  0.00    +0.000 A 
ATOM     30  F   UNL     1       3.788   4.860  20.086  0.00  0.00    +0.000 F 
ENDBRANCH  23  24
ENDBRANCH  22  23
ENDBRANCH   1  19
TORSDOF 3
ENDMDL
MODEL 5
REMARK VINA RESULT:      -8.0      1.689      2.468
REMARK  Name = 
REMARK  5 active torsions:
REMARK  status: ('A' for Active; 'I' for Inactive)
REMARK    1  A    between atoms: C_1  and  C_2
REMARK    2  A    between atoms: C_3  and  N_4
REMARK    3  A    between atoms: C_10  and  C_11
REMARK    4  A    between atoms: N_21  and  C_22
REMARK    5  A    between atoms: C_22  and  C_23
REMARK                            x       y       z     vdW  Elec       q    Type
REMARK                         _______ _______ _______ _____ _____    ______ ____
ROOT
ATOM      1  N   UNL     1       1.282   8.435  20.253  0.00  0.00    +0.000 N 
ATOM      2  C   UNL     1       2.121   8.176  19.184  0.00  0.00    +0.000 C 
ATOM      3  O   UNL     1       2.474   9.013  18.362  0.00  0.00    +0.000 OA
ATOM      4  N   UNL     1       2.559   6.838  19.070  0.00  0.00    +0.000 N 
ATOM      5  C   UNL     1       2.130   5.757  19.946  0.00  0.00    +0.000 C 
ATOM      6  C   UNL     1       3.175   4.661  20.075  0.00  0.00    +0.000 C 
ATOM      7  C   UNL     1       3.589   4.146  18.694  0.00  0.00    +0.000 C 
ATOM      8  C   UNL     1       4.326   2.819  18.867  0.00  0.00    +0.000 C 
ATOM      9  C   UNL     1       4.224   5.309  17.846  0.00  0.00    +0.000 C 
ATOM     10  C   UNL     1       4.578   4.851  16.405  0.00  0.00    +0.000 C 
ATOM     11  C   UNL     1       5.854   4.006  16.281  0.00  0.00    +0.000 C 
ATOM     12  C   UNL     1       7.058   4.551  17.042  0.00  0.00    +0.000 C 
ATOM     13  C   UNL     1       6.750   5.150  18.409  0.00  0.00    +0.000 C 
ATOM     14  C   UNL     1       5.490   6.000  18.419  0.00  0.00    +0.000 C 
ATOM     15  C   UNL     1       3.118   6.425  17.761  0.00  0.00    +0.000 C 
ATOM     16  H   UNL     1       1.010   7.710  20.881  0.00  0.00    +0.000 HD
ENDROOT
BRANCH   1  19
ATOM     17  C   UNL     1      -0.926  10.003  18.511  0.00  0.00    +0.000 C 
ATOM     18  C   UNL     1      -0.222  10.337  19.773  0.00  0.00    +0.000 A 
ATOM     19  C   UNL     1       0.743   9.680  20.522  0.00  0.00    +0.000 A 
ATOM     20  N   UNL     1       1.084  10.446  21.596  0.00  0.00    +0.000 NA
ATOM     21  N   UNL     1       0.347  11.543  21.581  0.00  0.00    +0.000 NA
ATOM     22  N   UNL     1      -0.455  11.484  20.504  0.00  0.00    +0.000 N 
BRANCH  22  23
ATOM     23  C   UNL     1      -1.461  12.526  20.333  0.00  0.00    +0.000 C 
BRANCH  23  24
ATOM     24  C   UNL     1      -0.834  13.869  20.075  0.00  0.00    +0.000 A 
ATOM     25  C   UNL     1      -0.755  14.848  21.079  0.00  0.00    +0.000 A 
ATOM     26  C   UNL     1      -0.033  16.025  20.865  0.00  0.00    +0.000 A 
ATOM     27  C   UNL     1       0.594  16.249  19.639  0.00  0.00    +0.000 A 
ATOM     28  C   UNL     1       0.448  15.323  18.607  0.00  0.00    +0.000 A 
ATOM     29  C   UNL     1      -0.271  14.154  18.829  0.00  0.00    +0.000 A 
ATOM     30  F   UNL     1      -0.400  13.275  17.825  0.00  0.00    +0.000 F 
ENDBRANCH  23  24
ENDBRANCH  22  23
ENDBRANCH   1  19
TORSDOF 3
ENDMDL
MODEL 6
REMARK VINA RESULT:      -8.0      2.389      2.977
REMARK  Name = 
REMARK  5 active torsions:
REMARK  status: ('A' for Active; 'I' for Inactive)
REMARK    1  A    between atoms: C_1  and  C_2
REMARK    2  A    between atoms: C_3  and  N_4
REMARK    3  A    between atoms: C_10  and  C_11
REMARK    4  A    between atoms: N_21  and  C_22
REMARK    5  A    between atoms: C_22  and  C_23
REMARK                            x       y       z     vdW  Elec       q    Type
REMARK                         _______ _______ _______ _____ _____    ______ ____
ROOT
ATOM      1  N   UNL     1       0.968   7.875  21.217  0.00  0.00    +0.000 N 
ATOM      2  C   UNL     1       1.805   7.796  20.118  0.00  0.00    +0.000 C 
ATOM      3  O   UNL     1       2.173   8.759  19.456  0.00  0.00    +0.000 OA
ATOM      4  N   UNL     1       2.223   6.493  19.770  0.00  0.00    +0.000 N 
ATOM      5  C   UNL     1       1.777   5.280  20.441  0.00  0.00    +0.000 C 
ATOM      6  C   UNL     1       2.805   4.164  20.375  0.00  0.00    +0.000 C 
ATOM      7  C   UNL     1       3.214   3.894  18.924  0.00  0.00    +0.000 C 
ATOM      8  C   UNL     1       3.931   2.547  18.860  0.00  0.00    +0.000 C 
ATOM      9  C   UNL     1       3.868   5.179  18.294  0.00  0.00    +0.000 C 
ATOM     10  C   UNL     1       4.218   4.976  16.794  0.00  0.00    +0.000 C 
ATOM     11  C   UNL     1       5.481   4.148  16.523  0.00  0.00    +0.000 C 
ATOM     12  C   UNL     1       6.692   4.532  17.367  0.00  0.00    +0.000 C 
ATOM     13  C   UNL     1       6.390   4.886  18.819  0.00  0.00    +0.000 C 
ATOM     14  C   UNL     1       5.143   5.739  18.979  0.00  0.00    +0.000 C 
ATOM     15  C   UNL     1       2.778   6.309  18.408  0.00  0.00    +0.000 C 
ATOM     16  H   UNL     1       0.684   7.055  21.708  0.00  0.00    +0.000 HD
ENDROOT
BRANCH   1  19
ATOM     17  C   UNL     1      -0.808  10.014  19.591  0.00  0.00    +0.000 C 
ATOM     18  C   UNL     1      -0.332   9.966  20.995  0.00  0.00    +0.000 A 
ATOM     19  C   UNL     1       0.447   9.061  21.701  0.00  0.00    +0.000 A 
ATOM     20  N   UNL     1       0.620   9.509  22.977  0.00  0.00    +0.000 NA
ATOM     21  N   UNL     1      -0.050  10.639  23.120  0.00  0.00    +0.000 NA
ATOM     22  N   UNL     1      -0.642  10.917  21.945  0.00  0.00    +0.000 N 
BRANCH  22  23
ATOM     23  C   UNL     1      -1.550  12.056  21.882  0.00  0.00    +0.000 C 
BRANCH  23  24
ATOM     24  C   UNL     1      -0.880  13.329  22.324  0.00  0.00    +0.000 A 
ATOM     25  C   UNL     1       0.249  13.834  21.660  0.00  0.00    +0.000 A 
ATOM     26  C   UNL     1       0.760  15.093  21.989  0.00  0.00    +0.000 A 
ATOM     27  C   UNL     1       0.166  15.847  23.001  0.00  0.00    +0.000 A 
ATOM     28  C   UNL     1      -0.901  15.317  23.724  0.00  0.00    +0.000 A 
ATOM     29  C   UNL     1      -1.404  14.063  23.390  0.00  0.00    +0.000 A 
ATOM     30  F   UNL     1      -2.431  13.570  24.096  0.00  0.00    +0.000 F 
ENDBRANCH  23  24
ENDBRANCH  22  23
ENDBRANCH   1  19
TORSDOF 3
ENDMDL
MODEL 7
REMARK VINA RESULT:      -7.9      1.378      2.549
REMARK  Name = 
REMARK  5 active torsions:
REMARK  status: ('A' for Active; 'I' for Inactive)
REMARK    1  A    between atoms: C_1  and  C_2
REMARK    2  A    between atoms: C_3  and  N_4
REMARK    3  A    between atoms: C_10  and  C_11
REMARK    4  A    between atoms: N_21  and  C_22
REMARK    5  A    between atoms: C_22  and  C_23
REMARK                            x       y       z     vdW  Elec       q    Type
REMARK                         _______ _______ _______ _____ _____    ______ ____
ROOT
ATOM      1  N   UNL     1       2.018   9.598  18.344  0.00  0.00    +0.000 N 
ATOM      2  C   UNL     1       1.974   8.389  19.017  0.00  0.00    +0.000 C 
ATOM      3  O   UNL     1       1.246   8.155  19.974  0.00  0.00    +0.000 OA
ATOM      4  N   UNL     1       2.859   7.399  18.537  0.00  0.00    +0.000 N 
ATOM      5  C   UNL     1       3.819   7.607  17.463  0.00  0.00    +0.000 C 
ATOM      6  C   UNL     1       4.134   6.328  16.705  0.00  0.00    +0.000 C 
ATOM      7  C   UNL     1       4.587   5.228  17.670  0.00  0.00    +0.000 C 
ATOM      8  C   UNL     1       5.248   4.112  16.863  0.00  0.00    +0.000 C 
ATOM      9  C   UNL     1       3.442   4.901  18.699  0.00  0.00    +0.000 C 
ATOM     10  C   UNL     1       3.892   3.852  19.752  0.00  0.00    +0.000 C 
ATOM     11  C   UNL     1       3.922   2.398  19.257  0.00  0.00    +0.000 C 
ATOM     12  C   UNL     1       2.686   1.963  18.478  0.00  0.00    +0.000 C 
ATOM     13  C   UNL     1       2.109   3.009  17.531  0.00  0.00    +0.000 C 
ATOM     14  C   UNL     1       2.087   4.407  18.126  0.00  0.00    +0.000 C 
ATOM     15  C   UNL     1       3.137   6.256  19.438  0.00  0.00    +0.000 C 
ATOM     16  H   UNL     1       2.646   9.741  17.583  0.00  0.00    +0.000 HD
ENDROOT
BRANCH   1  19
ATOM     17  C   UNL     1      -1.156   9.905  17.897  0.00  0.00    +0.000 C 
ATOM     18  C   UNL     1      -0.136  10.802  18.493  0.00  0.00    +0.000 A 
ATOM     19  C   UNL     1       1.235  10.689  18.674  0.00  0.00    +0.000 A 
ATOM     20  N   UNL     1       1.712  11.828  19.252  0.00  0.00    +0.000 NA
ATOM     21  N   UNL     1       0.696  12.641  19.480  0.00  0.00    +0.000 NA
ATOM     22  N   UNL     1      -0.423  12.032  19.048  0.00  0.00    +0.000 N 
BRANCH  22  23
ATOM     23  C   UNL     1      -1.705  12.677  19.305  0.00  0.00    +0.000 C 
BRANCH  23  24
ATOM     24  C   UNL     1      -2.189  12.418  20.706  0.00  0.00    +0.000 A 
ATOM     25  C   UNL     1      -1.357  11.834  21.675  0.00  0.00    +0.000 A 
ATOM     26  C   UNL     1      -1.774  11.745  23.006  0.00  0.00    +0.000 A 
ATOM     27  C   UNL     1      -3.034  12.213  23.377  0.00  0.00    +0.000 A 
ATOM     28  C   UNL     1      -3.900  12.715  22.407  0.00  0.00    +0.000 A 
ATOM     29  C   UNL     1      -3.477  12.801  21.085  0.00  0.00    +0.000 A 
ATOM     30  F   UNL     1      -4.324  13.287  20.166  0.00  0.00    +0.000 F 
ENDBRANCH  23  24
ENDBRANCH  22  23
ENDBRANCH   1  19
TORSDOF 3
ENDMDL
MODEL 8
REMARK VINA RESULT:      -7.9      1.666      2.049
REMARK  Name = 
REMARK  5 active torsions:
REMARK  status: ('A' for Active; 'I' for Inactive)
REMARK    1  A    between atoms: C_1  and  C_2
REMARK    2  A    between atoms: C_3  and  N_4
REMARK    3  A    between atoms: C_10  and  C_11
REMARK    4  A    between atoms: N_21  and  C_22
REMARK    5  A    between atoms: C_22  and  C_23
REMARK                            x       y       z     vdW  Elec       q    Type
REMARK                         _______ _______ _______ _____ _____    ______ ____
ROOT
ATOM      1  N   UNL     1       1.029   8.601  20.636  0.00  0.00    +0.000 N 
ATOM      2  C   UNL     1       1.811   8.263  19.545  0.00  0.00    +0.000 C 
ATOM      3  O   UNL     1       2.154   9.048  18.670  0.00  0.00    +0.000 OA
ATOM      4  N   UNL     1       2.197   6.907  19.476  0.00  0.00    +0.000 N 
ATOM      5  C   UNL     1       1.773   5.883  20.420  0.00  0.00    +0.000 C 
ATOM      6  C   UNL     1       2.784   4.758  20.556  0.00  0.00    +0.000 C 
ATOM      7  C   UNL     1       3.118   4.165  19.184  0.00  0.00    +0.000 C 
ATOM      8  C   UNL     1       3.818   2.823  19.388  0.00  0.00    +0.000 C 
ATOM      9  C   UNL     1       3.754   5.265  18.255  0.00  0.00    +0.000 C 
ATOM     10  C   UNL     1       4.026   4.728  16.823  0.00  0.00    +0.000 C 
ATOM     11  C   UNL     1       5.266   3.834  16.684  0.00  0.00    +0.000 C 
ATOM     12  C   UNL     1       6.521   4.370  17.365  0.00  0.00    +0.000 C 
ATOM     13  C   UNL     1       6.295   5.042  18.715  0.00  0.00    +0.000 C 
ATOM     14  C   UNL     1       5.067   5.936  18.739  0.00  0.00    +0.000 C 
ATOM     15  C   UNL     1       2.682   6.414  18.166  0.00  0.00    +0.000 C 
ATOM     16  H   UNL     1       0.762   7.916  21.310  0.00  0.00    +0.000 HD
ENDROOT
BRANCH   1  19
ATOM     17  C   UNL     1      -1.163  10.186  18.888  0.00  0.00    +0.000 C 
ATOM     18  C   UNL     1      -0.413  10.541  20.118  0.00  0.00    +0.000 A 
ATOM     19  C   UNL     1       0.546   9.876  20.869  0.00  0.00    +0.000 A 
ATOM     20  N   UNL     1       0.943  10.669  21.903  0.00  0.00    +0.000 NA
ATOM     21  N   UNL     1       0.248  11.792  21.863  0.00  0.00    +0.000 NA
ATOM     22  N   UNL     1      -0.584  11.723  20.809  0.00  0.00    +0.000 N 
BRANCH  22  23
ATOM     23  C   UNL     1      -1.553  12.796  20.621  0.00  0.00    +0.000 C 
BRANCH  23  24
ATOM     24  C   UNL     1      -2.229  13.169  21.913  0.00  0.00    +0.000 A 
ATOM     25  C   UNL     1      -3.114  12.290  22.559  0.00  0.00    +0.000 A 
ATOM     26  C   UNL     1      -3.609  12.592  23.831  0.00  0.00    +0.000 A 
ATOM     27  C   UNL     1      -3.247  13.784  24.458  0.00  0.00    +0.000 A 
ATOM     28  C   UNL     1      -2.439  14.702  23.788  0.00  0.00    +0.000 A 
ATOM     29  C   UNL     1      -1.950  14.393  22.523  0.00  0.00    +0.000 A 
ATOM     30  F   UNL     1      -1.174  15.288  21.894  0.00  0.00    +0.000 F 
ENDBRANCH  23  24
ENDBRANCH  22  23
ENDBRANCH   1  19
TORSDOF 3
ENDMDL
MODEL 9
REMARK VINA RESULT:      -7.9      6.842      9.687
REMARK  Name = 
REMARK  5 active torsions:
REMARK  status: ('A' for Active; 'I' for Inactive)
REMARK    1  A    between atoms: C_1  and  C_2
REMARK    2  A    between atoms: C_3  and  N_4
REMARK    3  A    between atoms: C_10  and  C_11
REMARK    4  A    between atoms: N_21  and  C_22
REMARK    5  A    between atoms: C_22  and  C_23
REMARK                            x       y       z     vdW  Elec       q    Type
REMARK                         _______ _______ _______ _____ _____    ______ ____
ROOT
ATOM      1  N   UNL     1       7.107   8.245  17.344  0.00  0.00    +0.000 N 
ATOM      2  C   UNL     1       8.069   8.743  18.206  0.00  0.00    +0.000 C 
ATOM      3  O   UNL     1       8.780   8.050  18.923  0.00  0.00    +0.000 OA
ATOM      4  N   UNL     1       8.187  10.149  18.232  0.00  0.00    +0.000 N 
ATOM      5  C   UNL     1       7.334  11.059  17.481  0.00  0.00    +0.000 C 
ATOM      6  C   UNL     1       8.033  12.363  17.136  0.00  0.00    +0.000 C 
ATOM      7  C   UNL     1       8.597  13.022  18.397  0.00  0.00    +0.000 C 
ATOM      8  C   UNL     1       8.940  14.476  18.078  0.00  0.00    +0.000 C 
ATOM      9  C   UNL     1       9.660  12.080  19.076  0.00  0.00    +0.000 C 
ATOM     10  C   UNL     1      10.193  12.673  20.409  0.00  0.00    +0.000 C 
ATOM     11  C   UNL     1      11.226  13.799  20.258  0.00  0.00    +0.000 C 
ATOM     12  C   UNL     1      12.333  13.520  19.247  0.00  0.00    +0.000 C 
ATOM     13  C   UNL     1      11.893  12.805  17.975  0.00  0.00    +0.000 C 
ATOM     14  C   UNL     1      10.902  11.682  18.234  0.00  0.00    +0.000 C 
ATOM     15  C   UNL     1       8.897  10.740  19.391  0.00  0.00    +0.000 C 
ATOM     16  H   UNL     1       6.541   8.858  16.796  0.00  0.00    +0.000 HD
ENDROOT
BRANCH   1  19
ATOM     17  C   UNL     1       4.205   6.851  17.266  0.00  0.00    +0.000 C 
ATOM     18  C   UNL     1       5.581   6.311  17.138  0.00  0.00    +0.000 A 
ATOM     19  C   UNL     1       6.838   6.898  17.188  0.00  0.00    +0.000 A 
ATOM     20  N   UNL     1       7.793   5.937  17.044  0.00  0.00    +0.000 NA
ATOM     21  N   UNL     1       7.195   4.773  16.864  0.00  0.00    +0.000 NA
ATOM     22  N   UNL     1       5.868   4.983  16.899  0.00  0.00    +0.000 N 
BRANCH  22  23
ATOM     23  C   UNL     1       4.983   3.864  16.598  0.00  0.00    +0.000 C 
BRANCH  23  24
ATOM     24  C   UNL     1       3.877   3.739  17.611  0.00  0.00    +0.000 A 
ATOM     25  C   UNL     1       2.526   3.833  17.239  0.00  0.00    +0.000 A 
ATOM     26  C   UNL     1       1.516   3.560  18.166  0.00  0.00    +0.000 A 
ATOM     27  C   UNL     1       1.843   3.216  19.478  0.00  0.00    +0.000 A 
ATOM     28  C   UNL     1       3.179   3.205  19.878  0.00  0.00    +0.000 A 
ATOM     29  C   UNL     1       4.178   3.478  18.949  0.00  0.00    +0.000 A 
ATOM     30  F   UNL     1       5.456   3.462  19.352  0.00  0.00    +0.000 F 
ENDBRANCH  23  24
ENDBRANCH  22  23
ENDBRANCH   1  19
TORSDOF 3
ENDMDL
