MODEL 1
REMARK VINA RESULT:      -8.9      0.000      0.000
REMARK  Name = 
REMARK  7 active torsions:
REMARK  status: ('A' for Active; 'I' for Inactive)
REMARK    1  A    between atoms: C_1  and  N_2
REMARK    2  A    between atoms: C_6  and  C_7
REMARK    3  A    between atoms: C_7  and  C_8
REMARK    4  A    between atoms: C_8  and  O_9
REMARK    5  A    between atoms: O_9  and  C_10
REMARK    6  A    between atoms: C_14  and  N_15
REMARK    7  A    between atoms: C_23  and  C_24
REMARK                            x       y       z     vdW  Elec       q    Type
REMARK                         _______ _______ _______ _____ _____    ______ ____
ROOT
ATOM      1  C   UNL     1       2.062   6.943  20.042  0.00  0.00    +0.000 A 
ATOM      2  C   UNL     1       2.441   7.868  19.063  0.00  0.00    +0.000 A 
ATOM      3  C   UNL     1       2.998   7.436  17.866  0.00  0.00    +0.000 A 
ATOM      4  C   UNL     1       3.316   6.097  17.702  0.00  0.00    +0.000 A 
ATOM      5  C   UNL     1       3.223   5.228  18.799  0.00  0.00    +0.000 A 
ATOM      6  C   UNL     1       2.465   5.615  19.914  0.00  0.00    +0.000 A 
ENDROOT
BRANCH   5   7
ATOM      7  N   UNL     1       4.240   4.202  18.976  0.00  0.00    +0.000 N 
ATOM      8  C   UNL     1       5.566   4.825  19.200  0.00  0.00    +0.000 C 
ATOM      9  C   UNL     1       6.122   4.884  17.812  0.00  0.00    +0.000 A 
ATOM     10  C   UNL     1       5.529   3.857  17.072  0.00  0.00    +0.000 A 
ATOM     11  C   UNL     1       5.713   3.714  15.711  0.00  0.00    +0.000 A 
ATOM     12  C   UNL     1       6.515   4.664  15.090  0.00  0.00    +0.000 A 
ATOM     13  F   UNL     1       6.668   4.622  13.760  0.00  0.00    +0.000 F 
ATOM     14  C   UNL     1       7.100   5.720  15.806  0.00  0.00    +0.000 A 
ATOM     15  C   UNL     1       6.911   5.849  17.194  0.00  0.00    +0.000 A 
ATOM     16  C   UNL     1       4.413   3.311  17.880  0.00  0.00    +0.000 C 
ATOM     17  O   UNL     1       3.685   2.412  17.511  0.00  0.00    +0.000 OA
BRANCH  15  18
ATOM     18  C   UNL     1       7.406   7.065  17.930  0.00  0.00    +0.000 C 
ATOM     19  F   UNL     1       8.349   6.765  18.861  0.00  0.00    +0.000 F 
ATOM     20  F   UNL     1       7.974   7.987  17.107  0.00  0.00    +0.000 F 
ENDBRANCH  15  18
ENDBRANCH   5   7
BRANCH   1  21
ATOM     21  O   UNL     1       1.361   7.257  21.180  0.00  0.00    +0.000 OA
BRANCH  21  22
ATOM     22  C   UNL     1       1.095   8.655  21.322  0.00  0.00    +0.000 C 
BRANCH  22  23
ATOM     23  C   UNL     1      -0.375   8.905  21.647  0.00  0.00    +0.000 C 
BRANCH  23  29
ATOM     24  C   UNL     1      -0.987  11.223  19.637  0.00  0.00    +0.000 C 
ATOM     25  N   UNL     1      -0.802  11.346  21.054  0.00  0.00    +0.000 N 
ATOM     26  C   UNL     1      -0.830  12.505  21.770  0.00  0.00    +0.000 A 
ATOM     27  N   UNL     1      -0.637  12.248  23.039  0.00  0.00    +0.000 NA
ATOM     28  N   UNL     1      -0.472  10.894  23.164  0.00  0.00    +0.000 NA
ATOM     29  C   UNL     1      -0.562  10.350  21.963  0.00  0.00    +0.000 A 
ENDBRANCH  23  29
ENDBRANCH  22  23
ENDBRANCH  21  22
ENDBRANCH   1  21
TORSDOF 6
ENDMDL
MODEL 2
REMARK VINA RESULT:      -8.7      5.054      7.220
REMARK  Name = 
REMARK  7 active torsions:
REMARK  status: ('A' for Active; 'I' for Inactive)
REMARK    1  A    between atoms: C_1  and  N_2
REMARK    2  A    between atoms: C_6  and  C_7
REMARK    3  A    between atoms: C_7  and  C_8
REMARK    4  A    between atoms: C_8  and  O_9
REMARK    5  A    between atoms: O_9  and  C_10
REMARK    6  A    between atoms: C_14  and  N_15
REMARK    7  A    between atoms: C_23  and  C_24
REMARK                            x       y       z     vdW  Elec       q    Type
REMARK                         _______ _______ _______ _____ _____    ______ ____
ROOT
ATOM      1  C   UNL     1       7.863   7.670  17.993  0.00  0.00    +0.000 A 
ATOM      2  C   UNL     1       7.996   6.753  19.041  0.00  0.00    +0.000 A 
ATOM      3  C   UNL     1       7.880   5.390  18.801  0.00  0.00    +0.000 A 
ATOM      4  C   UNL     1       7.484   4.946  17.548  0.00  0.00    +0.000 A 
ATOM      5  C   UNL     1       7.052   5.878  16.592  0.00  0.00    +0.000 A 
ATOM      6  C   UNL     1       7.378   7.231  16.763  0.00  0.00    +0.000 A 
ENDROOT
BRANCH   5   7
ATOM      7  N   UNL     1       5.925   5.540  15.737  0.00  0.00    +0.000 N 
ATOM      8  C   UNL     1       4.745   6.366  16.088  0.00  0.00    +0.000 C 
ATOM      9  C   UNL     1       4.032   5.490  17.070  0.00  0.00    +0.000 A 
ATOM     10  C   UNL     1       4.366   4.165  16.780  0.00  0.00    +0.000 A 
ATOM     11  C   UNL     1       3.992   3.105  17.583  0.00  0.00    +0.000 A 
ATOM     12  C   UNL     1       3.266   3.421  18.726  0.00  0.00    +0.000 A 
ATOM     13  F   UNL     1       2.941   2.445  19.584  0.00  0.00    +0.000 F 
ATOM     14  C   UNL     1       2.941   4.747  19.054  0.00  0.00    +0.000 A 
ATOM     15  C   UNL     1       3.322   5.815  18.222  0.00  0.00    +0.000 A 
ATOM     16  C   UNL     1       5.483   4.189  15.805  0.00  0.00    +0.000 C 
ATOM     17  O   UNL     1       6.016   3.192  15.361  0.00  0.00    +0.000 OA
BRANCH  15  18
ATOM     18  C   UNL     1       3.111   7.241  18.653  0.00  0.00    +0.000 C 
ATOM     19  F   UNL     1       2.365   7.950  17.767  0.00  0.00    +0.000 F 
ATOM     20  F   UNL     1       2.470   7.344  19.848  0.00  0.00    +0.000 F 
ENDBRANCH  15  18
ENDBRANCH   5   7
BRANCH   1  21
ATOM     21  O   UNL     1       8.119   9.015  18.098  0.00  0.00    +0.000 OA
BRANCH  21  22
ATOM     22  C   UNL     1       9.170   9.329  19.017  0.00  0.00    +0.000 C 
BRANCH  22  23
ATOM     23  C   UNL     1       9.078  10.780  19.483  0.00  0.00    +0.000 C 
BRANCH  23  29
ATOM     24  C   UNL     1       8.256  12.982  17.419  0.00  0.00    +0.000 C 
ATOM     25  N   UNL     1       9.590  12.555  17.728  0.00  0.00    +0.000 N 
ATOM     26  C   UNL     1      10.735  13.014  17.151  0.00  0.00    +0.000 A 
ATOM     27  N   UNL     1      11.772  12.415  17.681  0.00  0.00    +0.000 NA
ATOM     28  N   UNL     1      11.303  11.539  18.623  0.00  0.00    +0.000 NA
ATOM     29  C   UNL     1       9.984  11.616  18.645  0.00  0.00    +0.000 A 
ENDBRANCH  23  29
ENDBRANCH  22  23
ENDBRANCH  21  22
ENDBRANCH   1  21
TORSDOF 6
ENDMDL
MODEL 3
REMARK VINA RESULT:      -8.6      0.765      1.021
REMARK  Name = 
REMARK  7 active torsions:
REMARK  status: ('A' for Active; 'I' for Inactive)
REMARK    1  A    between atoms: C_1  and  N_2
REMARK    2  A    between atoms: C_6  and  C_7
REMARK    3  A    between atoms: C_7  and  C_8
REMARK    4  A    between atoms: C_8  and  O_9
REMARK    5  A    between atoms: O_9  and  C_10
REMARK    6  A    between atoms: C_14  and  N_15
REMARK    7  A    between atoms: C_23  and  C_24
REMARK                            x       y       z     vdW  Elec       q    Type
REMARK                         _______ _______ _______ _____ _____    ______ ____
ROOT
ATOM      1  C   UNL     1       1.856   7.159  20.008  0.00  0.00    +0.000 A 
ATOM      2  C   UNL     1       2.320   8.089  19.070  0.00  0.00    +0.000 A 
ATOM      3  C   UNL     1       2.956   7.660  17.913  0.00  0.00    +0.000 A 
ATOM      4  C   UNL     1       3.267   6.318  17.758  0.00  0.00    +0.000 A 
ATOM      5  C   UNL     1       3.080   5.439  18.836  0.00  0.00    +0.000 A 
ATOM      6  C   UNL     1       2.247   5.827  19.896  0.00  0.00    +0.000 A 
ENDROOT
BRANCH   5   7
ATOM      7  N   UNL     1       4.066   4.396  19.076  0.00  0.00    +0.000 N 
ATOM      8  C   UNL     1       5.405   4.994  19.296  0.00  0.00    +0.000 C 
ATOM      9  C   UNL     1       5.984   4.977  17.916  0.00  0.00    +0.000 A 
ATOM     10  C   UNL     1       5.377   3.934  17.212  0.00  0.00    +0.000 A 
ATOM     11  C   UNL     1       5.579   3.726  15.861  0.00  0.00    +0.000 A 
ATOM     12  C   UNL     1       6.418   4.626  15.214  0.00  0.00    +0.000 A 
ATOM     13  F   UNL     1       6.591   4.521  13.890  0.00  0.00    +0.000 F 
ATOM     14  C   UNL     1       7.018   5.697  15.893  0.00  0.00    +0.000 A 
ATOM     15  C   UNL     1       6.810   5.892  17.271  0.00  0.00    +0.000 A 
ATOM     16  C   UNL     1       4.234   3.454  18.023  0.00  0.00    +0.000 C 
ATOM     17  O   UNL     1       3.488   2.558  17.680  0.00  0.00    +0.000 OA
BRANCH  15  18
ATOM     18  C   UNL     1       7.324   7.126  17.961  0.00  0.00    +0.000 C 
ATOM     19  F   UNL     1       8.300   6.851  18.866  0.00  0.00    +0.000 F 
ATOM     20  F   UNL     1       7.861   8.031  17.099  0.00  0.00    +0.000 F 
ENDBRANCH  15  18
ENDBRANCH   5   7
BRANCH   1  21
ATOM     21  O   UNL     1       1.078   7.473  21.095  0.00  0.00    +0.000 OA
BRANCH  21  22
ATOM     22  C   UNL     1       1.330   8.777  21.625  0.00  0.00    +0.000 C 
BRANCH  22  23
ATOM     23  C   UNL     1       0.052   9.406  22.174  0.00  0.00    +0.000 C 
BRANCH  23  29
ATOM     24  C   UNL     1      -2.008  11.537  23.177  0.00  0.00    +0.000 C 
ATOM     25  N   UNL     1      -0.801  11.792  22.446  0.00  0.00    +0.000 N 
ATOM     26  C   UNL     1      -0.355  13.010  22.030  0.00  0.00    +0.000 A 
ATOM     27  N   UNL     1       0.785  12.876  21.402  0.00  0.00    +0.000 NA
ATOM     28  N   UNL     1       1.097  11.543  21.396  0.00  0.00    +0.000 NA
ATOM     29  C   UNL     1       0.134  10.886  22.018  0.00  0.00    +0.000 A 
ENDBRANCH  23  29
ENDBRANCH  22  23
ENDBRANCH  21  22
ENDBRANCH   1  21
TORSDOF 6
ENDMDL
MODEL 4
REMARK VINA RESULT:      -8.6      5.069      7.221
REMARK  Name = 
REMARK  7 active torsions:
REMARK  status: ('A' for Active; 'I' for Inactive)
REMARK    1  A    between atoms: C_1  and  N_2
REMARK    2  A    between atoms: C_6  and  C_7
REMARK    3  A    between atoms: C_7  and  C_8
REMARK    4  A    between atoms: C_8  and  O_9
REMARK    5  A    between atoms: O_9  and  C_10
REMARK    6  A    between atoms: C_14  and  N_15
REMARK    7  A    between atoms: C_23  and  C_24
REMARK                            x       y       z     vdW  Elec       q    Type
REMARK                         _______ _______ _______ _____ _____    ______ ____
ROOT
ATOM      1  C   UNL     1       8.035   7.242  18.392  0.00  0.00    +0.000 A 
ATOM      2  C   UNL     1       8.092   6.146  19.261  0.00  0.00    +0.000 A 
ATOM      3  C   UNL     1       7.847   4.863  18.790  0.00  0.00    +0.000 A 
ATOM      4  C   UNL     1       7.398   4.684  17.490  0.00  0.00    +0.000 A 
ATOM      5  C   UNL     1       7.045   5.804  16.723  0.00  0.00    +0.000 A 
ATOM      6  C   UNL     1       7.499   7.071  17.118  0.00  0.00    +0.000 A 
ENDROOT
BRANCH   5   7
ATOM      7  N   UNL     1       5.883   5.725  15.852  0.00  0.00    +0.000 N 
ATOM      8  C   UNL     1       4.729   6.423  16.467  0.00  0.00    +0.000 C 
ATOM      9  C   UNL     1       4.040   5.310  17.190  0.00  0.00    +0.000 A 
ATOM     10  C   UNL     1       4.343   4.118  16.527  0.00  0.00    +0.000 A 
ATOM     11  C   UNL     1       3.983   2.877  17.014  0.00  0.00    +0.000 A 
ATOM     12  C   UNL     1       3.304   2.860  18.227  0.00  0.00    +0.000 A 
ATOM     13  F   UNL     1       2.997   1.684  18.788  0.00  0.00    +0.000 F 
ATOM     14  C   UNL     1       3.011   4.042  18.927  0.00  0.00    +0.000 A 
ATOM     15  C   UNL     1       3.377   5.300  18.414  0.00  0.00    +0.000 A 
ATOM     16  C   UNL     1       5.424   4.411  15.555  0.00  0.00    +0.000 C 
ATOM     17  O   UNL     1       5.925   3.578  14.828  0.00  0.00    +0.000 OA
BRANCH  15  18
ATOM     18  C   UNL     1       3.203   6.547  19.237  0.00  0.00    +0.000 C 
ATOM     19  F   UNL     1       2.664   7.572  18.525  0.00  0.00    +0.000 F 
ATOM     20  F   UNL     1       2.386   6.366  20.308  0.00  0.00    +0.000 F 
ENDBRANCH  15  18
ENDBRANCH   5   7
BRANCH   1  21
ATOM     21  O   UNL     1       8.417   8.518  18.723  0.00  0.00    +0.000 OA
BRANCH  21  22
ATOM     22  C   UNL     1       8.339   9.441  17.633  0.00  0.00    +0.000 C 
BRANCH  22  23
ATOM     23  C   UNL     1       8.383  10.884  18.128  0.00  0.00    +0.000 C 
BRANCH  23  29
ATOM     24  C   UNL     1       9.477  11.326  21.027  0.00  0.00    +0.000 C 
ATOM     25  N   UNL     1      10.222  11.431  19.805  0.00  0.00    +0.000 N 
ATOM     26  C   UNL     1      11.535  11.775  19.693  0.00  0.00    +0.000 A 
ATOM     27  N   UNL     1      11.892  11.761  18.434  0.00  0.00    +0.000 NA
ATOM     28  N   UNL     1      10.793  11.406  17.699  0.00  0.00    +0.000 NA
ATOM     29  C   UNL     1       9.781  11.217  18.526  0.00  0.00    +0.000 A 
ENDBRANCH  23  29
ENDBRANCH  22  23
ENDBRANCH  21  22
ENDBRANCH   1  21
TORSDOF 6
ENDMDL
MODEL 5
REMARK VINA RESULT:      -8.6      1.001      1.166
REMARK  Name = 
REMARK  7 active torsions:
REMARK  status: ('A' for Active; 'I' for Inactive)
REMARK    1  A    between atoms: C_1  and  N_2
REMARK    2  A    between atoms: C_6  and  C_7
REMARK    3  A    between atoms: C_7  and  C_8
REMARK    4  A    between atoms: C_8  and  O_9
REMARK    5  A    between atoms: O_9  and  C_10
REMARK    6  A    between atoms: C_14  and  N_15
REMARK    7  A    between atoms: C_23  and  C_24
REMARK                            x       y       z     vdW  Elec       q    Type
REMARK                         _______ _______ _______ _____ _____    ______ ____
ROOT
ATOM      1  C   UNL     1       1.874   7.278  19.938  0.00  0.00    +0.000 A 
ATOM      2  C   UNL     1       2.366   8.202  19.009  0.00  0.00    +0.000 A 
ATOM      3  C   UNL     1       3.043   7.767  17.878  0.00  0.00    +0.000 A 
ATOM      4  C   UNL     1       3.363   6.424  17.744  0.00  0.00    +0.000 A 
ATOM      5  C   UNL     1       3.143   5.553  18.822  0.00  0.00    +0.000 A 
ATOM      6  C   UNL     1       2.274   5.947  19.850  0.00  0.00    +0.000 A 
ENDROOT
BRANCH   5   7
ATOM      7  N   UNL     1       4.124   4.517  19.103  0.00  0.00    +0.000 N 
ATOM      8  C   UNL     1       5.465   5.116  19.304  0.00  0.00    +0.000 C 
ATOM      9  C   UNL     1       6.048   5.045  17.928  0.00  0.00    +0.000 A 
ATOM     10  C   UNL     1       5.439   3.979  17.262  0.00  0.00    +0.000 A 
ATOM     11  C   UNL     1       5.643   3.720  15.920  0.00  0.00    +0.000 A 
ATOM     12  C   UNL     1       6.487   4.592  15.242  0.00  0.00    +0.000 A 
ATOM     13  F   UNL     1       6.663   4.437  13.923  0.00  0.00    +0.000 F 
ATOM     14  C   UNL     1       7.090   5.685  15.882  0.00  0.00    +0.000 A 
ATOM     15  C   UNL     1       6.879   5.933  17.251  0.00  0.00    +0.000 A 
ATOM     16  C   UNL     1       4.291   3.534  18.087  0.00  0.00    +0.000 C 
ATOM     17  O   UNL     1       3.543   2.629  17.777  0.00  0.00    +0.000 OA
BRANCH  15  18
ATOM     18  C   UNL     1       7.397   7.190  17.896  0.00  0.00    +0.000 C 
ATOM     19  F   UNL     1       8.300   6.939  18.879  0.00  0.00    +0.000 F 
ATOM     20  F   UNL     1       8.023   8.018  17.017  0.00  0.00    +0.000 F 
ENDBRANCH  15  18
ENDBRANCH   5   7
BRANCH   1  21
ATOM     21  O   UNL     1       1.059   7.597  20.995  0.00  0.00    +0.000 OA
BRANCH  21  22
ATOM     22  C   UNL     1       1.477   8.764  21.711  0.00  0.00    +0.000 C 
BRANCH  22  23
ATOM     23  C   UNL     1       0.329   9.759  21.860  0.00  0.00    +0.000 C 
BRANCH  23  29
ATOM     24  C   UNL     1      -0.780  10.247  18.975  0.00  0.00    +0.000 C 
ATOM     25  N   UNL     1       0.109  11.103  19.706  0.00  0.00    +0.000 N 
ATOM     26  C   UNL     1       0.653  12.269  19.257  0.00  0.00    +0.000 A 
ATOM     27  N   UNL     1       1.406  12.796  20.188  0.00  0.00    +0.000 NA
ATOM     28  N   UNL     1       1.364  11.961  21.273  0.00  0.00    +0.000 NA
ATOM     29  C   UNL     1       0.589  10.933  20.978  0.00  0.00    +0.000 A 
ENDBRANCH  23  29
ENDBRANCH  22  23
ENDBRANCH  21  22
ENDBRANCH   1  21
TORSDOF 6
ENDMDL
MODEL 6
REMARK VINA RESULT:      -8.6      0.667      1.256
REMARK  Name = 
REMARK  7 active torsions:
REMARK  status: ('A' for Active; 'I' for Inactive)
REMARK    1  A    between atoms: C_1  and  N_2
REMARK    2  A    between atoms: C_6  and  C_7
REMARK    3  A    between atoms: C_7  and  C_8
REMARK    4  A    between atoms: C_8  and  O_9
REMARK    5  A    between atoms: O_9  and  C_10
REMARK    6  A    between atoms: C_14  and  N_15
REMARK    7  A    between atoms: C_23  and  C_24
REMARK                            x       y       z     vdW  Elec       q    Type
REMARK                         _______ _______ _______ _____ _____    ______ ____
ROOT
ATOM      1  C   UNL     1       2.036   6.973  20.023  0.00  0.00    +0.000 A 
ATOM      2  C   UNL     1       2.425   7.900  19.049  0.00  0.00    +0.000 A 
ATOM      3  C   UNL     1       2.996   7.470  17.859  0.00  0.00    +0.000 A 
ATOM      4  C   UNL     1       3.319   6.131  17.697  0.00  0.00    +0.000 A 
ATOM      5  C   UNL     1       3.214   5.261  18.792  0.00  0.00    +0.000 A 
ATOM      6  C   UNL     1       2.442   5.646  19.898  0.00  0.00    +0.000 A 
ENDROOT
BRANCH   5   7
ATOM      7  N   UNL     1       4.230   4.237  18.980  0.00  0.00    +0.000 N 
ATOM      8  C   UNL     1       5.556   4.861  19.204  0.00  0.00    +0.000 C 
ATOM      9  C   UNL     1       6.116   4.910  17.817  0.00  0.00    +0.000 A 
ATOM     10  C   UNL     1       5.526   3.878  17.083  0.00  0.00    +0.000 A 
ATOM     11  C   UNL     1       5.714   3.724  15.723  0.00  0.00    +0.000 A 
ATOM     12  C   UNL     1       6.519   4.669  15.098  0.00  0.00    +0.000 A 
ATOM     13  F   UNL     1       6.675   4.618  13.769  0.00  0.00    +0.000 F 
ATOM     14  C   UNL     1       7.101   5.731  15.808  0.00  0.00    +0.000 A 
ATOM     15  C   UNL     1       6.907   5.870  17.194  0.00  0.00    +0.000 A 
ATOM     16  C   UNL     1       4.408   3.338  17.892  0.00  0.00    +0.000 C 
ATOM     17  O   UNL     1       3.681   2.435  17.527  0.00  0.00    +0.000 OA
BRANCH  15  18
ATOM     18  C   UNL     1       7.400   7.092  17.922  0.00  0.00    +0.000 C 
ATOM     19  F   UNL     1       8.327   6.797  18.871  0.00  0.00    +0.000 F 
ATOM     20  F   UNL     1       7.987   8.000  17.098  0.00  0.00    +0.000 F 
ENDBRANCH  15  18
ENDBRANCH   5   7
BRANCH   1  21
ATOM     21  O   UNL     1       1.321   7.284  21.152  0.00  0.00    +0.000 OA
BRANCH  21  22
ATOM     22  C   UNL     1       1.231   8.690  21.405  0.00  0.00    +0.000 C 
BRANCH  22  23
ATOM     23  C   UNL     1      -0.224   9.136  21.522  0.00  0.00    +0.000 C 
BRANCH  23  29
ATOM     24  C   UNL     1      -0.889  12.039  22.482  0.00  0.00    +0.000 C 
ATOM     25  N   UNL     1      -0.747  11.598  21.124  0.00  0.00    +0.000 N 
ATOM     26  C   UNL     1      -0.910  12.364  20.009  0.00  0.00    +0.000 A 
ATOM     27  N   UNL     1      -0.693  11.643  18.939  0.00  0.00    +0.000 NA
ATOM     28  N   UNL     1      -0.387  10.374  19.353  0.00  0.00    +0.000 NA
ATOM     29  C   UNL     1      -0.430  10.344  20.673  0.00  0.00    +0.000 A 
ENDBRANCH  23  29
ENDBRANCH  22  23
ENDBRANCH  21  22
ENDBRANCH   1  21
TORSDOF 6
ENDMDL
MODEL 7
REMARK VINA RESULT:      -8.5      5.046      7.360
REMARK  Name = 
REMARK  7 active torsions:
REMARK  status: ('A' for Active; 'I' for Inactive)
REMARK    1  A    between atoms: C_1  and  N_2
REMARK    2  A    between atoms: C_6  and  C_7
REMARK    3  A    between atoms: C_7  and  C_8
REMARK    4  A    between atoms: C_8  and  O_9
REMARK    5  A    between atoms: O_9  and  C_10
REMARK    6  A    between atoms: C_14  and  N_15
REMARK    7  A    between atoms: C_23  and  C_24
REMARK                            x       y       z     vdW  Elec       q    Type
REMARK                         _______ _______ _______ _____ _____    ______ ____
ROOT
ATOM      1  C   UNL     1       7.863   7.768  18.001  0.00  0.00    +0.000 A 
ATOM      2  C   UNL     1       7.985   6.861  19.060  0.00  0.00    +0.000 A 
ATOM      3  C   UNL     1       7.885   5.496  18.829  0.00  0.00    +0.000 A 
ATOM      4  C   UNL     1       7.514   5.038  17.574  0.00  0.00    +0.000 A 
ATOM      5  C   UNL     1       7.091   5.957  16.603  0.00  0.00    +0.000 A 
ATOM      6  C   UNL     1       7.403   7.315  16.767  0.00  0.00    +0.000 A 
ENDROOT
BRANCH   5   7
ATOM      7  N   UNL     1       5.982   5.602  15.730  0.00  0.00    +0.000 N 
ATOM      8  C   UNL     1       4.791   6.424  16.050  0.00  0.00    +0.000 C 
ATOM      9  C   UNL     1       4.065   5.556  17.029  0.00  0.00    +0.000 A 
ATOM     10  C   UNL     1       4.413   4.229  16.760  0.00  0.00    +0.000 A 
ATOM     11  C   UNL     1       4.030   3.176  17.569  0.00  0.00    +0.000 A 
ATOM     12  C   UNL     1       3.282   3.500  18.695  0.00  0.00    +0.000 A 
ATOM     13  F   UNL     1       2.948   2.531  19.557  0.00  0.00    +0.000 F 
ATOM     14  C   UNL     1       2.943   4.827  19.001  0.00  0.00    +0.000 A 
ATOM     15  C   UNL     1       3.333   5.888  18.164  0.00  0.00    +0.000 A 
ATOM     16  C   UNL     1       5.547   4.250  15.806  0.00  0.00    +0.000 C 
ATOM     17  O   UNL     1       6.094   3.251  15.382  0.00  0.00    +0.000 OA
BRANCH  15  18
ATOM     18  C   UNL     1       3.105   7.318  18.575  0.00  0.00    +0.000 C 
ATOM     19  F   UNL     1       2.330   7.999  17.691  0.00  0.00    +0.000 F 
ATOM     20  F   UNL     1       2.484   7.430  19.780  0.00  0.00    +0.000 F 
ENDBRANCH  15  18
ENDBRANCH   5   7
BRANCH   1  21
ATOM     21  O   UNL     1       8.106   9.116  18.099  0.00  0.00    +0.000 OA
BRANCH  21  22
ATOM     22  C   UNL     1       9.242   9.437  18.908  0.00  0.00    +0.000 C 
BRANCH  22  23
ATOM     23  C   UNL     1       9.111  10.833  19.512  0.00  0.00    +0.000 C 
BRANCH  23  29
ATOM     24  C   UNL     1      12.073  11.775  19.873  0.00  0.00    +0.000 C 
ATOM     25  N   UNL     1      11.152  12.214  18.864  0.00  0.00    +0.000 N 
ATOM     26  C   UNL     1      11.399  13.145  17.901  0.00  0.00    +0.000 A 
ATOM     27  N   UNL     1      10.342  13.292  17.143  0.00  0.00    +0.000 NA
ATOM     28  N   UNL     1       9.376  12.445  17.616  0.00  0.00    +0.000 NA
ATOM     29  C   UNL     1       9.861  11.801  18.662  0.00  0.00    +0.000 A 
ENDBRANCH  23  29
ENDBRANCH  22  23
ENDBRANCH  21  22
ENDBRANCH   1  21
TORSDOF 6
ENDMDL
MODEL 8
REMARK VINA RESULT:      -8.4      4.892      6.767
REMARK  Name = 
REMARK  7 active torsions:
REMARK  status: ('A' for Active; 'I' for Inactive)
REMARK    1  A    between atoms: C_1  and  N_2
REMARK    2  A    between atoms: C_6  and  C_7
REMARK    3  A    between atoms: C_7  and  C_8
REMARK    4  A    between atoms: C_8  and  O_9
REMARK    5  A    between atoms: O_9  and  C_10
REMARK    6  A    between atoms: C_14  and  N_15
REMARK    7  A    between atoms: C_23  and  C_24
REMARK                            x       y       z     vdW  Elec       q    Type
REMARK                         _______ _______ _______ _____ _____    ______ ____
ROOT
ATOM      1  C   UNL     1       7.854   7.775  17.877  0.00  0.00    +0.000 A 
ATOM      2  C   UNL     1       7.993   6.927  18.982  0.00  0.00    +0.000 A 
ATOM      3  C   UNL     1       7.856   5.554  18.833  0.00  0.00    +0.000 A 
ATOM      4  C   UNL     1       7.433   5.034  17.620  0.00  0.00    +0.000 A 
ATOM      5  C   UNL     1       6.995   5.906  16.612  0.00  0.00    +0.000 A 
ATOM      6  C   UNL     1       7.342   7.263  16.687  0.00  0.00    +0.000 A 
ENDROOT
BRANCH   5   7
ATOM      7  N   UNL     1       5.850   5.528  15.799  0.00  0.00    +0.000 N 
ATOM      8  C   UNL     1       4.654   6.309  16.198  0.00  0.00    +0.000 C 
ATOM      9  C   UNL     1       4.013   5.405  17.204  0.00  0.00    +0.000 A 
ATOM     10  C   UNL     1       4.385   4.094  16.897  0.00  0.00    +0.000 A 
ATOM     11  C   UNL     1       4.081   3.019  17.710  0.00  0.00    +0.000 A 
ATOM     12  C   UNL     1       3.390   3.305  18.882  0.00  0.00    +0.000 A 
ATOM     13  F   UNL     1       3.135   2.316  19.748  0.00  0.00    +0.000 F 
ATOM     14  C   UNL     1       3.028   4.617  19.226  0.00  0.00    +0.000 A 
ATOM     15  C   UNL     1       3.337   5.700  18.384  0.00  0.00    +0.000 A 
ATOM     16  C   UNL     1       5.461   4.162  15.880  0.00  0.00    +0.000 C 
ATOM     17  O   UNL     1       6.013   3.187  15.411  0.00  0.00    +0.000 OA
BRANCH  15  18
ATOM     18  C   UNL     1       3.090   7.117  18.828  0.00  0.00    +0.000 C 
ATOM     19  F   UNL     1       2.333   7.818  17.944  0.00  0.00    +0.000 F 
ATOM     20  F   UNL     1       2.438   7.193  20.019  0.00  0.00    +0.000 F 
ENDBRANCH  15  18
ENDBRANCH   5   7
BRANCH   1  21
ATOM     21  O   UNL     1       8.128   9.120  17.890  0.00  0.00    +0.000 OA
BRANCH  21  22
ATOM     22  C   UNL     1       8.959   9.527  18.982  0.00  0.00    +0.000 C 
BRANCH  22  23
ATOM     23  C   UNL     1       9.772  10.768  18.623  0.00  0.00    +0.000 C 
BRANCH  23  29
ATOM     24  C   UNL     1       8.444  13.587  18.341  0.00  0.00    +0.000 C 
ATOM     25  N   UNL     1       9.026  13.031  19.528  0.00  0.00    +0.000 N 
ATOM     26  C   UNL     1       9.131  13.649  20.737  0.00  0.00    +0.000 A 
ATOM     27  N   UNL     1       9.703  12.847  21.599  0.00  0.00    +0.000 NA
ATOM     28  N   UNL     1       9.988  11.678  20.945  0.00  0.00    +0.000 NA
ATOM     29  C   UNL     1       9.588  11.792  19.692  0.00  0.00    +0.000 A 
ENDBRANCH  23  29
ENDBRANCH  22  23
ENDBRANCH  21  22
ENDBRANCH   1  21
TORSDOF 6
ENDMDL
MODEL 9
REMARK VINA RESULT:      -8.3      4.933      6.743
REMARK  Name = 
REMARK  7 active torsions:
REMARK  status: ('A' for Active; 'I' for Inactive)
REMARK    1  A    between atoms: C_1  and  N_2
REMARK    2  A    between atoms: C_6  and  C_7
REMARK    3  A    between atoms: C_7  and  C_8
REMARK    4  A    between atoms: C_8  and  O_9
REMARK    5  A    between atoms: O_9  and  C_10
REMARK    6  A    between atoms: C_14  and  N_15
REMARK    7  A    between atoms: C_23  and  C_24
REMARK                            x       y       z     vdW  Elec       q    Type
REMARK                         _______ _______ _______ _____ _____    ______ ____
ROOT
ATOM      1  C   UNL     1       8.108   7.318  18.506  0.00  0.00    +0.000 A 
ATOM      2  C   UNL     1       8.164   6.156  19.283  0.00  0.00    +0.000 A 
ATOM      3  C   UNL     1       7.847   4.923  18.727  0.00  0.00    +0.000 A 
ATOM      4  C   UNL     1       7.330   4.864  17.442  0.00  0.00    +0.000 A 
ATOM      5  C   UNL     1       6.984   6.053  16.782  0.00  0.00    +0.000 A 
ATOM      6  C   UNL     1       7.505   7.268  17.251  0.00  0.00    +0.000 A 
ENDROOT
BRANCH   5   7
ATOM      7  N   UNL     1       5.780   6.084  15.967  0.00  0.00    +0.000 N 
ATOM      8  C   UNL     1       4.633   6.589  16.760  0.00  0.00    +0.000 C 
ATOM      9  C   UNL     1       4.033   5.322  17.282  0.00  0.00    +0.000 A 
ATOM     10  C   UNL     1       4.349   4.299  16.385  0.00  0.00    +0.000 A 
ATOM     11  C   UNL     1       4.068   2.970  16.635  0.00  0.00    +0.000 A 
ATOM     12  C   UNL     1       3.459   2.683  17.851  0.00  0.00    +0.000 A 
ATOM     13  F   UNL     1       3.233   1.406  18.184  0.00  0.00    +0.000 F 
ATOM     14  C   UNL     1       3.156   3.690  18.782  0.00  0.00    +0.000 A 
ATOM     15  C   UNL     1       3.441   5.041  18.509  0.00  0.00    +0.000 A 
ATOM     16  C   UNL     1       5.360   4.831  15.440  0.00  0.00    +0.000 C 
ATOM     17  O   UNL     1       5.855   4.181  14.541  0.00  0.00    +0.000 OA
BRANCH  15  18
ATOM     18  C   UNL     1       3.261   6.095  19.568  0.00  0.00    +0.000 C 
ATOM     19  F   UNL     1       2.600   7.189  19.109  0.00  0.00    +0.000 F 
ATOM     20  F   UNL     1       2.550   5.653  20.641  0.00  0.00    +0.000 F 
ENDBRANCH  15  18
ENDBRANCH   5   7
BRANCH   1  21
ATOM     21  O   UNL     1       8.554   8.550  18.915  0.00  0.00    +0.000 OA
BRANCH  21  22
ATOM     22  C   UNL     1       8.350   9.584  17.948  0.00  0.00    +0.000 C 
BRANCH  22  23
ATOM     23  C   UNL     1       9.489  10.600  17.979  0.00  0.00    +0.000 C 
BRANCH  23  29
ATOM     24  C   UNL     1       9.895  12.553  20.390  0.00  0.00    +0.000 C 
ATOM     25  N   UNL     1       9.091  12.787  19.225  0.00  0.00    +0.000 N 
ATOM     26  C   UNL     1       8.335  13.893  18.980  0.00  0.00    +0.000 A 
ATOM     27  N   UNL     1       7.742  13.778  17.818  0.00  0.00    +0.000 NA
ATOM     28  N   UNL     1       8.108  12.570  17.288  0.00  0.00    +0.000 NA
ATOM     29  C   UNL     1       8.915  11.967  18.142  0.00  0.00    +0.000 A 
ENDBRANCH  23  29
ENDBRANCH  22  23
ENDBRANCH  21  22
ENDBRANCH   1  21
TORSDOF 6
ENDMDL
