MODEL 1
REMARK VINA RESULT:      -8.5      0.000      0.000
REMARK  Name = 
REMARK  3 active torsions:
REMARK  status: ('A' for Active; 'I' for Inactive)
REMARK    1  A    between atoms: C_2  and  C_21
REMARK    2  A    between atoms: N_3  and  C_4
REMARK    3  A    between atoms: C_9  and  C_10
REMARK                            x       y       z     vdW  Elec       q    Type
REMARK                         _______ _______ _______ _____ _____    ______ ____
ROOT
ATOM      1  C   UNL     1       4.131   5.267  17.302  0.00  0.00    +0.000 A 
ATOM      2  C   UNL     1       4.129   4.427  18.421  0.00  0.00    +0.000 A 
ATOM      3  C   UNL     1       3.514   4.797  19.623  0.00  0.00    +0.000 A 
ATOM      4  C   UNL     1       2.898   6.042  19.646  0.00  0.00    +0.000 A 
ATOM      5  N   UNL     1       2.188   6.696  20.615  0.00  0.00    +0.000 N 
ATOM      6  C   UNL     1       1.762   7.907  20.119  0.00  0.00    +0.000 A 
ATOM      7  N   UNL     1       2.201   8.067  18.882  0.00  0.00    +0.000 NA
ATOM      8  C   UNL     1       2.895   6.918  18.570  0.00  0.00    +0.000 A 
ATOM      9  C   UNL     1       3.538   6.539  17.380  0.00  0.00    +0.000 A 
ATOM     10  H   UNL     1       1.980   6.341  21.538  0.00  0.00    +0.000 HD
ENDROOT
BRANCH   6  11
ATOM     11  C   UNL     1       0.932   8.840  20.888  0.00  0.00    +0.000 A 
ATOM     12  C   UNL     1       0.859   8.728  22.282  0.00  0.00    +0.000 A 
ATOM     13  C   UNL     1       0.075   9.619  23.013  0.00  0.00    +0.000 A 
ATOM     14  F   UNL     1       0.013   9.502  24.346  0.00  0.00    +0.000 F 
ATOM     15  C   UNL     1      -0.647  10.629  22.386  0.00  0.00    +0.000 A 
ATOM     16  C   UNL     1      -0.583  10.755  21.001  0.00  0.00    +0.000 A 
ATOM     17  C   UNL     1       0.201   9.866  20.268  0.00  0.00    +0.000 A 
ATOM     18  F   UNL     1       0.241  10.019  18.934  0.00  0.00    +0.000 F 
ENDBRANCH   6  11
BRANCH   1  21
ATOM     19  O   UNL     1       6.700   6.109  16.095  0.00  0.00    +0.000 OA
ATOM     20  C   UNL     1       5.911   5.343  15.556  0.00  0.00    +0.000 C 
ATOM     21  N   UNL     1       4.705   4.890  16.067  0.00  0.00    +0.000 N 
ATOM     22  H   UNL     1       4.267   4.107  15.598  0.00  0.00    +0.000 HD
BRANCH  20  23
ATOM     23  C   UNL     1       6.294   4.764  14.253  0.00  0.00    +0.000 A 
ATOM     24  C   UNL     1       5.538   3.786  13.605  0.00  0.00    +0.000 A 
ATOM     25  C   UNL     1       5.981   3.289  12.381  0.00  0.00    +0.000 A 
ATOM     26  C   UNL     1       7.161   3.794  11.850  0.00  0.00    +0.000 A 
ATOM     27  N   UNL     1       7.903   4.752  12.445  0.00  0.00    +0.000 NA
ATOM     28  C   UNL     1       7.446   5.228  13.629  0.00  0.00    +0.000 A 
ENDBRANCH  20  23
ENDBRANCH   1  21
TORSDOF 3
ENDMDL
MODEL 2
REMARK VINA RESULT:      -8.3      4.147     10.316
REMARK  Name = 
REMARK  3 active torsions:
REMARK  status: ('A' for Active; 'I' for Inactive)
REMARK    1  A    between atoms: C_2  and  C_21
REMARK    2  A    between atoms: N_3  and  C_4
REMARK    3  A    between atoms: C_9  and  C_10
REMARK                            x       y       z     vdW  Elec       q    Type
REMARK                         _______ _______ _______ _____ _____    ______ ____
ROOT
ATOM      1  C   UNL     1       0.166  10.499  20.309  0.00  0.00    +0.000 A 
ATOM      2  C   UNL     1       0.513  11.099  19.093  0.00  0.00    +0.000 A 
ATOM      3  C   UNL     1       1.322  10.451  18.152  0.00  0.00    +0.000 A 
ATOM      4  C   UNL     1       1.760   9.175  18.485  0.00  0.00    +0.000 A 
ATOM      5  N   UNL     1       2.516   8.260  17.808  0.00  0.00    +0.000 N 
ATOM      6  C   UNL     1       2.640   7.124  18.575  0.00  0.00    +0.000 A 
ATOM      7  N   UNL     1       2.021   7.292  19.732  0.00  0.00    +0.000 NA
ATOM      8  C   UNL     1       1.462   8.550  19.687  0.00  0.00    +0.000 A 
ATOM      9  C   UNL     1       0.668   9.225  20.630  0.00  0.00    +0.000 A 
ATOM     10  H   UNL     1       2.900   8.378  16.880  0.00  0.00    +0.000 HD
ENDROOT
BRANCH   6  11
ATOM     11  C   UNL     1       3.354   5.926  18.123  0.00  0.00    +0.000 A 
ATOM     12  C   UNL     1       4.755   5.910  18.102  0.00  0.00    +0.000 A 
ATOM     13  C   UNL     1       5.433   4.769  17.678  0.00  0.00    +0.000 A 
ATOM     14  F   UNL     1       6.772   4.766  17.664  0.00  0.00    +0.000 F 
ATOM     15  C   UNL     1       4.747   3.630  17.268  0.00  0.00    +0.000 A 
ATOM     16  C   UNL     1       3.356   3.629  17.285  0.00  0.00    +0.000 A 
ATOM     17  C   UNL     1       2.674   4.769  17.709  0.00  0.00    +0.000 A 
ATOM     18  F   UNL     1       1.332   4.731  17.714  0.00  0.00    +0.000 F 
ENDBRANCH   6  11
BRANCH   1  21
ATOM     19  O   UNL     1       0.590  12.970  21.883  0.00  0.00    +0.000 OA
ATOM     20  C   UNL     1      -0.413  12.272  21.965  0.00  0.00    +0.000 C 
ATOM     21  N   UNL     1      -0.688  11.118  21.249  0.00  0.00    +0.000 N 
ATOM     22  H   UNL     1      -1.638  10.770  21.277  0.00  0.00    +0.000 HD
BRANCH  20  23
ATOM     23  C   UNL     1      -1.494  12.724  22.863  0.00  0.00    +0.000 A 
ATOM     24  C   UNL     1      -1.512  13.990  23.450  0.00  0.00    +0.000 A 
ATOM     25  C   UNL     1      -2.569  14.329  24.293  0.00  0.00    +0.000 A 
ATOM     26  C   UNL     1      -3.569  13.391  24.511  0.00  0.00    +0.000 A 
ATOM     27  N   UNL     1      -3.586  12.166  23.943  0.00  0.00    +0.000 NA
ATOM     28  C   UNL     1      -2.554  11.863  23.119  0.00  0.00    +0.000 A 
ENDBRANCH  20  23
ENDBRANCH   1  21
TORSDOF 3
ENDMDL
MODEL 3
REMARK VINA RESULT:      -8.3      1.668      2.762
REMARK  Name = 
REMARK  3 active torsions:
REMARK  status: ('A' for Active; 'I' for Inactive)
REMARK    1  A    between atoms: C_2  and  C_21
REMARK    2  A    between atoms: N_3  and  C_4
REMARK    3  A    between atoms: C_9  and  C_10
REMARK                            x       y       z     vdW  Elec       q    Type
REMARK                         _______ _______ _______ _____ _____    ______ ____
ROOT
ATOM      1  C   UNL     1       3.041   6.513  18.522  0.00  0.00    +0.000 A 
ATOM      2  C   UNL     1       2.689   5.690  19.599  0.00  0.00    +0.000 A 
ATOM      3  C   UNL     1       1.859   6.138  20.632  0.00  0.00    +0.000 A 
ATOM      4  C   UNL     1       1.394   7.444  20.532  0.00  0.00    +0.000 A 
ATOM      5  N   UNL     1       0.556   8.181  21.321  0.00  0.00    +0.000 N 
ATOM      6  C   UNL     1       0.389   9.426  20.759  0.00  0.00    +0.000 A 
ATOM      7  N   UNL     1       1.117   9.524  19.658  0.00  0.00    +0.000 NA
ATOM      8  C   UNL     1       1.734   8.303  19.497  0.00  0.00    +0.000 A 
ATOM      9  C   UNL     1       2.589   7.843  18.481  0.00  0.00    +0.000 A 
ATOM     10  H   UNL     1       0.103   7.861  22.166  0.00  0.00    +0.000 HD
ENDROOT
BRANCH   6  11
ATOM     11  C   UNL     1      -0.488  10.453  21.330  0.00  0.00    +0.000 A 
ATOM     12  C   UNL     1      -1.126  11.375  20.490  0.00  0.00    +0.000 A 
ATOM     13  C   UNL     1      -1.965  12.347  21.033  0.00  0.00    +0.000 A 
ATOM     14  F   UNL     1      -2.569  13.223  20.220  0.00  0.00    +0.000 F 
ATOM     15  C   UNL     1      -2.187  12.428  22.404  0.00  0.00    +0.000 A 
ATOM     16  C   UNL     1      -1.562  11.517  23.251  0.00  0.00    +0.000 A 
ATOM     17  C   UNL     1      -0.723  10.543  22.711  0.00  0.00    +0.000 A 
ATOM     18  F   UNL     1      -0.138   9.680  23.558  0.00  0.00    +0.000 F 
ENDBRANCH   6  11
BRANCH   1  21
ATOM     19  O   UNL     1       5.880   5.673  18.519  0.00  0.00    +0.000 OA
ATOM     20  C   UNL     1       5.175   5.702  17.518  0.00  0.00    +0.000 C 
ATOM     21  N   UNL     1       3.839   6.062  17.447  0.00  0.00    +0.000 N 
ATOM     22  H   UNL     1       3.343   5.840  16.593  0.00  0.00    +0.000 HD
BRANCH  20  23
ATOM     23  C   UNL     1       5.766   5.236  16.248  0.00  0.00    +0.000 A 
ATOM     24  C   UNL     1       5.083   4.413  15.351  0.00  0.00    +0.000 A 
ATOM     25  C   UNL     1       5.722   4.013  14.179  0.00  0.00    +0.000 A 
ATOM     26  C   UNL     1       7.017   4.456  13.948  0.00  0.00    +0.000 A 
ATOM     27  N   UNL     1       7.696   5.266  14.788  0.00  0.00    +0.000 NA
ATOM     28  C   UNL     1       7.050   5.650  15.916  0.00  0.00    +0.000 A 
ENDBRANCH  20  23
ENDBRANCH   1  21
TORSDOF 3
ENDMDL
MODEL 4
REMARK VINA RESULT:      -8.2      4.148     10.278
REMARK  Name = 
REMARK  3 active torsions:
REMARK  status: ('A' for Active; 'I' for Inactive)
REMARK    1  A    between atoms: C_2  and  C_21
REMARK    2  A    between atoms: N_3  and  C_4
REMARK    3  A    between atoms: C_9  and  C_10
REMARK                            x       y       z     vdW  Elec       q    Type
REMARK                         _______ _______ _______ _____ _____    ______ ____
ROOT
ATOM      1  C   UNL     1       0.227  10.556  20.223  0.00  0.00    +0.000 A 
ATOM      2  C   UNL     1       0.598  11.179  19.026  0.00  0.00    +0.000 A 
ATOM      3  C   UNL     1       1.391  10.533  18.070  0.00  0.00    +0.000 A 
ATOM      4  C   UNL     1       1.786   9.235  18.369  0.00  0.00    +0.000 A 
ATOM      5  N   UNL     1       2.516   8.316  17.668  0.00  0.00    +0.000 N 
ATOM      6  C   UNL     1       2.601   7.155  18.403  0.00  0.00    +0.000 A 
ATOM      7  N   UNL     1       1.983   7.309  19.562  0.00  0.00    +0.000 NA
ATOM      8  C   UNL     1       1.463   8.586  19.551  0.00  0.00    +0.000 A 
ATOM      9  C   UNL     1       0.687   9.259  20.509  0.00  0.00    +0.000 A 
ATOM     10  H   UNL     1       2.908   8.448  16.746  0.00  0.00    +0.000 HD
ENDROOT
BRANCH   6  11
ATOM     11  C   UNL     1       3.279   5.948  17.919  0.00  0.00    +0.000 A 
ATOM     12  C   UNL     1       2.580   4.737  17.836  0.00  0.00    +0.000 A 
ATOM     13  C   UNL     1       3.223   3.592  17.371  0.00  0.00    +0.000 A 
ATOM     14  F   UNL     1       2.543   2.440  17.295  0.00  0.00    +0.000 F 
ATOM     15  C   UNL     1       4.559   3.618  16.984  0.00  0.00    +0.000 A 
ATOM     16  C   UNL     1       5.267   4.814  17.059  0.00  0.00    +0.000 A 
ATOM     17  C   UNL     1       4.626   5.962  17.523  0.00  0.00    +0.000 A 
ATOM     18  F   UNL     1       5.340   7.098  17.580  0.00  0.00    +0.000 F 
ENDBRANCH   6  11
BRANCH   1  21
ATOM     19  O   UNL     1       0.682  13.021  21.798  0.00  0.00    +0.000 OA
ATOM     20  C   UNL     1      -0.322  12.325  21.893  0.00  0.00    +0.000 C 
ATOM     21  N   UNL     1      -0.612  11.175  21.177  0.00  0.00    +0.000 N 
ATOM     22  H   UNL     1      -1.562  10.830  21.218  0.00  0.00    +0.000 HD
BRANCH  20  23
ATOM     23  C   UNL     1      -1.389  12.779  22.808  0.00  0.00    +0.000 A 
ATOM     24  C   UNL     1      -2.525  12.016  23.084  0.00  0.00    +0.000 A 
ATOM     25  C   UNL     1      -3.487  12.527  23.953  0.00  0.00    +0.000 A 
ATOM     26  C   UNL     1      -3.273  13.778  24.515  0.00  0.00    +0.000 A 
ATOM     27  N   UNL     1      -2.177  14.530  24.280  0.00  0.00    +0.000 NA
ATOM     28  C   UNL     1      -1.250  14.008  23.440  0.00  0.00    +0.000 A 
ENDBRANCH  20  23
ENDBRANCH   1  21
TORSDOF 3
ENDMDL
MODEL 5
REMARK VINA RESULT:      -8.2      4.698      9.901
REMARK  Name = 
REMARK  3 active torsions:
REMARK  status: ('A' for Active; 'I' for Inactive)
REMARK    1  A    between atoms: C_2  and  C_21
REMARK    2  A    between atoms: N_3  and  C_4
REMARK    3  A    between atoms: C_9  and  C_10
REMARK                            x       y       z     vdW  Elec       q    Type
REMARK                         _______ _______ _______ _____ _____    ______ ____
ROOT
ATOM      1  C   UNL     1       1.005  10.156  20.366  0.00  0.00    +0.000 A 
ATOM      2  C   UNL     1       1.365  10.433  19.042  0.00  0.00    +0.000 A 
ATOM      3  C   UNL     1       1.880   9.446  18.194  0.00  0.00    +0.000 A 
ATOM      4  C   UNL     1       2.012   8.172  18.733  0.00  0.00    +0.000 A 
ATOM      5  N   UNL     1       2.435   6.989  18.196  0.00  0.00    +0.000 N 
ATOM      6  C   UNL     1       2.346   6.003  19.153  0.00  0.00    +0.000 A 
ATOM      7  N   UNL     1       1.914   6.519  20.292  0.00  0.00    +0.000 NA
ATOM      8  C   UNL     1       1.691   7.856  20.046  0.00  0.00    +0.000 A 
ATOM      9  C   UNL     1       1.197   8.866  20.890  0.00  0.00    +0.000 A 
ATOM     10  H   UNL     1       2.738   6.845  17.243  0.00  0.00    +0.000 HD
ENDROOT
BRANCH   6  11
ATOM     11  C   UNL     1       2.681   4.600  18.892  0.00  0.00    +0.000 A 
ATOM     12  C   UNL     1       3.679   3.966  19.643  0.00  0.00    +0.000 A 
ATOM     13  C   UNL     1       3.993   2.630  19.399  0.00  0.00    +0.000 A 
ATOM     14  F   UNL     1       4.949   2.035  20.124  0.00  0.00    +0.000 F 
ATOM     15  C   UNL     1       3.334   1.900  18.416  0.00  0.00    +0.000 A 
ATOM     16  C   UNL     1       2.338   2.515  17.662  0.00  0.00    +0.000 A 
ATOM     17  C   UNL     1       2.021   3.851  17.905  0.00  0.00    +0.000 A 
ATOM     18  F   UNL     1       1.053   4.411  17.160  0.00  0.00    +0.000 F 
ENDBRANCH   6  11
BRANCH   1  21
ATOM     19  O   UNL     1      -1.644  11.469  20.217  0.00  0.00    +0.000 OA
ATOM     20  C   UNL     1      -0.808  11.715  21.077  0.00  0.00    +0.000 C 
ATOM     21  N   UNL     1       0.439  11.129  21.221  0.00  0.00    +0.000 N 
ATOM     22  H   UNL     1       0.929  11.287  22.093  0.00  0.00    +0.000 HD
BRANCH  20  23
ATOM     23  C   UNL     1      -1.169  12.684  22.131  0.00  0.00    +0.000 A 
ATOM     24  C   UNL     1      -2.346  12.590  22.875  0.00  0.00    +0.000 A 
ATOM     25  C   UNL     1      -2.611  13.555  23.845  0.00  0.00    +0.000 A 
ATOM     26  C   UNL     1      -1.687  14.573  24.035  0.00  0.00    +0.000 A 
ATOM     27  N   UNL     1      -0.533  14.679  23.343  0.00  0.00    +0.000 NA
ATOM     28  C   UNL     1      -0.292  13.723  22.413  0.00  0.00    +0.000 A 
ENDBRANCH  20  23
ENDBRANCH   1  21
TORSDOF 3
ENDMDL
MODEL 6
REMARK VINA RESULT:      -8.0      4.713     10.128
REMARK  Name = 
REMARK  3 active torsions:
REMARK  status: ('A' for Active; 'I' for Inactive)
REMARK    1  A    between atoms: C_2  and  C_21
REMARK    2  A    between atoms: N_3  and  C_4
REMARK    3  A    between atoms: C_9  and  C_10
REMARK                            x       y       z     vdW  Elec       q    Type
REMARK                         _______ _______ _______ _____ _____    ______ ____
ROOT
ATOM      1  C   UNL     1       0.340  10.299  20.448  0.00  0.00    +0.000 A 
ATOM      2  C   UNL     1       0.869  10.575  19.182  0.00  0.00    +0.000 A 
ATOM      3  C   UNL     1       1.625   9.634  18.474  0.00  0.00    +0.000 A 
ATOM      4  C   UNL     1       1.820   8.405  19.091  0.00  0.00    +0.000 A 
ATOM      5  N   UNL     1       2.460   7.267  18.685  0.00  0.00    +0.000 N 
ATOM      6  C   UNL     1       2.339   6.310  19.667  0.00  0.00    +0.000 A 
ATOM      7  N   UNL     1       1.675   6.803  20.699  0.00  0.00    +0.000 NA
ATOM      8  C   UNL     1       1.336   8.094  20.354  0.00  0.00    +0.000 A 
ATOM      9  C   UNL     1       0.600   9.059  21.060  0.00  0.00    +0.000 A 
ATOM     10  H   UNL     1       2.924   7.133  17.798  0.00  0.00    +0.000 HD
ENDROOT
BRANCH   6  11
ATOM     11  C   UNL     1       2.876   4.952  19.532  0.00  0.00    +0.000 A 
ATOM     12  C   UNL     1       2.004   3.856  19.486  0.00  0.00    +0.000 A 
ATOM     13  C   UNL     1       2.514   2.565  19.352  0.00  0.00    +0.000 A 
ATOM     14  F   UNL     1       1.671   1.525  19.310  0.00  0.00    +0.000 F 
ATOM     15  C   UNL     1       3.883   2.334  19.263  0.00  0.00    +0.000 A 
ATOM     16  C   UNL     1       4.761   3.413  19.304  0.00  0.00    +0.000 A 
ATOM     17  C   UNL     1       4.255   4.704  19.438  0.00  0.00    +0.000 A 
ATOM     18  F   UNL     1       5.132   5.721  19.472  0.00  0.00    +0.000 F 
ENDBRANCH   6  11
BRANCH   1  21
ATOM     19  O   UNL     1      -0.212  10.459  23.352  0.00  0.00    +0.000 OA
ATOM     20  C   UNL     1      -0.693  11.220  22.523  0.00  0.00    +0.000 C 
ATOM     21  N   UNL     1      -0.465  11.219  21.157  0.00  0.00    +0.000 N 
ATOM     22  H   UNL     1      -0.768  12.031  20.634  0.00  0.00    +0.000 HD
BRANCH  20  23
ATOM     23  C   UNL     1      -1.553  12.316  23.013  0.00  0.00    +0.000 A 
ATOM     24  C   UNL     1      -2.873  12.118  23.423  0.00  0.00    +0.000 A 
ATOM     25  C   UNL     1      -3.615  13.212  23.862  0.00  0.00    +0.000 A 
ATOM     26  C   UNL     1      -3.008  14.461  23.877  0.00  0.00    +0.000 A 
ATOM     27  N   UNL     1      -1.730  14.679  23.503  0.00  0.00    +0.000 NA
ATOM     28  C   UNL     1      -1.024  13.598  23.090  0.00  0.00    +0.000 A 
ENDBRANCH  20  23
ENDBRANCH   1  21
TORSDOF 3
ENDMDL
MODEL 7
REMARK VINA RESULT:      -8.0      3.468      9.524
REMARK  Name = 
REMARK  3 active torsions:
REMARK  status: ('A' for Active; 'I' for Inactive)
REMARK    1  A    between atoms: C_2  and  C_21
REMARK    2  A    between atoms: N_3  and  C_4
REMARK    3  A    between atoms: C_9  and  C_10
REMARK                            x       y       z     vdW  Elec       q    Type
REMARK                         _______ _______ _______ _____ _____    ______ ____
ROOT
ATOM      1  C   UNL     1       2.614   6.285  19.686  0.00  0.00    +0.000 A 
ATOM      2  C   UNL     1       2.963   5.009  20.143  0.00  0.00    +0.000 A 
ATOM      3  C   UNL     1       3.716   4.124  19.362  0.00  0.00    +0.000 A 
ATOM      4  C   UNL     1       4.105   4.581  18.108  0.00  0.00    +0.000 A 
ATOM      5  N   UNL     1       4.859   4.013  17.120  0.00  0.00    +0.000 N 
ATOM      6  C   UNL     1       4.976   4.904  16.077  0.00  0.00    +0.000 A 
ATOM      7  N   UNL     1       4.297   6.007  16.347  0.00  0.00    +0.000 NA
ATOM      8  C   UNL     1       3.763   5.828  17.605  0.00  0.00    +0.000 A 
ATOM      9  C   UNL     1       2.986   6.693  18.394  0.00  0.00    +0.000 A 
ATOM     10  H   UNL     1       5.289   3.100  17.153  0.00  0.00    +0.000 HD
ENDROOT
BRANCH   6  11
ATOM     11  C   UNL     1       5.762   4.627  14.870  0.00  0.00    +0.000 A 
ATOM     12  C   UNL     1       5.231   3.816  13.859  0.00  0.00    +0.000 A 
ATOM     13  C   UNL     1       5.976   3.557  12.710  0.00  0.00    +0.000 A 
ATOM     14  F   UNL     1       5.457   2.781  11.749  0.00  0.00    +0.000 F 
ATOM     15  C   UNL     1       7.250   4.089  12.539  0.00  0.00    +0.000 A 
ATOM     16  C   UNL     1       7.790   4.898  13.533  0.00  0.00    +0.000 A 
ATOM     17  C   UNL     1       7.048   5.159  14.684  0.00  0.00    +0.000 A 
ATOM     18  F   UNL     1       7.600   5.946  15.622  0.00  0.00    +0.000 F 
ENDBRANCH   6  11
BRANCH   1  21
ATOM     19  O   UNL     1       1.568   8.959  18.966  0.00  0.00    +0.000 OA
ATOM     20  C   UNL     1       1.452   8.458  20.077  0.00  0.00    +0.000 C 
ATOM     21  N   UNL     1       1.895   7.209  20.479  0.00  0.00    +0.000 N 
ATOM     22  H   UNL     1       1.547   6.854  21.361  0.00  0.00    +0.000 HD
BRANCH  20  23
ATOM     23  C   UNL     1       0.696   9.212  21.097  0.00  0.00    +0.000 A 
ATOM     24  C   UNL     1       0.708   8.876  22.452  0.00  0.00    +0.000 A 
ATOM     25  C   UNL     1      -0.043   9.638  23.344  0.00  0.00    +0.000 A 
ATOM     26  C   UNL     1      -0.773  10.709  22.847  0.00  0.00    +0.000 A 
ATOM     27  N   UNL     1      -0.790  11.068  21.546  0.00  0.00    +0.000 NA
ATOM     28  C   UNL     1      -0.043  10.318  20.699  0.00  0.00    +0.000 A 
ENDBRANCH  20  23
ENDBRANCH   1  21
TORSDOF 3
ENDMDL
MODEL 8
REMARK VINA RESULT:      -7.9      3.766      9.744
REMARK  Name = 
REMARK  3 active torsions:
REMARK  status: ('A' for Active; 'I' for Inactive)
REMARK    1  A    between atoms: C_2  and  C_21
REMARK    2  A    between atoms: N_3  and  C_4
REMARK    3  A    between atoms: C_9  and  C_10
REMARK                            x       y       z     vdW  Elec       q    Type
REMARK                         _______ _______ _______ _____ _____    ______ ____
ROOT
ATOM      1  C   UNL     1       1.066   8.363  20.434  0.00  0.00    +0.000 A 
ATOM      2  C   UNL     1       1.009   7.151  21.133  0.00  0.00    +0.000 A 
ATOM      3  C   UNL     1       1.768   6.040  20.751  0.00  0.00    +0.000 A 
ATOM      4  C   UNL     1       2.589   6.202  19.642  0.00  0.00    +0.000 A 
ATOM      5  N   UNL     1       3.473   5.360  19.026  0.00  0.00    +0.000 N 
ATOM      6  C   UNL     1       4.063   6.022  17.973  0.00  0.00    +0.000 A 
ATOM      7  N   UNL     1       3.565   7.243  17.872  0.00  0.00    +0.000 NA
ATOM      8  C   UNL     1       2.661   7.374  18.904  0.00  0.00    +0.000 A 
ATOM      9  C   UNL     1       1.874   8.472  19.289  0.00  0.00    +0.000 A 
ATOM     10  H   UNL     1       3.686   4.414  19.309  0.00  0.00    +0.000 HD
ENDROOT
BRANCH   6  11
ATOM     11  C   UNL     1       5.097   5.419  17.126  0.00  0.00    +0.000 A 
ATOM     12  C   UNL     1       4.794   5.039  15.812  0.00  0.00    +0.000 A 
ATOM     13  C   UNL     1       5.779   4.472  15.006  0.00  0.00    +0.000 A 
ATOM     14  F   UNL     1       5.477   4.113  13.751  0.00  0.00    +0.000 F 
ATOM     15  C   UNL     1       7.072   4.269  15.477  0.00  0.00    +0.000 A 
ATOM     16  C   UNL     1       7.389   4.643  16.780  0.00  0.00    +0.000 A 
ATOM     17  C   UNL     1       6.406   5.211  17.589  0.00  0.00    +0.000 A 
ATOM     18  F   UNL     1       6.750   5.562  18.839  0.00  0.00    +0.000 F 
ENDBRANCH   6  11
BRANCH   1  21
ATOM     19  O   UNL     1       1.035   9.739  23.055  0.00  0.00    +0.000 OA
ATOM     20  C   UNL     1       0.365  10.089  22.092  0.00  0.00    +0.000 C 
ATOM     21  N   UNL     1       0.343   9.509  20.834  0.00  0.00    +0.000 N 
ATOM     22  H   UNL     1      -0.101  10.031  20.089  0.00  0.00    +0.000 HD
BRANCH  20  23
ATOM     23  C   UNL     1      -0.464  11.303  22.235  0.00  0.00    +0.000 A 
ATOM     24  C   UNL     1      -1.567  11.372  23.087  0.00  0.00    +0.000 A 
ATOM     25  C   UNL     1      -2.298  12.556  23.152  0.00  0.00    +0.000 A 
ATOM     26  C   UNL     1      -1.894  13.627  22.366  0.00  0.00    +0.000 A 
ATOM     27  N   UNL     1      -0.821  13.595  21.547  0.00  0.00    +0.000 NA
ATOM     28  C   UNL     1      -0.119  12.436  21.509  0.00  0.00    +0.000 A 
ENDBRANCH  20  23
ENDBRANCH   1  21
TORSDOF 3
ENDMDL
MODEL 9
REMARK VINA RESULT:      -7.9      2.067      2.925
REMARK  Name = 
REMARK  3 active torsions:
REMARK  status: ('A' for Active; 'I' for Inactive)
REMARK    1  A    between atoms: C_2  and  C_21
REMARK    2  A    between atoms: N_3  and  C_4
REMARK    3  A    between atoms: C_9  and  C_10
REMARK                            x       y       z     vdW  Elec       q    Type
REMARK                         _______ _______ _______ _____ _____    ______ ____
ROOT
ATOM      1  C   UNL     1       2.833   7.103  18.616  0.00  0.00    +0.000 A 
ATOM      2  C   UNL     1       2.401   6.376  19.732  0.00  0.00    +0.000 A 
ATOM      3  C   UNL     1       1.529   6.923  20.679  0.00  0.00    +0.000 A 
ATOM      4  C   UNL     1       1.105   8.227  20.452  0.00  0.00    +0.000 A 
ATOM      5  N   UNL     1       0.246   9.043  21.133  0.00  0.00    +0.000 N 
ATOM      6  C   UNL     1       0.145  10.244  20.467  0.00  0.00    +0.000 A 
ATOM      7  N   UNL     1       0.933  10.238  19.405  0.00  0.00    +0.000 NA
ATOM      8  C   UNL     1       1.525   8.994  19.374  0.00  0.00    +0.000 A 
ATOM      9  C   UNL     1       2.420   8.436  18.447  0.00  0.00    +0.000 A 
ATOM     10  H   UNL     1      -0.260   8.802  21.974  0.00  0.00    +0.000 HD
ENDROOT
BRANCH   6  11
ATOM     11  C   UNL     1      -0.734  11.332  20.907  0.00  0.00    +0.000 A 
ATOM     12  C   UNL     1      -0.542  11.925  22.161  0.00  0.00    +0.000 A 
ATOM     13  C   UNL     1      -1.374  12.964  22.576  0.00  0.00    +0.000 A 
ATOM     14  F   UNL     1      -1.180  13.523  23.778  0.00  0.00    +0.000 F 
ATOM     15  C   UNL     1      -2.404  13.432  21.767  0.00  0.00    +0.000 A 
ATOM     16  C   UNL     1      -2.606  12.855  20.517  0.00  0.00    +0.000 A 
ATOM     17  C   UNL     1      -1.775  11.817  20.099  0.00  0.00    +0.000 A 
ATOM     18  F   UNL     1      -1.999  11.285  18.886  0.00  0.00    +0.000 F 
ENDBRANCH   6  11
BRANCH   1  21
ATOM     19  O   UNL     1       5.356   5.587  18.935  0.00  0.00    +0.000 OA
ATOM     20  C   UNL     1       4.859   5.865  17.851  0.00  0.00    +0.000 C 
ATOM     21  N   UNL     1       3.676   6.550  17.626  0.00  0.00    +0.000 N 
ATOM     22  H   UNL     1       3.295   6.524  16.689  0.00  0.00    +0.000 HD
BRANCH  20  23
ATOM     23  C   UNL     1       5.533   5.364  16.637  0.00  0.00    +0.000 A 
ATOM     24  C   UNL     1       4.941   4.451  15.763  0.00  0.00    +0.000 A 
ATOM     25  C   UNL     1       5.655   4.025  14.645  0.00  0.00    +0.000 A 
ATOM     26  C   UNL     1       6.931   4.533  14.441  0.00  0.00    +0.000 A 
ATOM     27  N   UNL     1       7.521   5.430  15.259  0.00  0.00    +0.000 NA
ATOM     28  C   UNL     1       6.804   5.838  16.334  0.00  0.00    +0.000 A 
ENDBRANCH  20  23
ENDBRANCH   1  21
TORSDOF 3
ENDMDL
