MODEL 1
REMARK VINA RESULT:      -8.1      0.000      0.000
REMARK  Name = 
REMARK  6 active torsions:
REMARK  status: ('A' for Active; 'I' for Inactive)
REMARK    1  A    between atoms: C_2  and  C_20
REMARK    2  A    between atoms: N_3  and  C_4
REMARK    3  A    between atoms: C_7  and  S_8
REMARK    4  A    between atoms: S_8  and  N_11
REMARK    5  A    between atoms: C_23  and  O_24
REMARK    6  A    between atoms: O_24  and  C_25
REMARK                            x       y       z     vdW  Elec       q    Type
REMARK                         _______ _______ _______ _____ _____    ______ ____
ROOT
ATOM      1  C   UNL     1       8.056   8.389  18.021  0.00  0.00    +0.000 A 
ATOM      2  C   UNL     1       8.418   7.251  18.749  0.00  0.00    +0.000 A 
ATOM      3  C   UNL     1       7.620   6.105  18.728  0.00  0.00    +0.000 A 
ATOM      4  C   UNL     1       6.435   6.097  17.992  0.00  0.00    +0.000 A 
ATOM      5  C   UNL     1       6.050   7.229  17.268  0.00  0.00    +0.000 A 
ATOM      6  C   UNL     1       6.852   8.375  17.295  0.00  0.00    +0.000 A 
ENDROOT
BRANCH   1   9
ATOM      7  O   UNL     1       9.069  10.033  20.245  0.00  0.00    +0.000 OA
ATOM      8  C   UNL     1       9.248  10.307  19.062  0.00  0.00    +0.000 C 
ATOM      9  N   UNL     1       8.842   9.562  17.970  0.00  0.00    +0.000 N 
ATOM     10  H   UNL     1       9.238   9.798  17.070  0.00  0.00    +0.000 HD
BRANCH   8  11
ATOM     11  C   UNL     1      10.043  11.527  18.758  0.00  0.00    +0.000 A 
ATOM     12  C   UNL     1      10.265  12.451  19.787  0.00  0.00    +0.000 A 
ATOM     13  C   UNL     1      10.944  13.649  19.537  0.00  0.00    +0.000 A 
ATOM     14  C   UNL     1      11.428  13.921  18.261  0.00  0.00    +0.000 A 
ATOM     15  C   UNL     1      11.174  13.010  17.226  0.00  0.00    +0.000 A 
ATOM     16  C   UNL     1      10.489  11.815  17.466  0.00  0.00    +0.000 A 
BRANCH  14  17
ATOM     17  O   UNL     1      12.103  15.036  17.872  0.00  0.00    +0.000 OA
BRANCH  17  18
ATOM     18  C   UNL     1      11.395  16.217  17.523  0.00  0.00    +0.000 C 
ATOM     19  F   UNL     1      10.274  16.422  18.245  0.00  0.00    +0.000 F 
ATOM     20  F   UNL     1      12.213  17.275  17.730  0.00  0.00    +0.000 F 
ATOM     21  F   UNL     1      11.075  16.183  16.212  0.00  0.00    +0.000 F 
ENDBRANCH  17  18
ENDBRANCH  14  17
ENDBRANCH   8  11
ENDBRANCH   1   9
BRANCH   4  22
ATOM     22  S   UNL     1       5.512   4.586  17.845  0.00  0.00    +0.000 S 
ATOM     23  O   UNL     1       5.996   3.915  16.651  0.00  0.00    +0.000 OA
ATOM     24  O   UNL     1       5.552   3.906  19.123  0.00  0.00    +0.000 OA
BRANCH  22  25
ATOM     25  N   UNL     1       3.956   5.085  17.476  0.00  0.00    +0.000 N 
ATOM     26  C   UNL     1       3.020   4.741  18.446  0.00  0.00    +0.000 A 
ATOM     27  N   UNL     1       2.876   5.569  19.482  0.00  0.00    +0.000 NA
ATOM     28  C   UNL     1       2.017   5.150  20.431  0.00  0.00    +0.000 A 
ATOM     29  C   UNL     1       1.363   3.940  20.382  0.00  0.00    +0.000 A 
ATOM     30  C   UNL     1       1.610   3.174  19.265  0.00  0.00    +0.000 A 
ATOM     31  N   UNL     1       2.417   3.564  18.262  0.00  0.00    +0.000 NA
ATOM     32  H   UNL     1       3.700   4.712  16.567  0.00  0.00    +0.000 HD
ENDBRANCH  22  25
ENDBRANCH   4  22
TORSDOF 6
ENDMDL
MODEL 2
REMARK VINA RESULT:      -8.0      0.730      1.022
REMARK  Name = 
REMARK  6 active torsions:
REMARK  status: ('A' for Active; 'I' for Inactive)
REMARK    1  A    between atoms: C_2  and  C_20
REMARK    2  A    between atoms: N_3  and  C_4
REMARK    3  A    between atoms: C_7  and  S_8
REMARK    4  A    between atoms: S_8  and  N_11
REMARK    5  A    between atoms: C_23  and  O_24
REMARK    6  A    between atoms: O_24  and  C_25
REMARK                            x       y       z     vdW  Elec       q    Type
REMARK                         _______ _______ _______ _____ _____    ______ ____
ROOT
ATOM      1  C   UNL     1       7.798   8.347  17.834  0.00  0.00    +0.000 A 
ATOM      2  C   UNL     1       8.275   7.249  18.557  0.00  0.00    +0.000 A 
ATOM      3  C   UNL     1       7.538   6.065  18.630  0.00  0.00    +0.000 A 
ATOM      4  C   UNL     1       6.299   5.977  17.996  0.00  0.00    +0.000 A 
ATOM      5  C   UNL     1       5.799   7.068  17.278  0.00  0.00    +0.000 A 
ATOM      6  C   UNL     1       6.541   8.253  17.210  0.00  0.00    +0.000 A 
ENDROOT
BRANCH   1   9
ATOM      7  O   UNL     1       9.014  10.035  19.917  0.00  0.00    +0.000 OA
ATOM      8  C   UNL     1       9.025  10.318  18.723  0.00  0.00    +0.000 C 
ATOM      9  N   UNL     1       8.515   9.555  17.688  0.00  0.00    +0.000 N 
ATOM     10  H   UNL     1       8.780   9.809  16.746  0.00  0.00    +0.000 HD
BRANCH   8  11
ATOM     11  C   UNL     1       9.717  11.573  18.326  0.00  0.00    +0.000 A 
ATOM     12  C   UNL     1       9.063  12.792  18.546  0.00  0.00    +0.000 A 
ATOM     13  C   UNL     1       9.637  13.997  18.125  0.00  0.00    +0.000 A 
ATOM     14  C   UNL     1      10.883  13.994  17.504  0.00  0.00    +0.000 A 
ATOM     15  C   UNL     1      11.519  12.769  17.254  0.00  0.00    +0.000 A 
ATOM     16  C   UNL     1      10.947  11.561  17.663  0.00  0.00    +0.000 A 
BRANCH  14  17
ATOM     17  O   UNL     1      11.562  15.080  17.046  0.00  0.00    +0.000 OA
BRANCH  17  18
ATOM     18  C   UNL     1      11.088  16.390  17.325  0.00  0.00    +0.000 C 
ATOM     19  F   UNL     1      11.910  17.375  16.906  0.00  0.00    +0.000 F 
ATOM     20  F   UNL     1       9.903  16.553  16.693  0.00  0.00    +0.000 F 
ATOM     21  F   UNL     1      10.880  16.524  18.651  0.00  0.00    +0.000 F 
ENDBRANCH  17  18
ENDBRANCH  14  17
ENDBRANCH   8  11
ENDBRANCH   1   9
BRANCH   4  22
ATOM     22  S   UNL     1       5.446   4.420  17.963  0.00  0.00    +0.000 S 
ATOM     23  O   UNL     1       5.845   3.750  16.737  0.00  0.00    +0.000 OA
ATOM     24  O   UNL     1       5.646   3.769  19.240  0.00  0.00    +0.000 OA
BRANCH  22  25
ATOM     25  N   UNL     1       3.838   4.832  17.742  0.00  0.00    +0.000 N 
ATOM     26  C   UNL     1       3.009   4.398  18.770  0.00  0.00    +0.000 A 
ATOM     27  N   UNL     1       2.902   5.181  19.846  0.00  0.00    +0.000 NA
ATOM     28  C   UNL     1       2.153   4.677  20.845  0.00  0.00    +0.000 A 
ATOM     29  C   UNL     1       1.570   3.431  20.803  0.00  0.00    +0.000 A 
ATOM     30  C   UNL     1       1.768   2.720  19.641  0.00  0.00    +0.000 A 
ATOM     31  N   UNL     1       2.464   3.193  18.591  0.00  0.00    +0.000 NA
ATOM     32  H   UNL     1       3.529   4.475  16.843  0.00  0.00    +0.000 HD
ENDBRANCH  22  25
ENDBRANCH   4  22
TORSDOF 6
ENDMDL
MODEL 3
REMARK VINA RESULT:      -8.0      9.098     12.185
REMARK  Name = 
REMARK  6 active torsions:
REMARK  status: ('A' for Active; 'I' for Inactive)
REMARK    1  A    between atoms: C_2  and  C_20
REMARK    2  A    between atoms: N_3  and  C_4
REMARK    3  A    between atoms: C_7  and  S_8
REMARK    4  A    between atoms: S_8  and  N_11
REMARK    5  A    between atoms: C_23  and  O_24
REMARK    6  A    between atoms: O_24  and  C_25
REMARK                            x       y       z     vdW  Elec       q    Type
REMARK                         _______ _______ _______ _____ _____    ______ ____
ROOT
ATOM      1  C   UNL     1       0.449   9.395  21.721  0.00  0.00    +0.000 A 
ATOM      2  C   UNL     1      -0.440   9.444  22.800  0.00  0.00    +0.000 A 
ATOM      3  C   UNL     1      -1.055  10.643  23.166  0.00  0.00    +0.000 A 
ATOM      4  C   UNL     1      -0.766  11.814  22.467  0.00  0.00    +0.000 A 
ATOM      5  C   UNL     1       0.130  11.789  21.394  0.00  0.00    +0.000 A 
ATOM      6  C   UNL     1       0.745  10.585  21.033  0.00  0.00    +0.000 A 
ENDROOT
BRANCH   1   9
ATOM      7  O   UNL     1       1.671   8.817  19.106  0.00  0.00    +0.000 OA
ATOM      8  C   UNL     1       1.589   7.994  20.013  0.00  0.00    +0.000 C 
ATOM      9  N   UNL     1       1.070   8.207  21.277  0.00  0.00    +0.000 N 
ATOM     10  H   UNL     1       1.258   7.508  21.982  0.00  0.00    +0.000 HD
BRANCH   8  11
ATOM     11  C   UNL     1       2.166   6.646  19.765  0.00  0.00    +0.000 A 
ATOM     12  C   UNL     1       1.809   5.599  20.625  0.00  0.00    +0.000 A 
ATOM     13  C   UNL     1       2.378   4.330  20.481  0.00  0.00    +0.000 A 
ATOM     14  C   UNL     1       3.292   4.090  19.458  0.00  0.00    +0.000 A 
ATOM     15  C   UNL     1       3.673   5.148  18.621  0.00  0.00    +0.000 A 
ATOM     16  C   UNL     1       3.115   6.421  18.764  0.00  0.00    +0.000 A 
BRANCH  14  17
ATOM     17  O   UNL     1       3.922   2.913  19.195  0.00  0.00    +0.000 OA
BRANCH  17  18
ATOM     18  C   UNL     1       3.241   1.874  18.507  0.00  0.00    +0.000 C 
ATOM     19  F   UNL     1       3.975   0.756  18.328  0.00  0.00    +0.000 F 
ATOM     20  F   UNL     1       2.151   1.533  19.233  0.00  0.00    +0.000 F 
ATOM     21  F   UNL     1       2.823   2.324  17.306  0.00  0.00    +0.000 F 
ENDBRANCH  17  18
ENDBRANCH  14  17
ENDBRANCH   8  11
ENDBRANCH   1   9
BRANCH   4  22
ATOM     22  S   UNL     1      -1.671  13.297  22.839  0.00  0.00    +0.000 S 
ATOM     23  O   UNL     1      -0.854  14.066  23.761  0.00  0.00    +0.000 OA
ATOM     24  O   UNL     1      -2.103  13.888  21.590  0.00  0.00    +0.000 OA
BRANCH  22  25
ATOM     25  N   UNL     1      -2.981  12.768  23.740  0.00  0.00    +0.000 N 
ATOM     26  C   UNL     1      -4.207  13.171  23.222  0.00  0.00    +0.000 A 
ATOM     27  N   UNL     1      -4.752  12.412  22.269  0.00  0.00    +0.000 NA
ATOM     28  C   UNL     1      -5.897  12.888  21.747  0.00  0.00    +0.000 A 
ATOM     29  C   UNL     1      -6.459  14.090  22.116  0.00  0.00    +0.000 A 
ATOM     30  C   UNL     1      -5.790  14.782  23.101  0.00  0.00    +0.000 A 
ATOM     31  N   UNL     1      -4.670  14.330  23.695  0.00  0.00    +0.000 NA
ATOM     32  H   UNL     1      -2.865  13.079  24.699  0.00  0.00    +0.000 HD
ENDBRANCH  22  25
ENDBRANCH   4  22
TORSDOF 6
ENDMDL
MODEL 4
REMARK VINA RESULT:      -8.0      9.002     12.096
REMARK  Name = 
REMARK  6 active torsions:
REMARK  status: ('A' for Active; 'I' for Inactive)
REMARK    1  A    between atoms: C_2  and  C_20
REMARK    2  A    between atoms: N_3  and  C_4
REMARK    3  A    between atoms: C_7  and  S_8
REMARK    4  A    between atoms: S_8  and  N_11
REMARK    5  A    between atoms: C_23  and  O_24
REMARK    6  A    between atoms: O_24  and  C_25
REMARK                            x       y       z     vdW  Elec       q    Type
REMARK                         _______ _______ _______ _____ _____    ______ ____
ROOT
ATOM      1  C   UNL     1       0.574   9.282  21.793  0.00  0.00    +0.000 A 
ATOM      2  C   UNL     1      -0.313   9.337  22.873  0.00  0.00    +0.000 A 
ATOM      3  C   UNL     1      -0.973  10.524  23.197  0.00  0.00    +0.000 A 
ATOM      4  C   UNL     1      -0.732  11.679  22.452  0.00  0.00    +0.000 A 
ATOM      5  C   UNL     1       0.161  11.647  21.377  0.00  0.00    +0.000 A 
ATOM      6  C   UNL     1       0.821  10.456  21.059  0.00  0.00    +0.000 A 
ENDROOT
BRANCH   1   9
ATOM      7  O   UNL     1       1.691   8.600  19.155  0.00  0.00    +0.000 OA
ATOM      8  C   UNL     1       1.704   7.836  20.116  0.00  0.00    +0.000 C 
ATOM      9  N   UNL     1       1.239   8.103  21.391  0.00  0.00    +0.000 N 
ATOM     10  H   UNL     1       1.504   7.463  22.128  0.00  0.00    +0.000 HD
BRANCH   8  11
ATOM     11  C   UNL     1       2.345   6.508  19.922  0.00  0.00    +0.000 A 
ATOM     12  C   UNL     1       3.232   6.347  18.849  0.00  0.00    +0.000 A 
ATOM     13  C   UNL     1       3.806   5.100  18.579  0.00  0.00    +0.000 A 
ATOM     14  C   UNL     1       3.517   4.009  19.394  0.00  0.00    +0.000 A 
ATOM     15  C   UNL     1       2.602   4.166  20.445  0.00  0.00    +0.000 A 
ATOM     16  C   UNL     1       2.018   5.406  20.716  0.00  0.00    +0.000 A 
BRANCH  14  17
ATOM     17  O   UNL     1       3.998   2.744  19.255  0.00  0.00    +0.000 OA
BRANCH  17  18
ATOM     18  C   UNL     1       3.568   1.929  18.174  0.00  0.00    +0.000 C 
ATOM     19  F   UNL     1       2.249   2.021  17.904  0.00  0.00    +0.000 F 
ATOM     20  F   UNL     1       4.239   2.312  17.064  0.00  0.00    +0.000 F 
ATOM     21  F   UNL     1       3.876   0.640  18.428  0.00  0.00    +0.000 F 
ENDBRANCH  17  18
ENDBRANCH  14  17
ENDBRANCH   8  11
ENDBRANCH   1   9
BRANCH   4  22
ATOM     22  S   UNL     1      -1.694  13.138  22.772  0.00  0.00    +0.000 S 
ATOM     23  O   UNL     1      -0.937  13.939  23.719  0.00  0.00    +0.000 OA
ATOM     24  O   UNL     1      -2.090  13.705  21.500  0.00  0.00    +0.000 OA
BRANCH  22  25
ATOM     25  N   UNL     1      -3.024  12.580  23.624  0.00  0.00    +0.000 N 
ATOM     26  C   UNL     1      -4.234  13.067  23.142  0.00  0.00    +0.000 A 
ATOM     27  N   UNL     1      -4.801  12.411  22.128  0.00  0.00    +0.000 NA
ATOM     28  C   UNL     1      -5.927  12.969  21.647  0.00  0.00    +0.000 A 
ATOM     29  C   UNL     1      -6.449  14.153  22.117  0.00  0.00    +0.000 A 
ATOM     30  C   UNL     1      -5.760  14.736  23.157  0.00  0.00    +0.000 A 
ATOM     31  N   UNL     1      -4.659  14.197  23.711  0.00  0.00    +0.000 NA
ATOM     32  H   UNL     1      -2.900  12.804  24.606  0.00  0.00    +0.000 HD
ENDBRANCH  22  25
ENDBRANCH   4  22
TORSDOF 6
ENDMDL
MODEL 5
REMARK VINA RESULT:      -8.0      7.667     10.008
REMARK  Name = 
REMARK  6 active torsions:
REMARK  status: ('A' for Active; 'I' for Inactive)
REMARK    1  A    between atoms: C_2  and  C_20
REMARK    2  A    between atoms: N_3  and  C_4
REMARK    3  A    between atoms: C_7  and  S_8
REMARK    4  A    between atoms: S_8  and  N_11
REMARK    5  A    between atoms: C_23  and  O_24
REMARK    6  A    between atoms: O_24  and  C_25
REMARK                            x       y       z     vdW  Elec       q    Type
REMARK                         _______ _______ _______ _____ _____    ______ ____
ROOT
ATOM      1  C   UNL     1       2.525   7.238  18.948  0.00  0.00    +0.000 A 
ATOM      2  C   UNL     1       2.261   6.699  20.211  0.00  0.00    +0.000 A 
ATOM      3  C   UNL     1       1.511   7.410  21.150  0.00  0.00    +0.000 A 
ATOM      4  C   UNL     1       1.033   8.683  20.838  0.00  0.00    +0.000 A 
ATOM      5  C   UNL     1       1.296   9.244  19.585  0.00  0.00    +0.000 A 
ATOM      6  C   UNL     1       2.052   8.529  18.649  0.00  0.00    +0.000 A 
ENDROOT
BRANCH   1   9
ATOM      7  O   UNL     1       4.920   5.547  19.216  0.00  0.00    +0.000 OA
ATOM      8  C   UNL     1       4.388   5.805  18.140  0.00  0.00    +0.000 C 
ATOM      9  N   UNL     1       3.242   6.552  17.942  0.00  0.00    +0.000 N 
ATOM     10  H   UNL     1       2.805   6.506  17.032  0.00  0.00    +0.000 HD
BRANCH   8  11
ATOM     11  C   UNL     1       4.989   5.200  16.921  0.00  0.00    +0.000 A 
ATOM     12  C   UNL     1       5.282   6.038  15.837  0.00  0.00    +0.000 A 
ATOM     13  C   UNL     1       5.780   5.510  14.640  0.00  0.00    +0.000 A 
ATOM     14  C   UNL     1       6.012   4.142  14.527  0.00  0.00    +0.000 A 
ATOM     15  C   UNL     1       5.685   3.303  15.601  0.00  0.00    +0.000 A 
ATOM     16  C   UNL     1       5.179   3.822  16.797  0.00  0.00    +0.000 A 
BRANCH  14  17
ATOM     17  O   UNL     1       6.492   3.491  13.434  0.00  0.00    +0.000 OA
BRANCH  17  18
ATOM     18  C   UNL     1       5.692   3.366  12.266  0.00  0.00    +0.000 C 
ATOM     19  F   UNL     1       4.411   3.752  12.431  0.00  0.00    +0.000 F 
ATOM     20  F   UNL     1       6.232   4.146  11.301  0.00  0.00    +0.000 F 
ATOM     21  F   UNL     1       5.716   2.087  11.836  0.00  0.00    +0.000 F 
ENDBRANCH  17  18
ENDBRANCH  14  17
ENDBRANCH   8  11
ENDBRANCH   1   9
BRANCH   4  22
ATOM     22  S   UNL     1      -0.052   9.509  21.977  0.00  0.00    +0.000 S 
ATOM     23  O   UNL     1      -1.090   8.558  22.331  0.00  0.00    +0.000 OA
ATOM     24  O   UNL     1       0.759  10.114  23.013  0.00  0.00    +0.000 OA
BRANCH  22  25
ATOM     25  N   UNL     1      -0.815  10.677  21.050  0.00  0.00    +0.000 N 
ATOM     26  C   UNL     1      -0.936  11.903  21.695  0.00  0.00    +0.000 A 
ATOM     27  N   UNL     1       0.099  12.742  21.623  0.00  0.00    +0.000 NA
ATOM     28  C   UNL     1      -0.038  13.879  22.330  0.00  0.00    +0.000 A 
ATOM     29  C   UNL     1      -1.134  14.157  23.116  0.00  0.00    +0.000 A 
ATOM     30  C   UNL     1      -2.127  13.202  23.113  0.00  0.00    +0.000 A 
ATOM     31  N   UNL     1      -2.066  12.072  22.385  0.00  0.00    +0.000 NA
ATOM     32  H   UNL     1      -1.719  10.323  20.757  0.00  0.00    +0.000 HD
ENDBRANCH  22  25
ENDBRANCH   4  22
TORSDOF 6
ENDMDL
MODEL 6
REMARK VINA RESULT:      -8.0      8.159     10.066
REMARK  Name = 
REMARK  6 active torsions:
REMARK  status: ('A' for Active; 'I' for Inactive)
REMARK    1  A    between atoms: C_2  and  C_20
REMARK    2  A    between atoms: N_3  and  C_4
REMARK    3  A    between atoms: C_7  and  S_8
REMARK    4  A    between atoms: S_8  and  N_11
REMARK    5  A    between atoms: C_23  and  O_24
REMARK    6  A    between atoms: O_24  and  C_25
REMARK                            x       y       z     vdW  Elec       q    Type
REMARK                         _______ _______ _______ _____ _____    ______ ____
ROOT
ATOM      1  C   UNL     1       1.312   8.684  19.569  0.00  0.00    +0.000 A 
ATOM      2  C   UNL     1       1.718   7.573  20.316  0.00  0.00    +0.000 A 
ATOM      3  C   UNL     1       2.686   6.695  19.823  0.00  0.00    +0.000 A 
ATOM      4  C   UNL     1       3.242   6.910  18.562  0.00  0.00    +0.000 A 
ATOM      5  C   UNL     1       2.839   8.007  17.795  0.00  0.00    +0.000 A 
ATOM      6  C   UNL     1       1.867   8.882  18.292  0.00  0.00    +0.000 A 
ENDROOT
BRANCH   1   9
ATOM      7  O   UNL     1       1.289  10.186  22.101  0.00  0.00    +0.000 OA
ATOM      8  C   UNL     1       0.403  10.269  21.255  0.00  0.00    +0.000 C 
ATOM      9  N   UNL     1       0.369   9.629  20.030  0.00  0.00    +0.000 N 
ATOM     10  H   UNL     1      -0.310   9.952  19.354  0.00  0.00    +0.000 HD
BRANCH   8  11
ATOM     11  C   UNL     1      -0.720  11.202  21.534  0.00  0.00    +0.000 A 
ATOM     12  C   UNL     1      -1.238  11.252  22.835  0.00  0.00    +0.000 A 
ATOM     13  C   UNL     1      -2.342  12.058  23.134  0.00  0.00    +0.000 A 
ATOM     14  C   UNL     1      -2.921  12.842  22.140  0.00  0.00    +0.000 A 
ATOM     15  C   UNL     1      -2.422  12.763  20.832  0.00  0.00    +0.000 A 
ATOM     16  C   UNL     1      -1.325  11.953  20.523  0.00  0.00    +0.000 A 
BRANCH  14  17
ATOM     17  O   UNL     1      -3.990  13.671  22.282  0.00  0.00    +0.000 OA
BRANCH  17  18
ATOM     18  C   UNL     1      -5.294  13.134  22.457  0.00  0.00    +0.000 C 
ATOM     19  F   UNL     1      -5.529  12.646  23.692  0.00  0.00    +0.000 F 
ATOM     20  F   UNL     1      -6.189  14.123  22.232  0.00  0.00    +0.000 F 
ATOM     21  F   UNL     1      -5.508  12.159  21.549  0.00  0.00    +0.000 F 
ENDBRANCH  17  18
ENDBRANCH  14  17
ENDBRANCH   8  11
ENDBRANCH   1   9
BRANCH   4  22
ATOM     22  S   UNL     1       4.582   5.880  18.015  0.00  0.00    +0.000 S 
ATOM     23  O   UNL     1       5.463   6.724  17.226  0.00  0.00    +0.000 OA
ATOM     24  O   UNL     1       5.102   5.168  19.163  0.00  0.00    +0.000 OA
BRANCH  22  25
ATOM     25  N   UNL     1       3.876   4.827  16.920  0.00  0.00    +0.000 N 
ATOM     26  C   UNL     1       3.156   3.802  17.524  0.00  0.00    +0.000 A 
ATOM     27  N   UNL     1       1.890   4.056  17.862  0.00  0.00    +0.000 NA
ATOM     28  C   UNL     1       1.264   3.059  18.515  0.00  0.00    +0.000 A 
ATOM     29  C   UNL     1       1.876   1.876  18.862  0.00  0.00    +0.000 A 
ATOM     30  C   UNL     1       3.189   1.746  18.466  0.00  0.00    +0.000 A 
ATOM     31  N   UNL     1       3.849   2.688  17.766  0.00  0.00    +0.000 NA
ATOM     32  H   UNL     1       4.598   4.461  16.307  0.00  0.00    +0.000 HD
ENDBRANCH  22  25
ENDBRANCH   4  22
TORSDOF 6
ENDMDL
MODEL 7
REMARK VINA RESULT:      -8.0      7.771     10.634
REMARK  Name = 
REMARK  6 active torsions:
REMARK  status: ('A' for Active; 'I' for Inactive)
REMARK    1  A    between atoms: C_2  and  C_20
REMARK    2  A    between atoms: N_3  and  C_4
REMARK    3  A    between atoms: C_7  and  S_8
REMARK    4  A    between atoms: S_8  and  N_11
REMARK    5  A    between atoms: C_23  and  O_24
REMARK    6  A    between atoms: O_24  and  C_25
REMARK                            x       y       z     vdW  Elec       q    Type
REMARK                         _______ _______ _______ _____ _____    ______ ____
ROOT
ATOM      1  C   UNL     1       1.543   8.768  19.443  0.00  0.00    +0.000 A 
ATOM      2  C   UNL     1       0.762   9.794  18.900  0.00  0.00    +0.000 A 
ATOM      3  C   UNL     1       0.045  10.661  19.726  0.00  0.00    +0.000 A 
ATOM      4  C   UNL     1       0.084  10.494  21.110  0.00  0.00    +0.000 A 
ATOM      5  C   UNL     1       0.848   9.466  21.672  0.00  0.00    +0.000 A 
ATOM      6  C   UNL     1       1.563   8.599  20.839  0.00  0.00    +0.000 A 
ENDROOT
BRANCH   1   9
ATOM      7  O   UNL     1       2.031   5.891  19.840  0.00  0.00    +0.000 OA
ATOM      8  C   UNL     1       2.539   6.548  18.935  0.00  0.00    +0.000 C 
ATOM      9  N   UNL     1       2.322   7.886  18.662  0.00  0.00    +0.000 N 
ATOM     10  H   UNL     1       2.640   8.238  17.770  0.00  0.00    +0.000 HD
BRANCH   8  11
ATOM     11  C   UNL     1       3.426   5.825  17.985  0.00  0.00    +0.000 A 
ATOM     12  C   UNL     1       3.171   4.471  17.732  0.00  0.00    +0.000 A 
ATOM     13  C   UNL     1       4.018   3.727  16.904  0.00  0.00    +0.000 A 
ATOM     14  C   UNL     1       5.114   4.337  16.302  0.00  0.00    +0.000 A 
ATOM     15  C   UNL     1       5.387   5.683  16.584  0.00  0.00    +0.000 A 
ATOM     16  C   UNL     1       4.550   6.431  17.418  0.00  0.00    +0.000 A 
BRANCH  14  17
ATOM     17  O   UNL     1       6.019   3.744  15.476  0.00  0.00    +0.000 OA
BRANCH  17  18
ATOM     18  C   UNL     1       6.083   4.110  14.105  0.00  0.00    +0.000 C 
ATOM     19  F   UNL     1       6.924   5.131  13.844  0.00  0.00    +0.000 F 
ATOM     20  F   UNL     1       6.516   3.037  13.403  0.00  0.00    +0.000 F 
ATOM     21  F   UNL     1       4.849   4.431  13.663  0.00  0.00    +0.000 F 
ENDBRANCH  17  18
ENDBRANCH  14  17
ENDBRANCH   8  11
ENDBRANCH   1   9
BRANCH   4  22
ATOM     22  S   UNL     1      -0.702  11.696  22.155  0.00  0.00    +0.000 S 
ATOM     23  O   UNL     1      -1.053  11.013  23.389  0.00  0.00    +0.000 OA
ATOM     24  O   UNL     1       0.137  12.876  22.196  0.00  0.00    +0.000 OA
BRANCH  22  25
ATOM     25  N   UNL     1      -2.159  12.018  21.394  0.00  0.00    +0.000 N 
ATOM     26  C   UNL     1      -2.987  12.866  22.121  0.00  0.00    +0.000 A 
ATOM     27  N   UNL     1      -2.799  14.180  21.981  0.00  0.00    +0.000 NA
ATOM     28  C   UNL     1      -3.571  14.953  22.766  0.00  0.00    +0.000 A 
ATOM     29  C   UNL     1      -4.462  14.450  23.688  0.00  0.00    +0.000 A 
ATOM     30  C   UNL     1      -4.550  13.077  23.742  0.00  0.00    +0.000 A 
ATOM     31  N   UNL     1      -3.841  12.256  22.946  0.00  0.00    +0.000 NA
ATOM     32  H   UNL     1      -2.621  11.139  21.187  0.00  0.00    +0.000 HD
ENDBRANCH  22  25
ENDBRANCH   4  22
TORSDOF 6
ENDMDL
MODEL 8
REMARK VINA RESULT:      -7.9      7.654     10.342
REMARK  Name = 
REMARK  6 active torsions:
REMARK  status: ('A' for Active; 'I' for Inactive)
REMARK    1  A    between atoms: C_2  and  C_20
REMARK    2  A    between atoms: N_3  and  C_4
REMARK    3  A    between atoms: C_7  and  S_8
REMARK    4  A    between atoms: S_8  and  N_11
REMARK    5  A    between atoms: C_23  and  O_24
REMARK    6  A    between atoms: O_24  and  C_25
REMARK                            x       y       z     vdW  Elec       q    Type
REMARK                         _______ _______ _______ _____ _____    ______ ____
ROOT
ATOM      1  C   UNL     1       2.107   8.793  18.476  0.00  0.00    +0.000 A 
ATOM      2  C   UNL     1       1.463   8.500  19.683  0.00  0.00    +0.000 A 
ATOM      3  C   UNL     1       0.686   9.463  20.330  0.00  0.00    +0.000 A 
ATOM      4  C   UNL     1       0.565  10.741  19.785  0.00  0.00    +0.000 A 
ATOM      5  C   UNL     1       1.212  11.057  18.587  0.00  0.00    +0.000 A 
ATOM      6  C   UNL     1       1.991  10.089  17.943  0.00  0.00    +0.000 A 
ENDROOT
BRANCH   1   9
ATOM      7  O   UNL     1       3.032   6.128  19.319  0.00  0.00    +0.000 OA
ATOM      8  C   UNL     1       3.305   6.628  18.232  0.00  0.00    +0.000 C 
ATOM      9  N   UNL     1       2.872   7.851  17.753  0.00  0.00    +0.000 N 
ATOM     10  H   UNL     1       3.002   8.039  16.769  0.00  0.00    +0.000 HD
BRANCH   8  11
ATOM     11  C   UNL     1       4.129   5.818  17.297  0.00  0.00    +0.000 A 
ATOM     12  C   UNL     1       4.917   6.487  16.351  0.00  0.00    +0.000 A 
ATOM     13  C   UNL     1       5.655   5.772  15.401  0.00  0.00    +0.000 A 
ATOM     14  C   UNL     1       5.629   4.380  15.404  0.00  0.00    +0.000 A 
ATOM     15  C   UNL     1       4.812   3.715  16.329  0.00  0.00    +0.000 A 
ATOM     16  C   UNL     1       4.066   4.422  17.276  0.00  0.00    +0.000 A 
BRANCH  14  17
ATOM     17  O   UNL     1       6.292   3.557  14.548  0.00  0.00    +0.000 OA
BRANCH  17  18
ATOM     18  C   UNL     1       6.060   3.642  13.149  0.00  0.00    +0.000 C 
ATOM     19  F   UNL     1       6.212   2.474  12.492  0.00  0.00    +0.000 F 
ATOM     20  F   UNL     1       4.786   4.055  12.957  0.00  0.00    +0.000 F 
ATOM     21  F   UNL     1       6.886   4.563  12.609  0.00  0.00    +0.000 F 
ENDBRANCH  17  18
ENDBRANCH  14  17
ENDBRANCH   8  11
ENDBRANCH   1   9
BRANCH   4  22
ATOM     22  S   UNL     1      -0.551  11.904  20.532  0.00  0.00    +0.000 S 
ATOM     23  O   UNL     1       0.035  13.221  20.352  0.00  0.00    +0.000 OA
ATOM     24  O   UNL     1      -1.884  11.633  20.036  0.00  0.00    +0.000 OA
BRANCH  22  25
ATOM     25  N   UNL     1      -0.443  11.588  22.173  0.00  0.00    +0.000 N 
ATOM     26  C   UNL     1      -1.295  12.371  22.945  0.00  0.00    +0.000 A 
ATOM     27  N   UNL     1      -2.550  11.946  23.101  0.00  0.00    +0.000 NA
ATOM     28  C   UNL     1      -3.353  12.779  23.788  0.00  0.00    +0.000 A 
ATOM     29  C   UNL     1      -2.947  14.006  24.262  0.00  0.00    +0.000 A 
ATOM     30  C   UNL     1      -1.630  14.332  24.021  0.00  0.00    +0.000 A 
ATOM     31  N   UNL     1      -0.769  13.516  23.386  0.00  0.00    +0.000 NA
ATOM     32  H   UNL     1       0.523  11.696  22.464  0.00  0.00    +0.000 HD
ENDBRANCH  22  25
ENDBRANCH   4  22
TORSDOF 6
ENDMDL
MODEL 9
REMARK VINA RESULT:      -7.9      7.641     10.175
REMARK  Name = 
REMARK  6 active torsions:
REMARK  status: ('A' for Active; 'I' for Inactive)
REMARK    1  A    between atoms: C_2  and  C_20
REMARK    2  A    between atoms: N_3  and  C_4
REMARK    3  A    between atoms: C_7  and  S_8
REMARK    4  A    between atoms: S_8  and  N_11
REMARK    5  A    between atoms: C_23  and  O_24
REMARK    6  A    between atoms: O_24  and  C_25
REMARK                            x       y       z     vdW  Elec       q    Type
REMARK                         _______ _______ _______ _____ _____    ______ ____
ROOT
ATOM      1  C   UNL     1       2.431   7.912  18.563  0.00  0.00    +0.000 A 
ATOM      2  C   UNL     1       2.099   7.551  19.873  0.00  0.00    +0.000 A 
ATOM      3  C   UNL     1       1.344   8.403  20.680  0.00  0.00    +0.000 A 
ATOM      4  C   UNL     1       0.931   9.642  20.189  0.00  0.00    +0.000 A 
ATOM      5  C   UNL     1       1.264  10.026  18.886  0.00  0.00    +0.000 A 
ATOM      6  C   UNL     1       2.023   9.169  18.083  0.00  0.00    +0.000 A 
ENDROOT
BRANCH   1   9
ATOM      7  O   UNL     1       4.371   5.793  19.209  0.00  0.00    +0.000 OA
ATOM      8  C   UNL     1       4.085   6.124  18.063  0.00  0.00    +0.000 C 
ATOM      9  N   UNL     1       3.156   7.076  17.684  0.00  0.00    +0.000 N 
ATOM     10  H   UNL     1       2.876   7.095  16.714  0.00  0.00    +0.000 HD
BRANCH   8  11
ATOM     11  C   UNL     1       4.748   5.387  16.955  0.00  0.00    +0.000 A 
ATOM     12  C   UNL     1       5.287   6.124  15.891  0.00  0.00    +0.000 A 
ATOM     13  C   UNL     1       5.857   5.476  14.790  0.00  0.00    +0.000 A 
ATOM     14  C   UNL     1       5.916   4.086  14.754  0.00  0.00    +0.000 A 
ATOM     15  C   UNL     1       5.346   3.351  15.803  0.00  0.00    +0.000 A 
ATOM     16  C   UNL     1       4.766   3.991  16.903  0.00  0.00    +0.000 A 
BRANCH  14  17
ATOM     17  O   UNL     1       6.439   3.323  13.756  0.00  0.00    +0.000 OA
BRANCH  17  18
ATOM     18  C   UNL     1       5.870   3.358  12.455  0.00  0.00    +0.000 C 
ATOM     19  F   UNL     1       5.804   2.155  11.849  0.00  0.00    +0.000 F 
ATOM     20  F   UNL     1       4.607   3.831  12.561  0.00  0.00    +0.000 F 
ATOM     21  F   UNL     1       6.573   4.206  11.676  0.00  0.00    +0.000 F 
ENDBRANCH  17  18
ENDBRANCH  14  17
ENDBRANCH   8  11
ENDBRANCH   1   9
BRANCH   4  22
ATOM     22  S   UNL     1      -0.160  10.647  21.166  0.00  0.00    +0.000 S 
ATOM     23  O   UNL     1      -0.927   9.740  22.003  0.00  0.00    +0.000 OA
ATOM     24  O   UNL     1       0.623  11.703  21.774  0.00  0.00    +0.000 OA
BRANCH  22  25
ATOM     25  N   UNL     1      -1.254  11.267  20.060  0.00  0.00    +0.000 N 
ATOM     26  C   UNL     1      -1.227  12.655  19.974  0.00  0.00    +0.000 A 
ATOM     27  N   UNL     1      -0.325  13.203  19.157  0.00  0.00    +0.000 NA
ATOM     28  C   UNL     1      -0.287  14.548  19.172  0.00  0.00    +0.000 A 
ATOM     29  C   UNL     1      -1.075  15.322  19.994  0.00  0.00    +0.000 A 
ATOM     30  C   UNL     1      -1.954  14.632  20.798  0.00  0.00    +0.000 A 
ATOM     31  N   UNL     1      -2.072  13.291  20.788  0.00  0.00    +0.000 NA
ATOM     32  H   UNL     1      -2.182  10.930  20.294  0.00  0.00    +0.000 HD
ENDBRANCH  22  25
ENDBRANCH   4  22
TORSDOF 6
ENDMDL
