MODEL 1
REMARK VINA RESULT:      -8.2      0.000      0.000
REMARK  Name = 
REMARK  4 active torsions:
REMARK  status: ('A' for Active; 'I' for Inactive)
REMARK    1  A    between atoms: C_2  and  C_14
REMARK    2  A    between atoms: N_3  and  C_4
REMARK    3  A    between atoms: C_12  and  O_13
REMARK    4  A    between atoms: N_19  and  C_20
REMARK                            x       y       z     vdW  Elec       q    Type
REMARK                         _______ _______ _______ _____ _____    ______ ____
ROOT
ATOM      1  O   UNL     1       2.592   8.293  17.124  0.00  0.00    +0.000 OA
ATOM      2  C   UNL     1       2.477   7.822  18.244  0.00  0.00    +0.000 C 
ATOM      3  N   UNL     1       2.937   6.592  18.648  0.00  0.00    +0.000 N 
ATOM      4  H   UNL     1       2.863   6.365  19.637  0.00  0.00    +0.000 HD
ENDROOT
BRANCH   3   5
ATOM      5  C   UNL     1       3.746   5.744  17.777  0.00  0.00    +0.000 C 
ATOM      6  C   UNL     1       5.200   6.109  17.905  0.00  0.00    +0.000 A 
ATOM      7  C   UNL     1       5.890   7.110  17.240  0.00  0.00    +0.000 A 
ATOM      8  C   UNL     1       7.256   7.252  17.498  0.00  0.00    +0.000 A 
ATOM      9  C   UNL     1       7.903   6.418  18.425  0.00  0.00    +0.000 A 
ATOM     10  C   UNL     1       7.201   5.414  19.094  0.00  0.00    +0.000 A 
ATOM     11  C   UNL     1       5.857   5.255  18.805  0.00  0.00    +0.000 A 
ATOM     12  C   UNL     1       4.920   4.206  19.319  0.00  0.00    +0.000 C 
ATOM     13  C   UNL     1       3.829   4.253  18.230  0.00  0.00    +0.000 C 
BRANCH  13  14
ATOM     14  O   UNL     1       2.605   3.684  18.675  0.00  0.00    +0.000 OA
ATOM     15  H   UNL     1       2.776   2.752  18.879  0.00  0.00    +0.000 HD
ENDBRANCH  13  14
ENDBRANCH   3   5
BRANCH   2  16
ATOM     16  C   UNL     1       1.719   8.604  19.326  0.00  0.00    +0.000 A 
ATOM     17  C   UNL     1       1.551   7.915  20.615  0.00  0.00    +0.000 A 
ATOM     18  C   UNL     1       1.073   8.649  21.622  0.00  0.00    +0.000 A 
ATOM     19  C   UNL     1       0.712  10.071  21.434  0.00  0.00    +0.000 A 
ATOM     20  O   UNL     1       0.347  10.684  22.435  0.00  0.00    +0.000 OA
ATOM     21  N   UNL     1       0.775  10.550  20.115  0.00  0.00    +0.000 N 
ATOM     22  N   UNL     1       1.319   9.812  19.063  0.00  0.00    +0.000 NA
BRANCH  21  23
ATOM     23  C   UNL     1       0.458  11.902  19.763  0.00  0.00    +0.000 A 
ATOM     24  C   UNL     1       1.451  12.815  19.368  0.00  0.00    +0.000 A 
ATOM     25  C   UNL     1       1.125  14.114  18.974  0.00  0.00    +0.000 A 
ATOM     26  C   UNL     1      -0.200  14.524  18.995  0.00  0.00    +0.000 A 
ATOM     27  F   UNL     1      -0.513  15.766  18.609  0.00  0.00    +0.000 F 
ATOM     28  C   UNL     1      -1.203  13.655  19.404  0.00  0.00    +0.000 A 
ATOM     29  C   UNL     1      -0.876  12.347  19.778  0.00  0.00    +0.000 A 
ENDBRANCH  21  23
ENDBRANCH   2  16
TORSDOF 4
ENDMDL
MODEL 2
REMARK VINA RESULT:      -8.0      4.854      9.795
REMARK  Name = 
REMARK  4 active torsions:
REMARK  status: ('A' for Active; 'I' for Inactive)
REMARK    1  A    between atoms: C_2  and  C_14
REMARK    2  A    between atoms: N_3  and  C_4
REMARK    3  A    between atoms: C_12  and  O_13
REMARK    4  A    between atoms: N_19  and  C_20
REMARK                            x       y       z     vdW  Elec       q    Type
REMARK                         _______ _______ _______ _____ _____    ______ ____
ROOT
ATOM      1  O   UNL     1      -3.422  11.043  17.189  0.00  0.00    +0.000 OA
ATOM      2  C   UNL     1      -3.295  11.632  18.250  0.00  0.00    +0.000 C 
ATOM      3  N   UNL     1      -4.297  12.279  18.933  0.00  0.00    +0.000 N 
ATOM      4  H   UNL     1      -4.076  12.644  19.857  0.00  0.00    +0.000 HD
ENDROOT
BRANCH   3   5
ATOM      5  C   UNL     1      -5.690  12.221  18.501  0.00  0.00    +0.000 C 
ATOM      6  C   UNL     1      -6.419  11.138  19.250  0.00  0.00    +0.000 A 
ATOM      7  C   UNL     1      -6.478   9.787  18.953  0.00  0.00    +0.000 A 
ATOM      8  C   UNL     1      -7.245   8.962  19.779  0.00  0.00    +0.000 A 
ATOM      9  C   UNL     1      -7.916   9.488  20.896  0.00  0.00    +0.000 A 
ATOM     10  C   UNL     1      -7.849  10.850  21.192  0.00  0.00    +0.000 A 
ATOM     11  C   UNL     1      -7.119  11.667  20.347  0.00  0.00    +0.000 A 
ATOM     12  C   UNL     1      -6.971  13.156  20.401  0.00  0.00    +0.000 C 
ATOM     13  C   UNL     1      -6.552  13.445  18.946  0.00  0.00    +0.000 C 
BRANCH  13  14
ATOM     14  O   UNL     1      -5.920  14.712  18.813  0.00  0.00    +0.000 OA
ATOM     15  H   UNL     1      -4.987  14.596  19.048  0.00  0.00    +0.000 HD
ENDBRANCH  13  14
ENDBRANCH   3   5
BRANCH   2  16
ATOM     16  C   UNL     1      -1.910  11.736  18.905  0.00  0.00    +0.000 A 
ATOM     17  C   UNL     1      -1.678  12.933  19.728  0.00  0.00    +0.000 A 
ATOM     18  C   UNL     1      -0.561  12.944  20.457  0.00  0.00    +0.000 A 
ATOM     19  C   UNL     1       0.397  11.818  20.415  0.00  0.00    +0.000 A 
ATOM     20  O   UNL     1       1.361  11.885  21.174  0.00  0.00    +0.000 OA
ATOM     21  N   UNL     1       0.124  10.818  19.467  0.00  0.00    +0.000 N 
ATOM     22  N   UNL     1      -1.062  10.767  18.733  0.00  0.00    +0.000 NA
BRANCH  21  23
ATOM     23  C   UNL     1       0.952   9.661  19.298  0.00  0.00    +0.000 A 
ATOM     24  C   UNL     1       1.141   8.729  20.333  0.00  0.00    +0.000 A 
ATOM     25  C   UNL     1       1.905   7.576  20.141  0.00  0.00    +0.000 A 
ATOM     26  C   UNL     1       2.512   7.355  18.913  0.00  0.00    +0.000 A 
ATOM     27  F   UNL     1       3.238   6.246  18.726  0.00  0.00    +0.000 F 
ATOM     28  C   UNL     1       2.367   8.267  17.877  0.00  0.00    +0.000 A 
ATOM     29  C   UNL     1       1.583   9.410  18.065  0.00  0.00    +0.000 A 
ENDBRANCH  21  23
ENDBRANCH   2  16
TORSDOF 4
ENDMDL
MODEL 3
REMARK VINA RESULT:      -7.9      3.518      8.660
REMARK  Name = 
REMARK  4 active torsions:
REMARK  status: ('A' for Active; 'I' for Inactive)
REMARK    1  A    between atoms: C_2  and  C_14
REMARK    2  A    between atoms: N_3  and  C_4
REMARK    3  A    between atoms: C_12  and  O_13
REMARK    4  A    between atoms: N_19  and  C_20
REMARK                            x       y       z     vdW  Elec       q    Type
REMARK                         _______ _______ _______ _____ _____    ______ ____
ROOT
ATOM      1  O   UNL     1       1.926  10.922  18.081  0.00  0.00    +0.000 OA
ATOM      2  C   UNL     1       1.115  10.274  18.722  0.00  0.00    +0.000 C 
ATOM      3  N   UNL     1      -0.180  10.648  18.990  0.00  0.00    +0.000 N 
ATOM      4  H   UNL     1      -0.780   9.967  19.451  0.00  0.00    +0.000 HD
ENDROOT
BRANCH   3   5
ATOM      5  C   UNL     1      -0.774  11.850  18.411  0.00  0.00    +0.000 C 
ATOM      6  C   UNL     1      -2.133  11.535  17.846  0.00  0.00    +0.000 A 
ATOM      7  C   UNL     1      -2.439  11.021  16.597  0.00  0.00    +0.000 A 
ATOM      8  C   UNL     1      -3.785  10.832  16.274  0.00  0.00    +0.000 A 
ATOM      9  C   UNL     1      -4.796  11.131  17.202  0.00  0.00    +0.000 A 
ATOM     10  C   UNL     1      -4.480  11.645  18.461  0.00  0.00    +0.000 A 
ATOM     11  C   UNL     1      -3.147  11.865  18.759  0.00  0.00    +0.000 A 
ATOM     12  C   UNL     1      -2.567  12.484  19.994  0.00  0.00    +0.000 C 
ATOM     13  C   UNL     1      -1.191  12.929  19.459  0.00  0.00    +0.000 C 
BRANCH  13  14
ATOM     14  O   UNL     1      -0.257  13.151  20.507  0.00  0.00    +0.000 OA
ATOM     15  H   UNL     1       0.631  13.079  20.123  0.00  0.00    +0.000 HD
ENDBRANCH  13  14
ENDBRANCH   3   5
BRANCH   2  16
ATOM     16  C   UNL     1       1.532   8.937  19.351  0.00  0.00    +0.000 A 
ATOM     17  C   UNL     1       1.005   8.669  20.698  0.00  0.00    +0.000 A 
ATOM     18  C   UNL     1       1.194   7.438  21.175  0.00  0.00    +0.000 A 
ATOM     19  C   UNL     1       1.919   6.412  20.394  0.00  0.00    +0.000 A 
ATOM     20  O   UNL     1       1.982   5.288  20.885  0.00  0.00    +0.000 OA
ATOM     21  N   UNL     1       2.503   6.855  19.195  0.00  0.00    +0.000 N 
ATOM     22  N   UNL     1       2.272   8.123  18.659  0.00  0.00    +0.000 NA
BRANCH  21  23
ATOM     23  C   UNL     1       3.238   5.989  18.322  0.00  0.00    +0.000 A 
ATOM     24  C   UNL     1       2.727   4.744  17.915  0.00  0.00    +0.000 A 
ATOM     25  C   UNL     1       3.426   3.932  17.020  0.00  0.00    +0.000 A 
ATOM     26  C   UNL     1       4.661   4.346  16.540  0.00  0.00    +0.000 A 
ATOM     27  F   UNL     1       5.327   3.571  15.677  0.00  0.00    +0.000 F 
ATOM     28  C   UNL     1       5.205   5.559  16.942  0.00  0.00    +0.000 A 
ATOM     29  C   UNL     1       4.493   6.380  17.822  0.00  0.00    +0.000 A 
ENDBRANCH  21  23
ENDBRANCH   2  16
TORSDOF 4
ENDMDL
MODEL 4
REMARK VINA RESULT:      -7.8      2.722      4.174
REMARK  Name = 
REMARK  4 active torsions:
REMARK  status: ('A' for Active; 'I' for Inactive)
REMARK    1  A    between atoms: C_2  and  C_14
REMARK    2  A    between atoms: N_3  and  C_4
REMARK    3  A    between atoms: C_12  and  O_13
REMARK    4  A    between atoms: N_19  and  C_20
REMARK                            x       y       z     vdW  Elec       q    Type
REMARK                         _______ _______ _______ _____ _____    ______ ____
ROOT
ATOM      1  O   UNL     1       1.880   7.796  21.466  0.00  0.00    +0.000 OA
ATOM      2  C   UNL     1       1.809   8.039  20.273  0.00  0.00    +0.000 C 
ATOM      3  N   UNL     1       2.444   7.343  19.273  0.00  0.00    +0.000 N 
ATOM      4  H   UNL     1       2.218   7.591  18.312  0.00  0.00    +0.000 HD
ENDROOT
BRANCH   3   5
ATOM      5  C   UNL     1       3.199   6.122  19.538  0.00  0.00    +0.000 C 
ATOM      6  C   UNL     1       2.278   4.932  19.529  0.00  0.00    +0.000 A 
ATOM      7  C   UNL     1       1.504   4.444  20.569  0.00  0.00    +0.000 A 
ATOM      8  C   UNL     1       0.739   3.298  20.340  0.00  0.00    +0.000 A 
ATOM      9  C   UNL     1       0.735   2.676  19.080  0.00  0.00    +0.000 A 
ATOM     10  C   UNL     1       1.514   3.176  18.035  0.00  0.00    +0.000 A 
ATOM     11  C   UNL     1       2.299   4.288  18.282  0.00  0.00    +0.000 A 
ATOM     12  C   UNL     1       3.276   4.950  17.360  0.00  0.00    +0.000 C 
ATOM     13  C   UNL     1       4.158   5.696  18.383  0.00  0.00    +0.000 C 
BRANCH  13  14
ATOM     14  O   UNL     1       4.894   6.753  17.783  0.00  0.00    +0.000 OA
ATOM     15  H   UNL     1       4.850   6.629  16.822  0.00  0.00    +0.000 HD
ENDBRANCH  13  14
ENDBRANCH   3   5
BRANCH   2  16
ATOM     16  C   UNL     1       0.994   9.246  19.788  0.00  0.00    +0.000 A 
ATOM     17  C   UNL     1       0.605   9.229  18.370  0.00  0.00    +0.000 A 
ATOM     18  C   UNL     1      -0.264  10.164  17.982  0.00  0.00    +0.000 A 
ATOM     19  C   UNL     1      -0.783  11.175  18.930  0.00  0.00    +0.000 A 
ATOM     20  O   UNL     1      -1.632  11.950  18.499  0.00  0.00    +0.000 OA
ATOM     21  N   UNL     1      -0.203  11.167  20.210  0.00  0.00    +0.000 N 
ATOM     22  N   UNL     1       0.668  10.167  20.645  0.00  0.00    +0.000 NA
BRANCH  21  23
ATOM     23  C   UNL     1      -0.592  12.078  21.244  0.00  0.00    +0.000 A 
ATOM     24  C   UNL     1      -1.633  11.779  22.140  0.00  0.00    +0.000 A 
ATOM     25  C   UNL     1      -1.968  12.649  23.179  0.00  0.00    +0.000 A 
ATOM     26  C   UNL     1      -1.279  13.846  23.319  0.00  0.00    +0.000 A 
ATOM     27  F   UNL     1      -1.594  14.676  24.319  0.00  0.00    +0.000 F 
ATOM     28  C   UNL     1      -0.262  14.183  22.436  0.00  0.00    +0.000 A 
ATOM     29  C   UNL     1       0.086  13.300  21.409  0.00  0.00    +0.000 A 
ENDBRANCH  21  23
ENDBRANCH   2  16
TORSDOF 4
ENDMDL
MODEL 5
REMARK VINA RESULT:      -7.6      3.127      4.597
REMARK  Name = 
REMARK  4 active torsions:
REMARK  status: ('A' for Active; 'I' for Inactive)
REMARK    1  A    between atoms: C_2  and  C_14
REMARK    2  A    between atoms: N_3  and  C_4
REMARK    3  A    between atoms: C_12  and  O_13
REMARK    4  A    between atoms: N_19  and  C_20
REMARK                            x       y       z     vdW  Elec       q    Type
REMARK                         _______ _______ _______ _____ _____    ______ ____
ROOT
ATOM      1  O   UNL     1       1.859   8.313  21.969  0.00  0.00    +0.000 OA
ATOM      2  C   UNL     1       1.364   8.525  20.875  0.00  0.00    +0.000 C 
ATOM      3  N   UNL     1       1.749   7.940  19.693  0.00  0.00    +0.000 N 
ATOM      4  H   UNL     1       1.185   8.131  18.868  0.00  0.00    +0.000 HD
ENDROOT
BRANCH   3   5
ATOM      5  C   UNL     1       2.748   6.876  19.646  0.00  0.00    +0.000 C 
ATOM      6  C   UNL     1       2.087   5.537  19.833  0.00  0.00    +0.000 A 
ATOM      7  C   UNL     1       1.759   4.906  21.022  0.00  0.00    +0.000 A 
ATOM      8  C   UNL     1       1.169   3.641  20.956  0.00  0.00    +0.000 A 
ATOM      9  C   UNL     1       0.893   3.040  19.717  0.00  0.00    +0.000 A 
ATOM     10  C   UNL     1       1.222   3.683  18.523  0.00  0.00    +0.000 A 
ATOM     11  C   UNL     1       1.841   4.919  18.597  0.00  0.00    +0.000 A 
ATOM     12  C   UNL     1       2.365   5.757  17.472  0.00  0.00    +0.000 C 
ATOM     13  C   UNL     1       3.372   6.643  18.234  0.00  0.00    +0.000 C 
BRANCH  13  14
ATOM     14  O   UNL     1       3.699   7.823  17.513  0.00  0.00    +0.000 OA
ATOM     15  H   UNL     1       3.170   8.546  17.884  0.00  0.00    +0.000 HD
ENDBRANCH  13  14
ENDBRANCH   3   5
BRANCH   2  16
ATOM     16  C   UNL     1       0.241   9.562  20.734  0.00  0.00    +0.000 A 
ATOM     17  C   UNL     1       0.126  10.536  21.831  0.00  0.00    +0.000 A 
ATOM     18  C   UNL     1      -0.710  11.557  21.633  0.00  0.00    +0.000 A 
ATOM     19  C   UNL     1      -1.492  11.680  20.383  0.00  0.00    +0.000 A 
ATOM     20  O   UNL     1      -2.181  12.690  20.262  0.00  0.00    +0.000 OA
ATOM     21  N   UNL     1      -1.401  10.595  19.495  0.00  0.00    +0.000 N 
ATOM     22  N   UNL     1      -0.496   9.547  19.664  0.00  0.00    +0.000 NA
BRANCH  21  23
ATOM     23  C   UNL     1      -2.095  10.557  18.242  0.00  0.00    +0.000 A 
ATOM     24  C   UNL     1      -1.595   9.841  17.141  0.00  0.00    +0.000 A 
ATOM     25  C   UNL     1      -2.306   9.764  15.942  0.00  0.00    +0.000 A 
ATOM     26  C   UNL     1      -3.520  10.426  15.823  0.00  0.00    +0.000 A 
ATOM     27  F   UNL     1      -4.205  10.346  14.677  0.00  0.00    +0.000 F 
ATOM     28  C   UNL     1      -4.031  11.163  16.883  0.00  0.00    +0.000 A 
ATOM     29  C   UNL     1      -3.327  11.221  18.090  0.00  0.00    +0.000 A 
ENDBRANCH  21  23
ENDBRANCH   2  16
TORSDOF 4
ENDMDL
MODEL 6
REMARK VINA RESULT:      -7.5      3.348      8.635
REMARK  Name = 
REMARK  4 active torsions:
REMARK  status: ('A' for Active; 'I' for Inactive)
REMARK    1  A    between atoms: C_2  and  C_14
REMARK    2  A    between atoms: N_3  and  C_4
REMARK    3  A    between atoms: C_12  and  O_13
REMARK    4  A    between atoms: N_19  and  C_20
REMARK                            x       y       z     vdW  Elec       q    Type
REMARK                         _______ _______ _______ _____ _____    ______ ____
ROOT
ATOM      1  O   UNL     1       1.856  10.462  17.379  0.00  0.00    +0.000 OA
ATOM      2  C   UNL     1       1.374  10.085  18.435  0.00  0.00    +0.000 C 
ATOM      3  N   UNL     1       0.467  10.781  19.196  0.00  0.00    +0.000 N 
ATOM      4  H   UNL     1       0.070  10.307  20.004  0.00  0.00    +0.000 HD
ENDROOT
BRANCH   3   5
ATOM      5  C   UNL     1      -0.125  12.036  18.740  0.00  0.00    +0.000 C 
ATOM      6  C   UNL     1      -1.579  11.832  18.411  0.00  0.00    +0.000 A 
ATOM      7  C   UNL     1      -2.129  11.372  17.226  0.00  0.00    +0.000 A 
ATOM      8  C   UNL     1      -3.520  11.287  17.133  0.00  0.00    +0.000 A 
ATOM      9  C   UNL     1      -4.336  11.635  18.223  0.00  0.00    +0.000 A 
ATOM     10  C   UNL     1      -3.775  12.094  19.416  0.00  0.00    +0.000 A 
ATOM     11  C   UNL     1      -2.398  12.212  19.486  0.00  0.00    +0.000 A 
ATOM     12  C   UNL     1      -1.574  12.758  20.612  0.00  0.00    +0.000 C 
ATOM     13  C   UNL     1      -0.279  13.116  19.856  0.00  0.00    +0.000 C 
BRANCH  13  14
ATOM     14  O   UNL     1       0.833  13.246  20.733  0.00  0.00    +0.000 OA
ATOM     15  H   UNL     1       0.503  13.618  21.566  0.00  0.00    +0.000 HD
ENDBRANCH  13  14
ENDBRANCH   3   5
BRANCH   2  16
ATOM     16  C   UNL     1       1.818   8.746  19.041  0.00  0.00    +0.000 A 
ATOM     17  C   UNL     1       1.291   8.443  20.381  0.00  0.00    +0.000 A 
ATOM     18  C   UNL     1       1.505   7.208  20.837  0.00  0.00    +0.000 A 
ATOM     19  C   UNL     1       2.254   6.212  20.040  0.00  0.00    +0.000 A 
ATOM     20  O   UNL     1       2.339   5.081  20.511  0.00  0.00    +0.000 OA
ATOM     21  N   UNL     1       2.834   6.689  18.852  0.00  0.00    +0.000 N 
ATOM     22  N   UNL     1       2.578   7.961  18.339  0.00  0.00    +0.000 NA
BRANCH  21  23
ATOM     23  C   UNL     1       3.591   5.855  17.968  0.00  0.00    +0.000 A 
ATOM     24  C   UNL     1       4.713   6.340  17.274  0.00  0.00    +0.000 A 
ATOM     25  C   UNL     1       5.477   5.504  16.457  0.00  0.00    +0.000 A 
ATOM     26  C   UNL     1       5.111   4.174  16.305  0.00  0.00    +0.000 A 
ATOM     27  F   UNL     1       5.847   3.371  15.528  0.00  0.00    +0.000 F 
ATOM     28  C   UNL     1       3.993   3.670  16.956  0.00  0.00    +0.000 A 
ATOM     29  C   UNL     1       3.242   4.503  17.790  0.00  0.00    +0.000 A 
ENDBRANCH  21  23
ENDBRANCH   2  16
TORSDOF 4
ENDMDL
MODEL 7
REMARK VINA RESULT:      -7.5      3.311      8.459
REMARK  Name = 
REMARK  4 active torsions:
REMARK  status: ('A' for Active; 'I' for Inactive)
REMARK    1  A    between atoms: C_2  and  C_14
REMARK    2  A    between atoms: N_3  and  C_4
REMARK    3  A    between atoms: C_12  and  O_13
REMARK    4  A    between atoms: N_19  and  C_20
REMARK                            x       y       z     vdW  Elec       q    Type
REMARK                         _______ _______ _______ _____ _____    ______ ____
ROOT
ATOM      1  O   UNL     1       1.384   9.422  17.159  0.00  0.00    +0.000 OA
ATOM      2  C   UNL     1       1.529   9.272  18.361  0.00  0.00    +0.000 C 
ATOM      3  N   UNL     1       1.171  10.175  19.332  0.00  0.00    +0.000 N 
ATOM      4  H   UNL     1       1.256   9.881  20.302  0.00  0.00    +0.000 HD
ENDROOT
BRANCH   3   5
ATOM      5  C   UNL     1       0.443  11.402  19.017  0.00  0.00    +0.000 C 
ATOM      6  C   UNL     1      -0.127  12.001  20.274  0.00  0.00    +0.000 A 
ATOM      7  C   UNL     1      -1.320  11.689  20.904  0.00  0.00    +0.000 A 
ATOM      8  C   UNL     1      -1.664  12.399  22.056  0.00  0.00    +0.000 A 
ATOM      9  C   UNL     1      -0.808  13.385  22.575  0.00  0.00    +0.000 A 
ATOM     10  C   UNL     1       0.395  13.693  21.938  0.00  0.00    +0.000 A 
ATOM     11  C   UNL     1       0.710  13.011  20.776  0.00  0.00    +0.000 A 
ATOM     12  C   UNL     1       1.887  13.221  19.872  0.00  0.00    +0.000 C 
ATOM     13  C   UNL     1       1.350  12.591  18.571  0.00  0.00    +0.000 C 
BRANCH  13  14
ATOM     14  O   UNL     1       2.396  12.251  17.671  0.00  0.00    +0.000 OA
ATOM     15  H   UNL     1       3.230  12.297  18.165  0.00  0.00    +0.000 HD
ENDBRANCH  13  14
ENDBRANCH   3   5
BRANCH   2  16
ATOM     16  C   UNL     1       2.211   8.003  18.894  0.00  0.00    +0.000 A 
ATOM     17  C   UNL     1       1.661   7.458  20.145  0.00  0.00    +0.000 A 
ATOM     18  C   UNL     1       2.108   6.256  20.514  0.00  0.00    +0.000 A 
ATOM     19  C   UNL     1       3.119   5.531  19.715  0.00  0.00    +0.000 A 
ATOM     20  O   UNL     1       3.417   4.402  20.096  0.00  0.00    +0.000 OA
ATOM     21  N   UNL     1       3.669   6.241  18.634  0.00  0.00    +0.000 N 
ATOM     22  N   UNL     1       3.178   7.475  18.206  0.00  0.00    +0.000 NA
BRANCH  21  23
ATOM     23  C   UNL     1       4.659   5.683  17.761  0.00  0.00    +0.000 A 
ATOM     24  C   UNL     1       4.343   4.673  16.836  0.00  0.00    +0.000 A 
ATOM     25  C   UNL     1       5.302   4.176  15.951  0.00  0.00    +0.000 A 
ATOM     26  C   UNL     1       6.599   4.667  16.000  0.00  0.00    +0.000 A 
ATOM     27  F   UNL     1       7.516   4.196  15.147  0.00  0.00    +0.000 F 
ATOM     28  C   UNL     1       6.950   5.647  16.919  0.00  0.00    +0.000 A 
ATOM     29  C   UNL     1       5.983   6.159  17.789  0.00  0.00    +0.000 A 
ENDBRANCH  21  23
ENDBRANCH   2  16
TORSDOF 4
ENDMDL
MODEL 8
REMARK VINA RESULT:      -7.4      2.587      3.979
REMARK  Name = 
REMARK  4 active torsions:
REMARK  status: ('A' for Active; 'I' for Inactive)
REMARK    1  A    between atoms: C_2  and  C_14
REMARK    2  A    between atoms: N_3  and  C_4
REMARK    3  A    between atoms: C_12  and  O_13
REMARK    4  A    between atoms: N_19  and  C_20
REMARK                            x       y       z     vdW  Elec       q    Type
REMARK                         _______ _______ _______ _____ _____    ______ ____
ROOT
ATOM      1  O   UNL     1       1.786   6.680  21.263  0.00  0.00    +0.000 OA
ATOM      2  C   UNL     1       2.208   7.153  20.220  0.00  0.00    +0.000 C 
ATOM      3  N   UNL     1       3.192   6.608  19.432  0.00  0.00    +0.000 N 
ATOM      4  H   UNL     1       3.378   7.055  18.536  0.00  0.00    +0.000 HD
ENDROOT
BRANCH   3   5
ATOM      5  C   UNL     1       3.771   5.297  19.712  0.00  0.00    +0.000 C 
ATOM      6  C   UNL     1       2.754   4.218  19.456  0.00  0.00    +0.000 A 
ATOM      7  C   UNL     1       1.773   3.749  20.314  0.00  0.00    +0.000 A 
ATOM      8  C   UNL     1       0.950   2.711  19.870  0.00  0.00    +0.000 A 
ATOM      9  C   UNL     1       1.098   2.179  18.578  0.00  0.00    +0.000 A 
ATOM     10  C   UNL     1       2.086   2.659  17.717  0.00  0.00    +0.000 A 
ATOM     11  C   UNL     1       2.922   3.660  18.178  0.00  0.00    +0.000 A 
ATOM     12  C   UNL     1       4.100   4.272  17.484  0.00  0.00    +0.000 C 
ATOM     13  C   UNL     1       4.865   4.847  18.693  0.00  0.00    +0.000 C 
BRANCH  13  14
ATOM     14  O   UNL     1       5.789   5.856  18.310  0.00  0.00    +0.000 OA
ATOM     15  H   UNL     1       6.681   5.498  18.442  0.00  0.00    +0.000 HD
ENDBRANCH  13  14
ENDBRANCH   3   5
BRANCH   2  16
ATOM     16  C   UNL     1       1.663   8.498  19.718  0.00  0.00    +0.000 A 
ATOM     17  C   UNL     1       1.645   8.677  18.258  0.00  0.00    +0.000 A 
ATOM     18  C   UNL     1       0.997   9.750  17.800  0.00  0.00    +0.000 A 
ATOM     19  C   UNL     1       0.358  10.715  18.722  0.00  0.00    +0.000 A 
ATOM     20  O   UNL     1      -0.275  11.633  18.206  0.00  0.00    +0.000 OA
ATOM     21  N   UNL     1       0.592  10.501  20.090  0.00  0.00    +0.000 N 
ATOM     22  N   UNL     1       1.223   9.359  20.586  0.00  0.00    +0.000 NA
BRANCH  21  23
ATOM     23  C   UNL     1       0.046  11.343  21.113  0.00  0.00    +0.000 A 
ATOM     24  C   UNL     1       0.319  12.721  21.159  0.00  0.00    +0.000 A 
ATOM     25  C   UNL     1      -0.263  13.543  22.127  0.00  0.00    +0.000 A 
ATOM     26  C   UNL     1      -1.109  12.989  23.077  0.00  0.00    +0.000 A 
ATOM     27  F   UNL     1      -1.672  13.777  23.999  0.00  0.00    +0.000 F 
ATOM     28  C   UNL     1      -1.379  11.627  23.075  0.00  0.00    +0.000 A 
ATOM     29  C   UNL     1      -0.812  10.810  22.092  0.00  0.00    +0.000 A 
ENDBRANCH  21  23
ENDBRANCH   2  16
TORSDOF 4
ENDMDL
MODEL 9
REMARK VINA RESULT:      -7.4      3.334      8.748
REMARK  Name = 
REMARK  4 active torsions:
REMARK  status: ('A' for Active; 'I' for Inactive)
REMARK    1  A    between atoms: C_2  and  C_14
REMARK    2  A    between atoms: N_3  and  C_4
REMARK    3  A    between atoms: C_12  and  O_13
REMARK    4  A    between atoms: N_19  and  C_20
REMARK                            x       y       z     vdW  Elec       q    Type
REMARK                         _______ _______ _______ _____ _____    ______ ____
ROOT
ATOM      1  O   UNL     1       2.035  10.495  17.561  0.00  0.00    +0.000 OA
ATOM      2  C   UNL     1       1.342  10.043  18.458  0.00  0.00    +0.000 C 
ATOM      3  N   UNL     1       0.212  10.632  18.971  0.00  0.00    +0.000 N 
ATOM      4  H   UNL     1      -0.329  10.098  19.649  0.00  0.00    +0.000 HD
ENDROOT
BRANCH   3   5
ATOM      5  C   UNL     1      -0.361  11.844  18.393  0.00  0.00    +0.000 C 
ATOM      6  C   UNL     1      -1.827  11.933  18.725  0.00  0.00    +0.000 A 
ATOM      7  C   UNL     1      -2.889  11.349  18.055  0.00  0.00    +0.000 A 
ATOM      8  C   UNL     1      -4.181  11.591  18.529  0.00  0.00    +0.000 A 
ATOM      9  C   UNL     1      -4.391  12.384  19.670  0.00  0.00    +0.000 A 
ATOM     10  C   UNL     1      -3.315  12.966  20.342  0.00  0.00    +0.000 A 
ATOM     11  C   UNL     1      -2.042  12.753  19.844  0.00  0.00    +0.000 A 
ATOM     12  C   UNL     1      -0.751  13.335  20.330  0.00  0.00    +0.000 C 
ATOM     13  C   UNL     1       0.120  13.167  19.068  0.00  0.00    +0.000 C 
BRANCH  13  14
ATOM     14  O   UNL     1       1.508  13.227  19.365  0.00  0.00    +0.000 OA
ATOM     15  H   UNL     1       1.595  13.479  20.297  0.00  0.00    +0.000 HD
ENDBRANCH  13  14
ENDBRANCH   3   5
BRANCH   2  16
ATOM     16  C   UNL     1       1.742   8.729  19.143  0.00  0.00    +0.000 A 
ATOM     17  C   UNL     1       1.167   8.502  20.478  0.00  0.00    +0.000 A 
ATOM     18  C   UNL     1       1.344   7.288  21.002  0.00  0.00    +0.000 A 
ATOM     19  C   UNL     1       2.101   6.241  20.280  0.00  0.00    +0.000 A 
ATOM     20  O   UNL     1       2.150   5.134  20.809  0.00  0.00    +0.000 OA
ATOM     21  N   UNL     1       2.726   6.649  19.090  0.00  0.00    +0.000 N 
ATOM     22  N   UNL     1       2.510   7.898  18.506  0.00  0.00    +0.000 NA
BRANCH  21  23
ATOM     23  C   UNL     1       3.495   5.759  18.272  0.00  0.00    +0.000 A 
ATOM     24  C   UNL     1       2.964   4.548  17.795  0.00  0.00    +0.000 A 
ATOM     25  C   UNL     1       3.703   3.714  16.954  0.00  0.00    +0.000 A 
ATOM     26  C   UNL     1       4.996   4.072  16.599  0.00  0.00    +0.000 A 
ATOM     27  F   UNL     1       5.701   3.277  15.786  0.00  0.00    +0.000 F 
ATOM     28  C   UNL     1       5.560   5.249  17.073  0.00  0.00    +0.000 A 
ATOM     29  C   UNL     1       4.810   6.093  17.898  0.00  0.00    +0.000 A 
ENDBRANCH  21  23
ENDBRANCH   2  16
TORSDOF 4
ENDMDL
