MODEL 1
REMARK VINA RESULT:      -8.8      0.000      0.000
REMARK  Name = 
REMARK  5 active torsions:
REMARK  status: ('A' for Active; 'I' for Inactive)
REMARK    1  A    between atoms: C_2  and  C_27
REMARK    2  A    between atoms: N_3  and  C_4
REMARK    3  A    between atoms: C_8  and  C_9
REMARK    4  A    between atoms: C_11  and  C_12
REMARK    5  A    between atoms: C_16  and  N_17
REMARK                            x       y       z     vdW  Elec       q    Type
REMARK                         _______ _______ _______ _____ _____    ______ ____
ROOT
ATOM      1  C   UNL     1       1.190   9.078  19.898  0.00  0.00    +0.000 A 
ATOM      2  N   UNL     1       1.833   7.930  19.975  0.00  0.00    +0.000 NA
ATOM      3  C   UNL     1       2.436   7.627  18.766  0.00  0.00    +0.000 A 
ATOM      4  C   UNL     1       2.233   8.561  17.771  0.00  0.00    +0.000 A 
ATOM      5  S   UNL     1       1.289   9.858  18.365  0.00  0.00    +0.000 S 
ENDROOT
BRANCH   1  10
ATOM      6  C   UNL     1      -1.218  11.211  21.926  0.00  0.00    +0.000 A 
ATOM      7  C   UNL     1      -1.017  10.658  23.191  0.00  0.00    +0.000 A 
ATOM      8  C   UNL     1      -0.091   9.632  23.384  0.00  0.00    +0.000 A 
ATOM      9  C   UNL     1       0.636   9.141  22.303  0.00  0.00    +0.000 A 
ATOM     10  C   UNL     1       0.458   9.678  21.021  0.00  0.00    +0.000 A 
ATOM     11  C   UNL     1      -0.466  10.723  20.846  0.00  0.00    +0.000 A 
BRANCH   6  14
ATOM     12  O   UNL     1      -3.632  12.001  23.451  0.00  0.00    +0.000 OA
ATOM     13  C   UNL     1      -3.269  12.541  22.419  0.00  0.00    +0.000 C 
ATOM     14  N   UNL     1      -2.158  12.231  21.660  0.00  0.00    +0.000 N 
ATOM     15  H   UNL     1      -2.022  12.760  20.810  0.00  0.00    +0.000 HD
BRANCH  13  16
ATOM     16  C   UNL     1      -4.104  13.642  21.841  0.00  0.00    +0.000 C 
ATOM     17  C   UNL     1      -5.572  13.404  21.562  0.00  0.00    +0.000 C 
ATOM     18  C   UNL     1      -4.606  13.516  20.420  0.00  0.00    +0.000 C 
ENDBRANCH  13  16
ENDBRANCH   6  14
ENDBRANCH   1  10
BRANCH   3  19
ATOM     19  C   UNL     1       3.236   6.419  18.611  0.00  0.00    +0.000 A 
ATOM     20  C   UNL     1       3.148   5.371  19.530  0.00  0.00    +0.000 A 
ATOM     21  C   UNL     1       3.859   4.197  19.318  0.00  0.00    +0.000 A 
ATOM     22  C   UNL     1       4.648   4.054  18.176  0.00  0.00    +0.000 A 
ATOM     23  C   UNL     1       4.760   5.082  17.232  0.00  0.00    +0.000 A 
ATOM     24  C   UNL     1       4.061   6.275  17.482  0.00  0.00    +0.000 A 
BRANCH  23  25
ATOM     25  N   UNL     1       5.520   4.915  16.042  0.00  0.00    +0.000 N 
ATOM     26  C   UNL     1       5.032   4.174  14.901  0.00  0.00    +0.000 C 
ATOM     27  C   UNL     1       6.277   3.875  14.091  0.00  0.00    +0.000 C 
ATOM     28  C   UNL     1       7.191   5.045  14.391  0.00  0.00    +0.000 C 
ATOM     29  C   UNL     1       6.783   5.464  15.781  0.00  0.00    +0.000 C 
ATOM     30  O   UNL     1       7.472   6.200  16.472  0.00  0.00    +0.000 OA
ENDBRANCH  23  25
ENDBRANCH   3  19
TORSDOF 5
ENDMDL
MODEL 2
REMARK VINA RESULT:      -8.7      1.883     10.425
REMARK  Name = 
REMARK  5 active torsions:
REMARK  status: ('A' for Active; 'I' for Inactive)
REMARK    1  A    between atoms: C_2  and  C_27
REMARK    2  A    between atoms: N_3  and  C_4
REMARK    3  A    between atoms: C_8  and  C_9
REMARK    4  A    between atoms: C_11  and  C_12
REMARK    5  A    between atoms: C_16  and  N_17
REMARK                            x       y       z     vdW  Elec       q    Type
REMARK                         _______ _______ _______ _____ _____    ______ ____
ROOT
ATOM      1  C   UNL     1       2.142   7.486  19.119  0.00  0.00    +0.000 A 
ATOM      2  N   UNL     1       1.497   7.921  20.183  0.00  0.00    +0.000 NA
ATOM      3  C   UNL     1       1.072   9.224  19.997  0.00  0.00    +0.000 A 
ATOM      4  C   UNL     1       1.410   9.772  18.776  0.00  0.00    +0.000 A 
ATOM      5  S   UNL     1       2.257   8.624  17.831  0.00  0.00    +0.000 S 
ENDROOT
BRANCH   1  10
ATOM      6  C   UNL     1       3.998   4.434  17.814  0.00  0.00    +0.000 A 
ATOM      7  C   UNL     1       3.895   3.600  18.927  0.00  0.00    +0.000 A 
ATOM      8  C   UNL     1       3.207   4.012  20.069  0.00  0.00    +0.000 A 
ATOM      9  C   UNL     1       2.622   5.275  20.108  0.00  0.00    +0.000 A 
ATOM     10  C   UNL     1       2.707   6.135  19.004  0.00  0.00    +0.000 A 
ATOM     11  C   UNL     1       3.389   5.698  17.855  0.00  0.00    +0.000 A 
BRANCH   6  14
ATOM     12  O   UNL     1       6.904   4.564  17.248  0.00  0.00    +0.000 OA
ATOM     13  C   UNL     1       6.068   4.179  16.446  0.00  0.00    +0.000 C 
ATOM     14  N   UNL     1       4.704   4.088  16.640  0.00  0.00    +0.000 N 
ATOM     15  H   UNL     1       4.150   3.779  15.854  0.00  0.00    +0.000 HD
BRANCH  13  16
ATOM     16  C   UNL     1       6.507   3.789  15.069  0.00  0.00    +0.000 C 
ATOM     17  C   UNL     1       6.927   4.857  14.082  0.00  0.00    +0.000 C 
ATOM     18  C   UNL     1       5.626   4.134  13.889  0.00  0.00    +0.000 C 
ENDBRANCH  13  16
ENDBRANCH   6  14
ENDBRANCH   1  10
BRANCH   3  19
ATOM     19  C   UNL     1       0.305   9.915  21.024  0.00  0.00    +0.000 A 
ATOM     20  C   UNL     1      -0.128   9.249  22.173  0.00  0.00    +0.000 A 
ATOM     21  C   UNL     1      -0.787   9.948  23.176  0.00  0.00    +0.000 A 
ATOM     22  C   UNL     1      -1.002  11.321  23.048  0.00  0.00    +0.000 A 
ATOM     23  C   UNL     1      -0.583  12.022  21.911  0.00  0.00    +0.000 A 
ATOM     24  C   UNL     1       0.051  11.292  20.892  0.00  0.00    +0.000 A 
BRANCH  23  25
ATOM     25  N   UNL     1      -0.753  13.430  21.805  0.00  0.00    +0.000 N 
ATOM     26  C   UNL     1      -2.049  14.050  21.648  0.00  0.00    +0.000 C 
ATOM     27  C   UNL     1      -1.738  15.441  21.138  0.00  0.00    +0.000 C 
ATOM     28  C   UNL     1      -0.385  15.753  21.745  0.00  0.00    +0.000 C 
ATOM     29  C   UNL     1       0.258  14.397  21.886  0.00  0.00    +0.000 C 
ATOM     30  O   UNL     1       1.456  14.258  22.087  0.00  0.00    +0.000 OA
ENDBRANCH  23  25
ENDBRANCH   3  19
TORSDOF 5
ENDMDL
MODEL 3
REMARK VINA RESULT:      -8.5      1.504     10.519
REMARK  Name = 
REMARK  5 active torsions:
REMARK  status: ('A' for Active; 'I' for Inactive)
REMARK    1  A    between atoms: C_2  and  C_27
REMARK    2  A    between atoms: N_3  and  C_4
REMARK    3  A    between atoms: C_8  and  C_9
REMARK    4  A    between atoms: C_11  and  C_12
REMARK    5  A    between atoms: C_16  and  N_17
REMARK                            x       y       z     vdW  Elec       q    Type
REMARK                         _______ _______ _______ _____ _____    ______ ____
ROOT
ATOM      1  C   UNL     1       2.240   7.315  19.121  0.00  0.00    +0.000 A 
ATOM      2  N   UNL     1       1.567   7.714  20.182  0.00  0.00    +0.000 NA
ATOM      3  C   UNL     1       1.138   9.020  20.023  0.00  0.00    +0.000 A 
ATOM      4  C   UNL     1       1.503   9.606  18.828  0.00  0.00    +0.000 A 
ATOM      5  S   UNL     1       2.380   8.491  17.870  0.00  0.00    +0.000 S 
ENDROOT
BRANCH   1  10
ATOM      6  C   UNL     1       4.150   4.314  17.774  0.00  0.00    +0.000 A 
ATOM      7  C   UNL     1       4.021   3.446  18.857  0.00  0.00    +0.000 A 
ATOM      8  C   UNL     1       3.299   3.818  19.992  0.00  0.00    +0.000 A 
ATOM      9  C   UNL     1       2.706   5.077  20.054  0.00  0.00    +0.000 A 
ATOM     10  C   UNL     1       2.816   5.971  18.980  0.00  0.00    +0.000 A 
ATOM     11  C   UNL     1       3.532   5.573  17.837  0.00  0.00    +0.000 A 
BRANCH   6  14
ATOM     12  O   UNL     1       6.991   4.866  17.141  0.00  0.00    +0.000 OA
ATOM     13  C   UNL     1       6.220   4.301  16.382  0.00  0.00    +0.000 C 
ATOM     14  N   UNL     1       4.889   4.008  16.610  0.00  0.00    +0.000 N 
ATOM     15  H   UNL     1       4.384   3.564  15.857  0.00  0.00    +0.000 HD
BRANCH  13  16
ATOM     16  C   UNL     1       6.701   3.896  15.023  0.00  0.00    +0.000 C 
ATOM     17  C   UNL     1       6.889   4.945  13.949  0.00  0.00    +0.000 C 
ATOM     18  C   UNL     1       5.749   3.975  13.851  0.00  0.00    +0.000 C 
ENDBRANCH  13  16
ENDBRANCH   6  14
ENDBRANCH   1  10
BRANCH   3  19
ATOM     19  C   UNL     1       0.342   9.676  21.052  0.00  0.00    +0.000 A 
ATOM     20  C   UNL     1       0.095   9.056  22.279  0.00  0.00    +0.000 A 
ATOM     21  C   UNL     1      -0.598   9.734  23.274  0.00  0.00    +0.000 A 
ATOM     22  C   UNL     1      -1.031  11.043  23.058  0.00  0.00    +0.000 A 
ATOM     23  C   UNL     1      -0.801  11.697  21.842  0.00  0.00    +0.000 A 
ATOM     24  C   UNL     1      -0.130  10.983  20.835  0.00  0.00    +0.000 A 
BRANCH  23  25
ATOM     25  N   UNL     1      -1.194  13.048  21.642  0.00  0.00    +0.000 N 
ATOM     26  C   UNL     1      -0.604  14.149  22.369  0.00  0.00    +0.000 C 
ATOM     27  C   UNL     1      -1.588  15.286  22.188  0.00  0.00    +0.000 C 
ATOM     28  C   UNL     1      -2.212  15.011  20.836  0.00  0.00    +0.000 C 
ATOM     29  C   UNL     1      -2.136  13.509  20.712  0.00  0.00    +0.000 C 
ATOM     30  O   UNL     1      -2.781  12.888  19.881  0.00  0.00    +0.000 OA
ENDBRANCH  23  25
ENDBRANCH   3  19
TORSDOF 5
ENDMDL
MODEL 4
REMARK VINA RESULT:      -8.5      1.415      1.595
REMARK  Name = 
REMARK  5 active torsions:
REMARK  status: ('A' for Active; 'I' for Inactive)
REMARK    1  A    between atoms: C_2  and  C_27
REMARK    2  A    between atoms: N_3  and  C_4
REMARK    3  A    between atoms: C_8  and  C_9
REMARK    4  A    between atoms: C_11  and  C_12
REMARK    5  A    between atoms: C_16  and  N_17
REMARK                            x       y       z     vdW  Elec       q    Type
REMARK                         _______ _______ _______ _____ _____    ______ ____
ROOT
ATOM      1  C   UNL     1       1.156   9.181  19.879  0.00  0.00    +0.000 A 
ATOM      2  N   UNL     1       1.790   8.033  20.005  0.00  0.00    +0.000 NA
ATOM      3  C   UNL     1       2.371   7.662  18.805  0.00  0.00    +0.000 A 
ATOM      4  C   UNL     1       2.162   8.546  17.766  0.00  0.00    +0.000 A 
ATOM      5  S   UNL     1       1.239   9.882  18.307  0.00  0.00    +0.000 S 
ENDROOT
BRANCH   1  10
ATOM      6  C   UNL     1      -0.699  11.774  21.952  0.00  0.00    +0.000 A 
ATOM      7  C   UNL     1      -1.044  10.993  23.054  0.00  0.00    +0.000 A 
ATOM      8  C   UNL     1      -0.653   9.657  23.135  0.00  0.00    +0.000 A 
ATOM      9  C   UNL     1       0.083   9.085  22.100  0.00  0.00    +0.000 A 
ATOM     10  C   UNL     1       0.447   9.845  20.980  0.00  0.00    +0.000 A 
ATOM     11  C   UNL     1       0.060  11.196  20.922  0.00  0.00    +0.000 A 
BRANCH   6  14
ATOM     12  O   UNL     1      -2.848  12.942  20.278  0.00  0.00    +0.000 OA
ATOM     13  C   UNL     1      -2.104  13.598  20.990  0.00  0.00    +0.000 C 
ATOM     14  N   UNL     1      -1.087  13.124  21.797  0.00  0.00    +0.000 N 
ATOM     15  H   UNL     1      -0.543  13.811  22.298  0.00  0.00    +0.000 HD
BRANCH  13  16
ATOM     16  C   UNL     1      -2.233  15.089  20.999  0.00  0.00    +0.000 C 
ATOM     17  C   UNL     1      -1.343  15.926  20.106  0.00  0.00    +0.000 C 
ATOM     18  C   UNL     1      -1.116  15.921  21.589  0.00  0.00    +0.000 C 
ENDBRANCH  13  16
ENDBRANCH   6  14
ENDBRANCH   1  10
BRANCH   3  19
ATOM     19  C   UNL     1       3.158   6.441  18.700  0.00  0.00    +0.000 A 
ATOM     20  C   UNL     1       3.024   5.413  19.636  0.00  0.00    +0.000 A 
ATOM     21  C   UNL     1       3.725   4.225  19.470  0.00  0.00    +0.000 A 
ATOM     22  C   UNL     1       4.549   4.048  18.358  0.00  0.00    +0.000 A 
ATOM     23  C   UNL     1       4.708   5.056  17.399  0.00  0.00    +0.000 A 
ATOM     24  C   UNL     1       4.019   6.263  17.603  0.00  0.00    +0.000 A 
BRANCH  23  25
ATOM     25  N   UNL     1       5.505   4.854  16.239  0.00  0.00    +0.000 N 
ATOM     26  C   UNL     1       4.947   4.450  14.969  0.00  0.00    +0.000 C 
ATOM     27  C   UNL     1       6.137   3.934  14.186  0.00  0.00    +0.000 C 
ATOM     28  C   UNL     1       7.299   4.746  14.720  0.00  0.00    +0.000 C 
ATOM     29  C   UNL     1       6.888   5.059  16.137  0.00  0.00    +0.000 C 
ATOM     30  O   UNL     1       7.680   5.466  16.974  0.00  0.00    +0.000 OA
ENDBRANCH  23  25
ENDBRANCH   3  19
TORSDOF 5
ENDMDL
MODEL 5
REMARK VINA RESULT:      -8.4      2.440      2.659
REMARK  Name = 
REMARK  5 active torsions:
REMARK  status: ('A' for Active; 'I' for Inactive)
REMARK    1  A    between atoms: C_2  and  C_27
REMARK    2  A    between atoms: N_3  and  C_4
REMARK    3  A    between atoms: C_8  and  C_9
REMARK    4  A    between atoms: C_11  and  C_12
REMARK    5  A    between atoms: C_16  and  N_17
REMARK                            x       y       z     vdW  Elec       q    Type
REMARK                         _______ _______ _______ _____ _____    ______ ____
ROOT
ATOM      1  C   UNL     1       0.927   9.521  20.118  0.00  0.00    +0.000 A 
ATOM      2  N   UNL     1       1.458   8.340  20.364  0.00  0.00    +0.000 NA
ATOM      3  C   UNL     1       2.034   7.817  19.219  0.00  0.00    +0.000 A 
ATOM      4  C   UNL     1       1.924   8.619  18.101  0.00  0.00    +0.000 A 
ATOM      5  S   UNL     1       1.104  10.068  18.495  0.00  0.00    +0.000 S 
ENDROOT
BRANCH   1  10
ATOM      6  C   UNL     1      -0.614  12.470  21.961  0.00  0.00    +0.000 A 
ATOM      7  C   UNL     1      -1.194  11.799  23.037  0.00  0.00    +0.000 A 
ATOM      8  C   UNL     1      -1.059  10.418  23.178  0.00  0.00    +0.000 A 
ATOM      9  C   UNL     1      -0.346   9.691  22.227  0.00  0.00    +0.000 A 
ATOM     10  C   UNL     1       0.250  10.336  21.136  0.00  0.00    +0.000 A 
ATOM     11  C   UNL     1       0.120  11.731  21.019  0.00  0.00    +0.000 A 
BRANCH   6  14
ATOM     12  O   UNL     1       1.368  14.630  22.394  0.00  0.00    +0.000 OA
ATOM     13  C   UNL     1       0.235  14.815  21.977  0.00  0.00    +0.000 C 
ATOM     14  N   UNL     1      -0.736  13.861  21.748  0.00  0.00    +0.000 N 
ATOM     15  H   UNL     1      -1.637  14.192  21.431  0.00  0.00    +0.000 HD
BRANCH  13  16
ATOM     16  C   UNL     1      -0.221  16.215  21.706  0.00  0.00    +0.000 C 
ATOM     17  C   UNL     1       0.373  16.988  20.548  0.00  0.00    +0.000 C 
ATOM     18  C   UNL     1       0.733  17.361  21.956  0.00  0.00    +0.000 C 
ENDBRANCH  13  16
ENDBRANCH   6  14
ENDBRANCH   1  10
BRANCH   3  19
ATOM     19  C   UNL     1       2.718   6.531  19.246  0.00  0.00    +0.000 A 
ATOM     20  C   UNL     1       2.335   5.528  20.139  0.00  0.00    +0.000 A 
ATOM     21  C   UNL     1       2.948   4.282  20.091  0.00  0.00    +0.000 A 
ATOM     22  C   UNL     1       3.932   4.022  19.137  0.00  0.00    +0.000 A 
ATOM     23  C   UNL     1       4.341   5.003  18.224  0.00  0.00    +0.000 A 
ATOM     24  C   UNL     1       3.735   6.267  18.312  0.00  0.00    +0.000 A 
BRANCH  23  25
ATOM     25  N   UNL     1       5.305   4.721  17.218  0.00  0.00    +0.000 N 
ATOM     26  C   UNL     1       4.966   4.629  15.816  0.00  0.00    +0.000 C 
ATOM     27  C   UNL     1       6.138   3.897  15.196  0.00  0.00    +0.000 C 
ATOM     28  C   UNL     1       7.313   4.295  16.067  0.00  0.00    +0.000 C 
ATOM     29  C   UNL     1       6.682   4.549  17.413  0.00  0.00    +0.000 C 
ATOM     30  O   UNL     1       7.340   4.627  18.440  0.00  0.00    +0.000 OA
ENDBRANCH  23  25
ENDBRANCH   3  19
TORSDOF 5
ENDMDL
MODEL 6
REMARK VINA RESULT:      -8.4      3.388     10.966
REMARK  Name = 
REMARK  5 active torsions:
REMARK  status: ('A' for Active; 'I' for Inactive)
REMARK    1  A    between atoms: C_2  and  C_27
REMARK    2  A    between atoms: N_3  and  C_4
REMARK    3  A    between atoms: C_8  and  C_9
REMARK    4  A    between atoms: C_11  and  C_12
REMARK    5  A    between atoms: C_16  and  N_17
REMARK                            x       y       z     vdW  Elec       q    Type
REMARK                         _______ _______ _______ _____ _____    ______ ____
ROOT
ATOM      1  C   UNL     1       0.273  10.400  19.621  0.00  0.00    +0.000 A 
ATOM      2  N   UNL     1      -0.957  10.490  19.155  0.00  0.00    +0.000 NA
ATOM      3  C   UNL     1      -1.586  11.616  19.658  0.00  0.00    +0.000 A 
ATOM      4  C   UNL     1      -0.816  12.372  20.518  0.00  0.00    +0.000 A 
ATOM      5  S   UNL     1       0.739  11.675  20.682  0.00  0.00    +0.000 S 
ENDROOT
BRANCH   1  10
ATOM      6  C   UNL     1       2.261   7.158  19.692  0.00  0.00    +0.000 A 
ATOM      7  C   UNL     1       2.862   7.222  18.436  0.00  0.00    +0.000 A 
ATOM      8  C   UNL     1       2.650   8.315  17.595  0.00  0.00    +0.000 A 
ATOM      9  C   UNL     1       1.819   9.354  18.005  0.00  0.00    +0.000 A 
ATOM     10  C   UNL     1       1.202   9.320  19.262  0.00  0.00    +0.000 A 
ATOM     11  C   UNL     1       1.440   8.220  20.105  0.00  0.00    +0.000 A 
BRANCH   6  14
ATOM     12  O   UNL     1       1.251   4.382  19.464  0.00  0.00    +0.000 OA
ATOM     13  C   UNL     1       1.907   4.795  20.406  0.00  0.00    +0.000 C 
ATOM     14  N   UNL     1       2.413   6.068  20.578  0.00  0.00    +0.000 N 
ATOM     15  H   UNL     1       2.909   6.251  21.439  0.00  0.00    +0.000 HD
BRANCH  13  16
ATOM     16  C   UNL     1       2.192   3.875  21.553  0.00  0.00    +0.000 C 
ATOM     17  C   UNL     1       2.906   2.563  21.304  0.00  0.00    +0.000 C 
ATOM     18  C   UNL     1       1.446   2.563  21.647  0.00  0.00    +0.000 C 
ENDBRANCH  13  16
ENDBRANCH   6  14
ENDBRANCH   1  10
BRANCH   3  19
ATOM     19  C   UNL     1      -2.947  11.952  19.262  0.00  0.00    +0.000 A 
ATOM     20  C   UNL     1      -3.489  11.477  18.065  0.00  0.00    +0.000 A 
ATOM     21  C   UNL     1      -4.815  11.743  17.747  0.00  0.00    +0.000 A 
ATOM     22  C   UNL     1      -5.615  12.469  18.631  0.00  0.00    +0.000 A 
ATOM     23  C   UNL     1      -5.107  12.960  19.840  0.00  0.00    +0.000 A 
ATOM     24  C   UNL     1      -3.754  12.711  20.128  0.00  0.00    +0.000 A 
BRANCH  23  25
ATOM     25  N   UNL     1      -5.936  13.652  20.765  0.00  0.00    +0.000 N 
ATOM     26  C   UNL     1      -6.573  14.911  20.453  0.00  0.00    +0.000 C 
ATOM     27  C   UNL     1      -6.955  15.480  21.803  0.00  0.00    +0.000 C 
ATOM     28  C   UNL     1      -7.203  14.252  22.655  0.00  0.00    +0.000 C 
ATOM     29  C   UNL     1      -6.293  13.214  22.047  0.00  0.00    +0.000 C 
ATOM     30  O   UNL     1      -6.010  12.174  22.624  0.00  0.00    +0.000 OA
ENDBRANCH  23  25
ENDBRANCH   3  19
TORSDOF 5
ENDMDL
MODEL 7
REMARK VINA RESULT:      -8.3      2.561      3.279
REMARK  Name = 
REMARK  5 active torsions:
REMARK  status: ('A' for Active; 'I' for Inactive)
REMARK    1  A    between atoms: C_2  and  C_27
REMARK    2  A    between atoms: N_3  and  C_4
REMARK    3  A    between atoms: C_8  and  C_9
REMARK    4  A    between atoms: C_11  and  C_12
REMARK    5  A    between atoms: C_16  and  N_17
REMARK                            x       y       z     vdW  Elec       q    Type
REMARK                         _______ _______ _______ _____ _____    ______ ____
ROOT
ATOM      1  C   UNL     1       0.799   9.656  20.194  0.00  0.00    +0.000 A 
ATOM      2  N   UNL     1       1.230   8.559  19.604  0.00  0.00    +0.000 NA
ATOM      3  C   UNL     1       1.673   7.643  20.542  0.00  0.00    +0.000 A 
ATOM      4  C   UNL     1       1.578   8.067  21.852  0.00  0.00    +0.000 A 
ATOM      5  S   UNL     1       0.895   9.635  21.913  0.00  0.00    +0.000 S 
ENDROOT
BRANCH   1  10
ATOM      6  C   UNL     1      -1.615  12.210  18.739  0.00  0.00    +0.000 A 
ATOM      7  C   UNL     1      -0.703  13.120  18.205  0.00  0.00    +0.000 A 
ATOM      8  C   UNL     1       0.671  12.890  18.288  0.00  0.00    +0.000 A 
ATOM      9  C   UNL     1       1.145  11.744  18.922  0.00  0.00    +0.000 A 
ATOM     10  C   UNL     1       0.253  10.810  19.467  0.00  0.00    +0.000 A 
ATOM     11  C   UNL     1      -1.128  11.048  19.359  0.00  0.00    +0.000 A 
BRANCH   6  14
ATOM     12  O   UNL     1      -3.719  10.557  17.467  0.00  0.00    +0.000 OA
ATOM     13  C   UNL     1      -3.940  11.582  18.092  0.00  0.00    +0.000 C 
ATOM     14  N   UNL     1      -3.015  12.398  18.712  0.00  0.00    +0.000 N 
ATOM     15  H   UNL     1      -3.367  13.232  19.160  0.00  0.00    +0.000 HD
BRANCH  13  16
ATOM     16  C   UNL     1      -5.348  12.082  18.195  0.00  0.00    +0.000 C 
ATOM     17  C   UNL     1      -6.157  11.798  19.441  0.00  0.00    +0.000 C 
ATOM     18  C   UNL     1      -6.487  11.088  18.161  0.00  0.00    +0.000 C 
ENDBRANCH  13  16
ENDBRANCH   6  14
ENDBRANCH   1  10
BRANCH   3  19
ATOM     19  C   UNL     1       2.168   6.335  20.135  0.00  0.00    +0.000 A 
ATOM     20  C   UNL     1       1.430   5.175  20.381  0.00  0.00    +0.000 A 
ATOM     21  C   UNL     1       1.884   3.949  19.912  0.00  0.00    +0.000 A 
ATOM     22  C   UNL     1       3.068   3.875  19.177  0.00  0.00    +0.000 A 
ATOM     23  C   UNL     1       3.834   5.016  18.910  0.00  0.00    +0.000 A 
ATOM     24  C   UNL     1       3.377   6.242  19.423  0.00  0.00    +0.000 A 
BRANCH  23  25
ATOM     25  N   UNL     1       5.011   4.948  18.116  0.00  0.00    +0.000 N 
ATOM     26  C   UNL     1       4.976   4.824  16.677  0.00  0.00    +0.000 C 
ATOM     27  C   UNL     1       6.366   4.346  16.310  0.00  0.00    +0.000 C 
ATOM     28  C   UNL     1       7.248   4.944  17.386  0.00  0.00    +0.000 C 
ATOM     29  C   UNL     1       6.331   5.041  18.579  0.00  0.00    +0.000 C 
ATOM     30  O   UNL     1       6.749   5.222  19.713  0.00  0.00    +0.000 OA
ENDBRANCH  23  25
ENDBRANCH   3  19
TORSDOF 5
ENDMDL
MODEL 8
REMARK VINA RESULT:      -8.2      2.359      2.980
REMARK  Name = 
REMARK  5 active torsions:
REMARK  status: ('A' for Active; 'I' for Inactive)
REMARK    1  A    between atoms: C_2  and  C_27
REMARK    2  A    between atoms: N_3  and  C_4
REMARK    3  A    between atoms: C_8  and  C_9
REMARK    4  A    between atoms: C_11  and  C_12
REMARK    5  A    between atoms: C_16  and  N_17
REMARK                            x       y       z     vdW  Elec       q    Type
REMARK                         _______ _______ _______ _____ _____    ______ ____
ROOT
ATOM      1  C   UNL     1       1.067   9.426  19.786  0.00  0.00    +0.000 A 
ATOM      2  N   UNL     1       1.465   8.384  19.084  0.00  0.00    +0.000 NA
ATOM      3  C   UNL     1       1.897   7.369  19.919  0.00  0.00    +0.000 A 
ATOM      4  C   UNL     1       1.826   7.662  21.266  0.00  0.00    +0.000 A 
ATOM      5  S   UNL     1       1.181   9.231  21.494  0.00  0.00    +0.000 S 
ENDROOT
BRANCH   1  10
ATOM      6  C   UNL     1      -1.299  12.026  18.334  0.00  0.00    +0.000 A 
ATOM      7  C   UNL     1      -0.418  13.098  18.199  0.00  0.00    +0.000 A 
ATOM      8  C   UNL     1       0.927  12.968  18.544  0.00  0.00    +0.000 A 
ATOM      9  C   UNL     1       1.401  11.756  19.041  0.00  0.00    +0.000 A 
ATOM     10  C   UNL     1       0.541  10.660  19.186  0.00  0.00    +0.000 A 
ATOM     11  C   UNL     1      -0.808  10.802  18.817  0.00  0.00    +0.000 A 
BRANCH   6  14
ATOM     12  O   UNL     1      -3.624  12.312  20.149  0.00  0.00    +0.000 OA
ATOM     13  C   UNL     1      -3.711  12.232  18.934  0.00  0.00    +0.000 C 
ATOM     14  N   UNL     1      -2.676  12.101  18.029  0.00  0.00    +0.000 N 
ATOM     15  H   UNL     1      -2.929  12.014  17.055  0.00  0.00    +0.000 HD
BRANCH  13  16
ATOM     16  C   UNL     1      -5.068  12.227  18.301  0.00  0.00    +0.000 C 
ATOM     17  C   UNL     1      -5.827  10.925  18.160  0.00  0.00    +0.000 C 
ATOM     18  C   UNL     1      -5.245  11.583  16.944  0.00  0.00    +0.000 C 
ENDBRANCH  13  16
ENDBRANCH   6  14
ENDBRANCH   1  10
BRANCH   3  19
ATOM     19  C   UNL     1       2.356   6.098  19.377  0.00  0.00    +0.000 A 
ATOM     20  C   UNL     1       1.572   4.946  19.474  0.00  0.00    +0.000 A 
ATOM     21  C   UNL     1       1.994   3.765  18.878  0.00  0.00    +0.000 A 
ATOM     22  C   UNL     1       3.193   3.729  18.165  0.00  0.00    +0.000 A 
ATOM     23  C   UNL     1       4.005   4.864  18.046  0.00  0.00    +0.000 A 
ATOM     24  C   UNL     1       3.579   6.040  18.685  0.00  0.00    +0.000 A 
BRANCH  23  25
ATOM     25  N   UNL     1       5.199   4.842  17.275  0.00  0.00    +0.000 N 
ATOM     26  C   UNL     1       5.212   5.073  15.848  0.00  0.00    +0.000 C 
ATOM     27  C   UNL     1       6.549   4.527  15.394  0.00  0.00    +0.000 C 
ATOM     28  C   UNL     1       7.449   4.732  16.595  0.00  0.00    +0.000 C 
ATOM     29  C   UNL     1       6.499   4.654  17.764  0.00  0.00    +0.000 C 
ATOM     30  O   UNL     1       6.887   4.503  18.913  0.00  0.00    +0.000 OA
ENDBRANCH  23  25
ENDBRANCH   3  19
TORSDOF 5
ENDMDL
MODEL 9
REMARK VINA RESULT:      -8.2      1.696      2.320
REMARK  Name = 
REMARK  5 active torsions:
REMARK  status: ('A' for Active; 'I' for Inactive)
REMARK    1  A    between atoms: C_2  and  C_27
REMARK    2  A    between atoms: N_3  and  C_4
REMARK    3  A    between atoms: C_8  and  C_9
REMARK    4  A    between atoms: C_11  and  C_12
REMARK    5  A    between atoms: C_16  and  N_17
REMARK                            x       y       z     vdW  Elec       q    Type
REMARK                         _______ _______ _______ _____ _____    ______ ____
ROOT
ATOM      1  C   UNL     1       0.250  10.309  20.034  0.00  0.00    +0.000 A 
ATOM      2  N   UNL     1       0.661   9.117  20.418  0.00  0.00    +0.000 NA
ATOM      3  C   UNL     1       1.522   8.573  19.480  0.00  0.00    +0.000 A 
ATOM      4  C   UNL     1       1.751   9.369  18.377  0.00  0.00    +0.000 A 
ATOM      5  S   UNL     1       0.891  10.842  18.526  0.00  0.00    +0.000 S 
ENDROOT
BRANCH   1  10
ATOM      6  C   UNL     1      -2.638  12.574  21.027  0.00  0.00    +0.000 A 
ATOM      7  C   UNL     1      -2.459  12.594  22.410  0.00  0.00    +0.000 A 
ATOM      8  C   UNL     1      -1.399  11.908  23.005  0.00  0.00    +0.000 A 
ATOM      9  C   UNL     1      -0.511  11.184  22.213  0.00  0.00    +0.000 A 
ATOM     10  C   UNL     1      -0.664  11.147  20.821  0.00  0.00    +0.000 A 
ATOM     11  C   UNL     1      -1.727  11.858  20.236  0.00  0.00    +0.000 A 
BRANCH   6  14
ATOM     12  O   UNL     1      -5.549  12.033  21.157  0.00  0.00    +0.000 OA
ATOM     13  C   UNL     1      -5.047  12.912  20.475  0.00  0.00    +0.000 C 
ATOM     14  N   UNL     1      -3.706  13.224  20.368  0.00  0.00    +0.000 N 
ATOM     15  H   UNL     1      -3.458  13.964  19.728  0.00  0.00    +0.000 HD
BRANCH  13  16
ATOM     16  C   UNL     1      -5.930  13.750  19.604  0.00  0.00    +0.000 C 
ATOM     17  C   UNL     1      -6.841  14.784  20.230  0.00  0.00    +0.000 C 
ATOM     18  C   UNL     1      -7.426  13.533  19.646  0.00  0.00    +0.000 C 
ENDBRANCH  13  16
ENDBRANCH   6  14
ENDBRANCH   1  10
BRANCH   3  19
ATOM     19  C   UNL     1       2.137   7.270  19.696  0.00  0.00    +0.000 A 
ATOM     20  C   UNL     1       1.571   6.340  20.572  0.00  0.00    +0.000 A 
ATOM     21  C   UNL     1       2.131   5.075  20.700  0.00  0.00    +0.000 A 
ATOM     22  C   UNL     1       3.247   4.723  19.940  0.00  0.00    +0.000 A 
ATOM     23  C   UNL     1       3.841   5.628  19.052  0.00  0.00    +0.000 A 
ATOM     24  C   UNL     1       3.283   6.914  18.963  0.00  0.00    +0.000 A 
BRANCH  23  25
ATOM     25  N   UNL     1       4.944   5.251  18.239  0.00  0.00    +0.000 N 
ATOM     26  C   UNL     1       4.826   5.029  16.816  0.00  0.00    +0.000 C 
ATOM     27  C   UNL     1       6.068   4.239  16.457  0.00  0.00    +0.000 C 
ATOM     28  C   UNL     1       7.099   4.714  17.460  0.00  0.00    +0.000 C 
ATOM     29  C   UNL     1       6.271   5.095  18.662  0.00  0.00    +0.000 C 
ATOM     30  O   UNL     1       6.763   5.267  19.768  0.00  0.00    +0.000 OA
ENDBRANCH  23  25
ENDBRANCH   3  19
TORSDOF 5
ENDMDL
