MODEL 1
REMARK VINA RESULT:      -9.8      0.000      0.000
REMARK  Name = 
REMARK  5 active torsions:
REMARK  status: ('A' for Active; 'I' for Inactive)
REMARK    1  A    between atoms: C_2  and  C_22
REMARK    2  A    between atoms: N_3  and  C_4
REMARK    3  A    between atoms: C_4  and  C_5
REMARK    4  A    between atoms: N_13  and  C_14
REMARK    5  A    between atoms: C_14  and  C_15
REMARK                            x       y       z     vdW  Elec       q    Type
REMARK                         _______ _______ _______ _____ _____    ______ ____
ROOT
ATOM      1  C   UNL     1       5.071   4.412  18.979  0.00  0.00    +0.000 A 
ATOM      2  N   UNL     1       4.914   3.516  19.938  0.00  0.00    +0.000 NA
ATOM      3  C   UNL     1       3.561   3.388  20.116  0.00  0.00    +0.000 A 
ATOM      4  C   UNL     1       2.849   2.545  20.982  0.00  0.00    +0.000 A 
ATOM      5  C   UNL     1       1.449   2.575  20.961  0.00  0.00    +0.000 A 
ATOM      6  C   UNL     1       0.770   3.434  20.096  0.00  0.00    +0.000 A 
ATOM      7  C   UNL     1       1.462   4.297  19.240  0.00  0.00    +0.000 A 
ATOM      8  C   UNL     1       2.863   4.246  19.273  0.00  0.00    +0.000 A 
ATOM      9  N   UNL     1       3.850   4.921  18.585  0.00  0.00    +0.000 N 
ENDROOT
BRANCH   1  10
ATOM     10  C   UNL     1       6.380   4.816  18.388  0.00  0.00    +0.000 C 
BRANCH  10  13
ATOM     11  O   UNL     1       7.402   6.328  16.281  0.00  0.00    +0.000 OA
ATOM     12  C   UNL     1       6.909   5.233  16.018  0.00  0.00    +0.000 C 
ATOM     13  N   UNL     1       6.420   4.404  17.001  0.00  0.00    +0.000 N 
ATOM     14  H   UNL     1       6.040   3.492  16.800  0.00  0.00    +0.000 HD
BRANCH  12  15
ATOM     15  C   UNL     1       6.859   4.770  14.598  0.00  0.00    +0.000 A 
ATOM     16  C   UNL     1       7.751   5.375  13.695  0.00  0.00    +0.000 A 
ATOM     17  C   UNL     1       7.770   5.004  12.350  0.00  0.00    +0.000 A 
ATOM     18  C   UNL     1       6.896   4.023  11.890  0.00  0.00    +0.000 A 
ATOM     19  C   UNL     1       6.003   3.416  12.774  0.00  0.00    +0.000 A 
ATOM     20  C   UNL     1       5.983   3.786  14.125  0.00  0.00    +0.000 A 
ENDBRANCH  12  15
ENDBRANCH  10  13
ENDBRANCH   1  10
BRANCH   9  21
ATOM     21  C   UNL     1       3.633   6.072  17.718  0.00  0.00    +0.000 C 
BRANCH  21  22
ATOM     22  C   UNL     1       2.726   7.140  18.284  0.00  0.00    +0.000 A 
ATOM     23  C   UNL     1       2.302   8.182  17.440  0.00  0.00    +0.000 A 
ATOM     24  C   UNL     1       1.599   9.279  17.946  0.00  0.00    +0.000 A 
ATOM     25  C   UNL     1       1.309   9.352  19.307  0.00  0.00    +0.000 A 
ATOM     26  C   UNL     1       1.703   8.317  20.150  0.00  0.00    +0.000 A 
ATOM     27 CL   UNL     1       1.356   8.408  21.833  0.00  0.00    +0.000 Cl
ATOM     28  C   UNL     1       2.404   7.218  19.648  0.00  0.00    +0.000 A 
ENDBRANCH  21  22
ENDBRANCH   9  21
TORSDOF 5
ENDMDL
MODEL 2
REMARK VINA RESULT:      -9.6      3.344      7.453
REMARK  Name = 
REMARK  5 active torsions:
REMARK  status: ('A' for Active; 'I' for Inactive)
REMARK    1  A    between atoms: C_2  and  C_22
REMARK    2  A    between atoms: N_3  and  C_4
REMARK    3  A    between atoms: C_4  and  C_5
REMARK    4  A    between atoms: N_13  and  C_14
REMARK    5  A    between atoms: C_14  and  C_15
REMARK                            x       y       z     vdW  Elec       q    Type
REMARK                         _______ _______ _______ _____ _____    ______ ____
ROOT
ATOM      1  C   UNL     1       2.649   6.174  18.375  0.00  0.00    +0.000 A 
ATOM      2  N   UNL     1       1.722   5.471  19.003  0.00  0.00    +0.000 NA
ATOM      3  C   UNL     1       2.067   4.155  18.830  0.00  0.00    +0.000 A 
ATOM      4  C   UNL     1       1.446   2.997  19.320  0.00  0.00    +0.000 A 
ATOM      5  C   UNL     1       2.010   1.749  19.028  0.00  0.00    +0.000 A 
ATOM      6  C   UNL     1       3.171   1.656  18.258  0.00  0.00    +0.000 A 
ATOM      7  C   UNL     1       3.792   2.798  17.743  0.00  0.00    +0.000 A 
ATOM      8  C   UNL     1       3.214   4.038  18.052  0.00  0.00    +0.000 A 
ATOM      9  N   UNL     1       3.544   5.340  17.738  0.00  0.00    +0.000 N 
ENDROOT
BRANCH   1  10
ATOM     10  C   UNL     1       2.733   7.663  18.362  0.00  0.00    +0.000 C 
BRANCH  10  13
ATOM     11  O   UNL     1       0.825   9.693  18.257  0.00  0.00    +0.000 OA
ATOM     12  C   UNL     1       1.104   9.221  19.357  0.00  0.00    +0.000 C 
ATOM     13  N   UNL     1       2.002   8.189  19.496  0.00  0.00    +0.000 N 
ATOM     14  H   UNL     1       2.217   7.775  20.390  0.00  0.00    +0.000 HD
BRANCH  12  15
ATOM     15  C   UNL     1       0.435   9.760  20.581  0.00  0.00    +0.000 A 
ATOM     16  C   UNL     1       0.203   8.858  21.634  0.00  0.00    +0.000 A 
ATOM     17  C   UNL     1      -0.417   9.276  22.812  0.00  0.00    +0.000 A 
ATOM     18  C   UNL     1      -0.814  10.603  22.951  0.00  0.00    +0.000 A 
ATOM     19  C   UNL     1      -0.593  11.508  21.914  0.00  0.00    +0.000 A 
ATOM     20  C   UNL     1       0.030  11.092  20.731  0.00  0.00    +0.000 A 
ENDBRANCH  12  15
ENDBRANCH  10  13
ENDBRANCH   1  10
BRANCH   9  21
ATOM     21  C   UNL     1       4.564   5.739  16.776  0.00  0.00    +0.000 C 
BRANCH  21  22
ATOM     22  C   UNL     1       5.905   6.098  17.373  0.00  0.00    +0.000 A 
ATOM     23  C   UNL     1       6.536   5.171  18.219  0.00  0.00    +0.000 A 
ATOM     24  C   UNL     1       7.693   5.510  18.926  0.00  0.00    +0.000 A 
ATOM     25  C   UNL     1       8.238   6.786  18.796  0.00  0.00    +0.000 A 
ATOM     26  C   UNL     1       7.637   7.707  17.943  0.00  0.00    +0.000 A 
ATOM     27 CL   UNL     1       8.301   9.287  17.787  0.00  0.00    +0.000 Cl
ATOM     28  C   UNL     1       6.482   7.371  17.234  0.00  0.00    +0.000 A 
ENDBRANCH  21  22
ENDBRANCH   9  21
TORSDOF 5
ENDMDL
MODEL 3
REMARK VINA RESULT:      -9.6      1.286      1.727
REMARK  Name = 
REMARK  5 active torsions:
REMARK  status: ('A' for Active; 'I' for Inactive)
REMARK    1  A    between atoms: C_2  and  C_22
REMARK    2  A    between atoms: N_3  and  C_4
REMARK    3  A    between atoms: C_4  and  C_5
REMARK    4  A    between atoms: N_13  and  C_14
REMARK    5  A    between atoms: C_14  and  C_15
REMARK                            x       y       z     vdW  Elec       q    Type
REMARK                         _______ _______ _______ _____ _____    ______ ____
ROOT
ATOM      1  C   UNL     1       4.098   5.008  18.016  0.00  0.00    +0.000 A 
ATOM      2  N   UNL     1       3.864   3.768  17.621  0.00  0.00    +0.000 NA
ATOM      3  C   UNL     1       2.745   3.362  18.301  0.00  0.00    +0.000 A 
ATOM      4  C   UNL     1       2.047   2.147  18.229  0.00  0.00    +0.000 A 
ATOM      5  C   UNL     1       0.899   1.976  19.012  0.00  0.00    +0.000 A 
ATOM      6  C   UNL     1       0.455   2.996  19.856  0.00  0.00    +0.000 A 
ATOM      7  C   UNL     1       1.150   4.206  19.958  0.00  0.00    +0.000 A 
ATOM      8  C   UNL     1       2.293   4.359  19.161  0.00  0.00    +0.000 A 
ATOM      9  N   UNL     1       3.199   5.386  18.992  0.00  0.00    +0.000 N 
ENDROOT
BRANCH   1  10
ATOM     10  C   UNL     1       5.174   5.890  17.480  0.00  0.00    +0.000 C 
BRANCH  10  13
ATOM     11  O   UNL     1       7.473   4.662  16.492  0.00  0.00    +0.000 OA
ATOM     12  C   UNL     1       6.599   4.980  15.687  0.00  0.00    +0.000 C 
ATOM     13  N   UNL     1       5.416   5.552  16.093  0.00  0.00    +0.000 N 
ATOM     14  H   UNL     1       4.681   5.791  15.445  0.00  0.00    +0.000 HD
BRANCH  12  15
ATOM     15  C   UNL     1       6.809   4.719  14.231  0.00  0.00    +0.000 A 
ATOM     16  C   UNL     1       6.013   3.723  13.637  0.00  0.00    +0.000 A 
ATOM     17  C   UNL     1       6.144   3.415  12.283  0.00  0.00    +0.000 A 
ATOM     18  C   UNL     1       7.074   4.098  11.504  0.00  0.00    +0.000 A 
ATOM     19  C   UNL     1       7.872   5.086  12.080  0.00  0.00    +0.000 A 
ATOM     20  C   UNL     1       7.742   5.399  13.439  0.00  0.00    +0.000 A 
ENDBRANCH  12  15
ENDBRANCH  10  13
ENDBRANCH   1  10
BRANCH   9  21
ATOM     21  C   UNL     1       3.271   6.585  19.818  0.00  0.00    +0.000 C 
BRANCH  21  22
ATOM     22  C   UNL     1       2.256   7.654  19.488  0.00  0.00    +0.000 A 
ATOM     23  C   UNL     1       2.213   8.163  18.179  0.00  0.00    +0.000 A 
ATOM     24  C   UNL     1       1.410   9.261  17.858  0.00  0.00    +0.000 A 
ATOM     25  C   UNL     1       0.635   9.869  18.844  0.00  0.00    +0.000 A 
ATOM     26  C   UNL     1       0.650   9.360  20.139  0.00  0.00    +0.000 A 
ATOM     27 CL   UNL     1      -0.299  10.113  21.362  0.00  0.00    +0.000 Cl
ATOM     28  C   UNL     1       1.449   8.263  20.464  0.00  0.00    +0.000 A 
ENDBRANCH  21  22
ENDBRANCH   9  21
TORSDOF 5
ENDMDL
MODEL 4
REMARK VINA RESULT:      -9.5      1.212      1.561
REMARK  Name = 
REMARK  5 active torsions:
REMARK  status: ('A' for Active; 'I' for Inactive)
REMARK    1  A    between atoms: C_2  and  C_22
REMARK    2  A    between atoms: N_3  and  C_4
REMARK    3  A    between atoms: C_4  and  C_5
REMARK    4  A    between atoms: N_13  and  C_14
REMARK    5  A    between atoms: C_14  and  C_15
REMARK                            x       y       z     vdW  Elec       q    Type
REMARK                         _______ _______ _______ _____ _____    ______ ____
ROOT
ATOM      1  C   UNL     1       4.677   5.388  18.552  0.00  0.00    +0.000 A 
ATOM      2  N   UNL     1       4.910   4.368  19.360  0.00  0.00    +0.000 NA
ATOM      3  C   UNL     1       3.679   3.862  19.691  0.00  0.00    +0.000 A 
ATOM      4  C   UNL     1       3.353   2.757  20.491  0.00  0.00    +0.000 A 
ATOM      5  C   UNL     1       2.006   2.416  20.661  0.00  0.00    +0.000 A 
ATOM      6  C   UNL     1       1.000   3.166  20.049  0.00  0.00    +0.000 A 
ATOM      7  C   UNL     1       1.304   4.283  19.266  0.00  0.00    +0.000 A 
ATOM      8  C   UNL     1       2.660   4.604  19.103  0.00  0.00    +0.000 A 
ATOM      9  N   UNL     1       3.320   5.600  18.413  0.00  0.00    +0.000 N 
ENDROOT
BRANCH   1  10
ATOM     10  C   UNL     1       5.727   6.198  17.868  0.00  0.00    +0.000 C 
BRANCH  10  13
ATOM     11  O   UNL     1       7.581   4.428  16.773  0.00  0.00    +0.000 OA
ATOM     12  C   UNL     1       6.770   4.955  16.014  0.00  0.00    +0.000 C 
ATOM     13  N   UNL     1       5.794   5.808  16.476  0.00  0.00    +0.000 N 
ATOM     14  H   UNL     1       5.106   6.223  15.867  0.00  0.00    +0.000 HD
BRANCH  12  15
ATOM     15  C   UNL     1       6.822   4.648  14.552  0.00  0.00    +0.000 A 
ATOM     16  C   UNL     1       7.697   5.418  13.766  0.00  0.00    +0.000 A 
ATOM     17  C   UNL     1       7.807   5.200  12.393  0.00  0.00    +0.000 A 
ATOM     18  C   UNL     1       7.042   4.208  11.786  0.00  0.00    +0.000 A 
ATOM     19  C   UNL     1       6.167   3.438  12.553  0.00  0.00    +0.000 A 
ATOM     20  C   UNL     1       6.055   3.655  13.932  0.00  0.00    +0.000 A 
ENDBRANCH  12  15
ENDBRANCH  10  13
ENDBRANCH   1  10
BRANCH   9  21
ATOM     21  C   UNL     1       2.684   6.752  17.787  0.00  0.00    +0.000 C 
BRANCH  21  22
ATOM     22  C   UNL     1       2.150   7.790  18.746  0.00  0.00    +0.000 A 
ATOM     23  C   UNL     1       2.016   7.449  20.103  0.00  0.00    +0.000 A 
ATOM     24  C   UNL     1       1.379   8.307  21.003  0.00  0.00    +0.000 A 
ATOM     25  C   UNL     1       0.865   9.524  20.559  0.00  0.00    +0.000 A 
ATOM     26  C   UNL     1       1.012   9.885  19.223  0.00  0.00    +0.000 A 
ATOM     27 CL   UNL     1       0.370  11.383  18.668  0.00  0.00    +0.000 Cl
ATOM     28  C   UNL     1       1.649   9.031  18.321  0.00  0.00    +0.000 A 
ENDBRANCH  21  22
ENDBRANCH   9  21
TORSDOF 5
ENDMDL
MODEL 5
REMARK VINA RESULT:      -9.4      3.238      7.065
REMARK  Name = 
REMARK  5 active torsions:
REMARK  status: ('A' for Active; 'I' for Inactive)
REMARK    1  A    between atoms: C_2  and  C_22
REMARK    2  A    between atoms: N_3  and  C_4
REMARK    3  A    between atoms: C_4  and  C_5
REMARK    4  A    between atoms: N_13  and  C_14
REMARK    5  A    between atoms: C_14  and  C_15
REMARK                            x       y       z     vdW  Elec       q    Type
REMARK                         _______ _______ _______ _____ _____    ______ ____
ROOT
ATOM      1  C   UNL     1       2.767   6.253  18.051  0.00  0.00    +0.000 A 
ATOM      2  N   UNL     1       1.756   5.657  18.660  0.00  0.00    +0.000 NA
ATOM      3  C   UNL     1       2.034   4.315  18.624  0.00  0.00    +0.000 A 
ATOM      4  C   UNL     1       1.311   3.238  19.158  0.00  0.00    +0.000 A 
ATOM      5  C   UNL     1       1.820   1.942  19.017  0.00  0.00    +0.000 A 
ATOM      6  C   UNL     1       3.027   1.720  18.351  0.00  0.00    +0.000 A 
ATOM      7  C   UNL     1       3.751   2.779  17.793  0.00  0.00    +0.000 A 
ATOM      8  C   UNL     1       3.227   4.070  17.951  0.00  0.00    +0.000 A 
ATOM      9  N   UNL     1       3.656   5.320  17.557  0.00  0.00    +0.000 N 
ENDROOT
BRANCH   1  10
ATOM     10  C   UNL     1       2.940   7.729  17.920  0.00  0.00    +0.000 C 
BRANCH  10  13
ATOM     11  O   UNL     1       2.443  10.460  17.668  0.00  0.00    +0.000 OA
ATOM     12  C   UNL     1       1.525   9.741  18.057  0.00  0.00    +0.000 C 
ATOM     13  N   UNL     1       1.670   8.378  18.169  0.00  0.00    +0.000 N 
ATOM     14  H   UNL     1       0.916   7.776  18.460  0.00  0.00    +0.000 HD
BRANCH  12  15
ATOM     15  C   UNL     1       0.203  10.353  18.395  0.00  0.00    +0.000 A 
ATOM     16  C   UNL     1      -0.913   9.912  17.662  0.00  0.00    +0.000 A 
ATOM     17  C   UNL     1      -2.183  10.430  17.911  0.00  0.00    +0.000 A 
ATOM     18  C   UNL     1      -2.355  11.398  18.896  0.00  0.00    +0.000 A 
ATOM     19  C   UNL     1      -1.257  11.847  19.629  0.00  0.00    +0.000 A 
ATOM     20  C   UNL     1       0.020  11.328  19.382  0.00  0.00    +0.000 A 
ENDBRANCH  12  15
ENDBRANCH  10  13
ENDBRANCH   1  10
BRANCH   9  21
ATOM     21  C   UNL     1       4.766   5.579  16.648  0.00  0.00    +0.000 C 
BRANCH  21  22
ATOM     22  C   UNL     1       6.058   5.993  17.314  0.00  0.00    +0.000 A 
ATOM     23  C   UNL     1       6.672   5.100  18.209  0.00  0.00    +0.000 A 
ATOM     24  C   UNL     1       7.775   5.490  18.974  0.00  0.00    +0.000 A 
ATOM     25  C   UNL     1       8.282   6.782  18.855  0.00  0.00    +0.000 A 
ATOM     26  C   UNL     1       7.699   7.669  17.956  0.00  0.00    +0.000 A 
ATOM     27 CL   UNL     1       8.317   9.269  17.812  0.00  0.00    +0.000 Cl
ATOM     28  C   UNL     1       6.598   7.283  17.188  0.00  0.00    +0.000 A 
ENDBRANCH  21  22
ENDBRANCH   9  21
TORSDOF 5
ENDMDL
MODEL 6
REMARK VINA RESULT:      -9.3      0.534      1.058
REMARK  Name = 
REMARK  5 active torsions:
REMARK  status: ('A' for Active; 'I' for Inactive)
REMARK    1  A    between atoms: C_2  and  C_22
REMARK    2  A    between atoms: N_3  and  C_4
REMARK    3  A    between atoms: C_4  and  C_5
REMARK    4  A    between atoms: N_13  and  C_14
REMARK    5  A    between atoms: C_14  and  C_15
REMARK                            x       y       z     vdW  Elec       q    Type
REMARK                         _______ _______ _______ _____ _____    ______ ____
ROOT
ATOM      1  C   UNL     1       4.943   4.882  18.881  0.00  0.00    +0.000 A 
ATOM      2  N   UNL     1       4.881   3.929  19.795  0.00  0.00    +0.000 NA
ATOM      3  C   UNL     1       3.548   3.657  19.965  0.00  0.00    +0.000 A 
ATOM      4  C   UNL     1       2.928   2.706  20.789  0.00  0.00    +0.000 A 
ATOM      5  C   UNL     1       1.532   2.597  20.769  0.00  0.00    +0.000 A 
ATOM      6  C   UNL     1       0.767   3.425  19.946  0.00  0.00    +0.000 A 
ATOM      7  C   UNL     1       1.365   4.394  19.134  0.00  0.00    +0.000 A 
ATOM      8  C   UNL     1       2.764   4.482  19.165  0.00  0.00    +0.000 A 
ATOM      9  N   UNL     1       3.676   5.285  18.511  0.00  0.00    +0.000 N 
ENDROOT
BRANCH   1  10
ATOM     10  C   UNL     1       6.202   5.444  18.311  0.00  0.00    +0.000 C 
BRANCH  10  13
ATOM     11  O   UNL     1       6.058   6.856  15.913  0.00  0.00    +0.000 OA
ATOM     12  C   UNL     1       6.286   5.650  15.857  0.00  0.00    +0.000 C 
ATOM     13  N   UNL     1       6.416   4.884  16.993  0.00  0.00    +0.000 N 
ATOM     14  H   UNL     1       6.631   3.900  16.960  0.00  0.00    +0.000 HD
BRANCH  12  15
ATOM     15  C   UNL     1       6.454   4.992  14.526  0.00  0.00    +0.000 A 
ATOM     16  C   UNL     1       5.433   4.119  14.109  0.00  0.00    +0.000 A 
ATOM     17  C   UNL     1       5.509   3.462  12.881  0.00  0.00    +0.000 A 
ATOM     18  C   UNL     1       6.609   3.668  12.053  0.00  0.00    +0.000 A 
ATOM     19  C   UNL     1       7.631   4.529  12.454  0.00  0.00    +0.000 A 
ATOM     20  C   UNL     1       7.556   5.191  13.686  0.00  0.00    +0.000 A 
ENDBRANCH  12  15
ENDBRANCH  10  13
ENDBRANCH   1  10
BRANCH   9  21
ATOM     21  C   UNL     1       3.341   6.450  17.702  0.00  0.00    +0.000 C 
BRANCH  21  22
ATOM     22  C   UNL     1       2.409   7.442  18.359  0.00  0.00    +0.000 A 
ATOM     23  C   UNL     1       1.751   8.386  17.551  0.00  0.00    +0.000 A 
ATOM     24  C   UNL     1       1.007   9.425  18.117  0.00  0.00    +0.000 A 
ATOM     25  C   UNL     1       0.911   9.537  19.503  0.00  0.00    +0.000 A 
ATOM     26  C   UNL     1       1.538   8.596  20.314  0.00  0.00    +0.000 A 
ATOM     27 CL   UNL     1       1.429   8.736  22.026  0.00  0.00    +0.000 Cl
ATOM     28  C   UNL     1       2.280   7.555  19.752  0.00  0.00    +0.000 A 
ENDBRANCH  21  22
ENDBRANCH   9  21
TORSDOF 5
ENDMDL
MODEL 7
REMARK VINA RESULT:      -9.3      1.122      1.207
REMARK  Name = 
REMARK  5 active torsions:
REMARK  status: ('A' for Active; 'I' for Inactive)
REMARK    1  A    between atoms: C_2  and  C_22
REMARK    2  A    between atoms: N_3  and  C_4
REMARK    3  A    between atoms: C_4  and  C_5
REMARK    4  A    between atoms: N_13  and  C_14
REMARK    5  A    between atoms: C_14  and  C_15
REMARK                            x       y       z     vdW  Elec       q    Type
REMARK                         _______ _______ _______ _____ _____    ______ ____
ROOT
ATOM      1  C   UNL     1       4.695   4.133  18.481  0.00  0.00    +0.000 A 
ATOM      2  N   UNL     1       4.298   2.903  18.204  0.00  0.00    +0.000 NA
ATOM      3  C   UNL     1       2.993   2.826  18.619  0.00  0.00    +0.000 A 
ATOM      4  C   UNL     1       2.088   1.759  18.529  0.00  0.00    +0.000 A 
ATOM      5  C   UNL     1       0.783   1.934  19.004  0.00  0.00    +0.000 A 
ATOM      6  C   UNL     1       0.387   3.150  19.564  0.00  0.00    +0.000 A 
ATOM      7  C   UNL     1       1.282   4.218  19.683  0.00  0.00    +0.000 A 
ATOM      8  C   UNL     1       2.582   4.024  19.195  0.00  0.00    +0.000 A 
ATOM      9  N   UNL     1       3.700   4.831  19.134  0.00  0.00    +0.000 N 
ENDROOT
BRANCH   1  10
ATOM     10  C   UNL     1       6.028   4.703  18.130  0.00  0.00    +0.000 C 
BRANCH  10  13
ATOM     11  O   UNL     1       5.502   6.244  15.867  0.00  0.00    +0.000 OA
ATOM     12  C   UNL     1       6.024   5.143  15.705  0.00  0.00    +0.000 C 
ATOM     13  N   UNL     1       6.356   4.335  16.768  0.00  0.00    +0.000 N 
ATOM     14  H   UNL     1       6.810   3.443  16.649  0.00  0.00    +0.000 HD
BRANCH  12  15
ATOM     15  C   UNL     1       6.332   4.670  14.321  0.00  0.00    +0.000 A 
ATOM     16  C   UNL     1       7.439   5.250  13.677  0.00  0.00    +0.000 A 
ATOM     17  C   UNL     1       7.797   4.869  12.384  0.00  0.00    +0.000 A 
ATOM     18  C   UNL     1       7.051   3.901  11.716  0.00  0.00    +0.000 A 
ATOM     19  C   UNL     1       5.949   3.319  12.342  0.00  0.00    +0.000 A 
ATOM     20  C   UNL     1       5.588   3.699  13.640  0.00  0.00    +0.000 A 
ENDBRANCH  12  15
ENDBRANCH  10  13
ENDBRANCH   1  10
BRANCH   9  21
ATOM     21  C   UNL     1       3.837   6.127  19.787  0.00  0.00    +0.000 C 
BRANCH  21  22
ATOM     22  C   UNL     1       2.829   7.169  19.363  0.00  0.00    +0.000 A 
ATOM     23  C   UNL     1       2.885   7.668  18.050  0.00  0.00    +0.000 A 
ATOM     24  C   UNL     1       2.087   8.744  17.652  0.00  0.00    +0.000 A 
ATOM     25  C   UNL     1       1.218   9.340  18.564  0.00  0.00    +0.000 A 
ATOM     26  C   UNL     1       1.134   8.841  19.860  0.00  0.00    +0.000 A 
ATOM     27 CL   UNL     1       0.069   9.580  20.993  0.00  0.00    +0.000 Cl
ATOM     28  C   UNL     1       1.929   7.765  20.261  0.00  0.00    +0.000 A 
ENDBRANCH  21  22
ENDBRANCH   9  21
TORSDOF 5
ENDMDL
MODEL 8
REMARK VINA RESULT:      -9.1      2.984      7.053
REMARK  Name = 
REMARK  5 active torsions:
REMARK  status: ('A' for Active; 'I' for Inactive)
REMARK    1  A    between atoms: C_2  and  C_22
REMARK    2  A    between atoms: N_3  and  C_4
REMARK    3  A    between atoms: C_4  and  C_5
REMARK    4  A    between atoms: N_13  and  C_14
REMARK    5  A    between atoms: C_14  and  C_15
REMARK                            x       y       z     vdW  Elec       q    Type
REMARK                         _______ _______ _______ _____ _____    ______ ____
ROOT
ATOM      1  C   UNL     1       2.226   6.584  19.715  0.00  0.00    +0.000 A 
ATOM      2  N   UNL     1       1.529   5.876  20.588  0.00  0.00    +0.000 NA
ATOM      3  C   UNL     1       1.657   4.567  20.197  0.00  0.00    +0.000 A 
ATOM      4  C   UNL     1       1.149   3.404  20.792  0.00  0.00    +0.000 A 
ATOM      5  C   UNL     1       1.442   2.162  20.215  0.00  0.00    +0.000 A 
ATOM      6  C   UNL     1       2.225   2.081  19.062  0.00  0.00    +0.000 A 
ATOM      7  C   UNL     1       2.722   3.232  18.442  0.00  0.00    +0.000 A 
ATOM      8  C   UNL     1       2.422   4.464  19.039  0.00  0.00    +0.000 A 
ATOM      9  N   UNL     1       2.740   5.770  18.726  0.00  0.00    +0.000 N 
ENDROOT
BRANCH   1  10
ATOM     10  C   UNL     1       2.444   8.058  19.786  0.00  0.00    +0.000 C 
BRANCH  10  13
ATOM     11  O   UNL     1       1.801   9.560  17.528  0.00  0.00    +0.000 OA
ATOM     12  C   UNL     1       0.967   9.487  18.428  0.00  0.00    +0.000 C 
ATOM     13  N   UNL     1       1.184   8.734  19.558  0.00  0.00    +0.000 N 
ATOM     14  H   UNL     1       0.496   8.645  20.289  0.00  0.00    +0.000 HD
BRANCH  12  15
ATOM     15  C   UNL     1      -0.332  10.214  18.288  0.00  0.00    +0.000 A 
ATOM     16  C   UNL     1      -0.518  11.354  19.090  0.00  0.00    +0.000 A 
ATOM     17  C   UNL     1      -1.700  12.090  19.025  0.00  0.00    +0.000 A 
ATOM     18  C   UNL     1      -2.715  11.696  18.157  0.00  0.00    +0.000 A 
ATOM     19  C   UNL     1      -2.545  10.566  17.357  0.00  0.00    +0.000 A 
ATOM     20  C   UNL     1      -1.359   9.825  17.420  0.00  0.00    +0.000 A 
ENDBRANCH  12  15
ENDBRANCH  10  13
ENDBRANCH   1  10
BRANCH   9  21
ATOM     21  C   UNL     1       3.369   6.207  17.486  0.00  0.00    +0.000 C 
BRANCH  21  22
ATOM     22  C   UNL     1       4.800   5.759  17.300  0.00  0.00    +0.000 A 
ATOM     23  C   UNL     1       5.121   4.976  16.177  0.00  0.00    +0.000 A 
ATOM     24  C   UNL     1       6.386   4.399  16.038  0.00  0.00    +0.000 A 
ATOM     25  C   UNL     1       7.353   4.596  17.022  0.00  0.00    +0.000 A 
ATOM     26  C   UNL     1       7.056   5.388  18.127  0.00  0.00    +0.000 A 
ATOM     27 CL   UNL     1       8.244   5.627  19.350  0.00  0.00    +0.000 Cl
ATOM     28  C   UNL     1       5.794   5.968  18.269  0.00  0.00    +0.000 A 
ENDBRANCH  21  22
ENDBRANCH   9  21
TORSDOF 5
ENDMDL
MODEL 9
REMARK VINA RESULT:      -9.1      3.240      7.873
REMARK  Name = 
REMARK  5 active torsions:
REMARK  status: ('A' for Active; 'I' for Inactive)
REMARK    1  A    between atoms: C_2  and  C_22
REMARK    2  A    between atoms: N_3  and  C_4
REMARK    3  A    between atoms: C_4  and  C_5
REMARK    4  A    between atoms: N_13  and  C_14
REMARK    5  A    between atoms: C_14  and  C_15
REMARK                            x       y       z     vdW  Elec       q    Type
REMARK                         _______ _______ _______ _____ _____    ______ ____
ROOT
ATOM      1  C   UNL     1       2.261   6.526  19.588  0.00  0.00    +0.000 A 
ATOM      2  N   UNL     1       1.773   6.007  20.702  0.00  0.00    +0.000 NA
ATOM      3  C   UNL     1       2.179   4.697  20.715  0.00  0.00    +0.000 A 
ATOM      4  C   UNL     1       1.967   3.706  21.685  0.00  0.00    +0.000 A 
ATOM      5  C   UNL     1       2.513   2.433  21.485  0.00  0.00    +0.000 A 
ATOM      6  C   UNL     1       3.254   2.149  20.336  0.00  0.00    +0.000 A 
ATOM      7  C   UNL     1       3.457   3.118  19.348  0.00  0.00    +0.000 A 
ATOM      8  C   UNL     1       2.907   4.388  19.571  0.00  0.00    +0.000 A 
ATOM      9  N   UNL     1       2.911   5.562  18.845  0.00  0.00    +0.000 N 
ENDROOT
BRANCH   1  10
ATOM     10  C   UNL     1       2.143   7.958  19.186  0.00  0.00    +0.000 C 
BRANCH  10  13
ATOM     11  O   UNL     1       0.348  10.015  18.624  0.00  0.00    +0.000 OA
ATOM     12  C   UNL     1       0.503   9.691  19.800  0.00  0.00    +0.000 C 
ATOM     13  N   UNL     1       1.337   8.659  20.163  0.00  0.00    +0.000 N 
ATOM     14  H   UNL     1       1.450   8.367  21.121  0.00  0.00    +0.000 HD
BRANCH  12  15
ATOM     15  C   UNL     1      -0.249  10.416  20.869  0.00  0.00    +0.000 A 
ATOM     16  C   UNL     1      -0.286   9.821  22.142  0.00  0.00    +0.000 A 
ATOM     17  C   UNL     1      -0.966  10.428  23.198  0.00  0.00    +0.000 A 
ATOM     18  C   UNL     1      -1.621  11.640  22.993  0.00  0.00    +0.000 A 
ATOM     19  C   UNL     1      -1.595  12.241  21.735  0.00  0.00    +0.000 A 
ATOM     20  C   UNL     1      -0.912  11.633  20.674  0.00  0.00    +0.000 A 
ENDBRANCH  12  15
ENDBRANCH  10  13
ENDBRANCH   1  10
BRANCH   9  21
ATOM     21  C   UNL     1       3.383   5.699  17.473  0.00  0.00    +0.000 C 
BRANCH  21  22
ATOM     22  C   UNL     1       4.857   5.435  17.271  0.00  0.00    +0.000 A 
ATOM     23  C   UNL     1       5.262   4.697  16.145  0.00  0.00    +0.000 A 
ATOM     24  C   UNL     1       6.589   4.285  15.992  0.00  0.00    +0.000 A 
ATOM     25  C   UNL     1       7.533   4.604  16.966  0.00  0.00    +0.000 A 
ATOM     26  C   UNL     1       7.151   5.353  18.074  0.00  0.00    +0.000 A 
ATOM     27 CL   UNL     1       8.312   5.741  19.284  0.00  0.00    +0.000 Cl
ATOM     28  C   UNL     1       5.827   5.769  18.230  0.00  0.00    +0.000 A 
ENDBRANCH  21  22
ENDBRANCH   9  21
TORSDOF 5
ENDMDL
