MODEL 1
REMARK VINA RESULT:      -8.5      0.000      0.000
REMARK  Name = 
REMARK  6 active torsions:
REMARK  status: ('A' for Active; 'I' for Inactive)
REMARK    1  A    between atoms: C_2  and  C_13
REMARK    2  A    between atoms: N_3  and  C_4
REMARK    3  A    between atoms: C_7  and  N_8
REMARK    4  A    between atoms: C_13  and  C_14
REMARK    5  A    between atoms: C_13  and  N_21
REMARK    6  A    between atoms: C_14  and  C_15
REMARK                            x       y       z     vdW  Elec       q    Type
REMARK                         _______ _______ _______ _____ _____    ______ ____
ROOT
ATOM      1  C   UNL     1       2.652   6.323  18.933  0.00  0.00    +0.000 C 
ENDROOT
BRANCH   1   2
ATOM      2  N   UNL     1       1.748   5.182  19.210  0.00  0.00    +0.000 N 
ATOM      3  C   UNL     1       2.166   4.447  20.302  0.00  0.00    +0.000 C 
ATOM      4  O   UNL     1       2.257   4.800  21.464  0.00  0.00    +0.000 OA
ATOM      5  C   UNL     1       2.740   3.216  19.793  0.00  0.00    +0.000 A 
ATOM      6  C   UNL     1       3.779   2.479  20.321  0.00  0.00    +0.000 A 
ATOM      7  C   UNL     1       4.410   1.578  19.466  0.00  0.00    +0.000 A 
ATOM      8  C   UNL     1       3.972   1.413  18.134  0.00  0.00    +0.000 A 
ATOM      9  C   UNL     1       2.917   2.181  17.624  0.00  0.00    +0.000 A 
ATOM     10  C   UNL     1       2.346   3.097  18.479  0.00  0.00    +0.000 A 
ATOM     11  C   UNL     1       1.553   4.281  18.177  0.00  0.00    +0.000 C 
ATOM     12  O   UNL     1       0.897   4.399  17.160  0.00  0.00    +0.000 OA
ENDBRANCH   1   2
BRANCH   1  14
ATOM     13  O   UNL     1       1.842   7.997  20.482  0.00  0.00    +0.000 OA
ATOM     14  C   UNL     1       2.167   7.740  19.317  0.00  0.00    +0.000 C 
ATOM     15  N   UNL     1       1.889   8.600  18.265  0.00  0.00    +0.000 N 
ATOM     16  H   UNL     1       2.009   8.251  17.315  0.00  0.00    +0.000 HD
BRANCH  15  17
ATOM     17  C   UNL     1       1.263   9.858  18.400  0.00  0.00    +0.000 A 
ATOM     18  C   UNL     1       1.992  11.042  18.542  0.00  0.00    +0.000 A 
ATOM     19  C   UNL     1       1.346  12.266  18.736  0.00  0.00    +0.000 A 
ATOM     20  C   UNL     1      -0.048  12.299  18.787  0.00  0.00    +0.000 A 
ATOM     21  C   UNL     1      -0.798  11.127  18.615  0.00  0.00    +0.000 A 
ATOM     22  C   UNL     1      -0.137   9.910  18.403  0.00  0.00    +0.000 A 
BRANCH  20  23
ATOM     23  N   UNL     1      -0.725  13.578  19.032  0.00  0.00    +0.000 N 
ATOM     24  O   UNL     1      -1.691  13.581  19.809  0.00  0.00    +0.000 OA
ATOM     25  O   UNL     1      -0.293  14.580  18.443  0.00  0.00    +0.000 OA
ENDBRANCH  20  23
ENDBRANCH  15  17
ENDBRANCH   1  14
BRANCH   1  26
ATOM     26  C   UNL     1       3.377   6.329  17.561  0.00  0.00    +0.000 C 
BRANCH  26  27
ATOM     27  C   UNL     1       4.704   5.633  17.378  0.00  0.00    +0.000 A 
ATOM     28  C   UNL     1       5.180   5.182  16.145  0.00  0.00    +0.000 A 
ATOM     29  C   UNL     1       6.459   4.626  16.041  0.00  0.00    +0.000 A 
ATOM     30  C   UNL     1       7.261   4.502  17.173  0.00  0.00    +0.000 A 
ATOM     31  C   UNL     1       6.790   4.908  18.414  0.00  0.00    +0.000 A 
ATOM     32  C   UNL     1       5.511   5.473  18.516  0.00  0.00    +0.000 A 
ENDBRANCH  26  27
ENDBRANCH   1  26
TORSDOF 6
ENDMDL
MODEL 2
REMARK VINA RESULT:      -8.4      0.094      1.033
REMARK  Name = 
REMARK  6 active torsions:
REMARK  status: ('A' for Active; 'I' for Inactive)
REMARK    1  A    between atoms: C_2  and  C_13
REMARK    2  A    between atoms: N_3  and  C_4
REMARK    3  A    between atoms: C_7  and  N_8
REMARK    4  A    between atoms: C_13  and  C_14
REMARK    5  A    between atoms: C_13  and  N_21
REMARK    6  A    between atoms: C_14  and  C_15
REMARK                            x       y       z     vdW  Elec       q    Type
REMARK                         _______ _______ _______ _____ _____    ______ ____
ROOT
ATOM      1  C   UNL     1       2.653   6.370  18.959  0.00  0.00    +0.000 C 
ENDROOT
BRANCH   1   2
ATOM      2  N   UNL     1       1.754   5.221  19.218  0.00  0.00    +0.000 N 
ATOM      3  C   UNL     1       2.173   4.474  20.302  0.00  0.00    +0.000 C 
ATOM      4  O   UNL     1       2.258   4.813  21.469  0.00  0.00    +0.000 OA
ATOM      5  C   UNL     1       2.756   3.253  19.780  0.00  0.00    +0.000 A 
ATOM      6  C   UNL     1       3.798   2.516  20.301  0.00  0.00    +0.000 A 
ATOM      7  C   UNL     1       4.436   1.629  19.437  0.00  0.00    +0.000 A 
ATOM      8  C   UNL     1       4.003   1.479  18.101  0.00  0.00    +0.000 A 
ATOM      9  C   UNL     1       2.946   2.247  17.598  0.00  0.00    +0.000 A 
ATOM     10  C   UNL     1       2.367   3.148  18.462  0.00  0.00    +0.000 A 
ATOM     11  C   UNL     1       1.568   4.332  18.174  0.00  0.00    +0.000 C 
ATOM     12  O   UNL     1       0.915   4.459  17.156  0.00  0.00    +0.000 OA
ENDBRANCH   1   2
BRANCH   1  14
ATOM     13  O   UNL     1       1.797   8.020  20.509  0.00  0.00    +0.000 OA
ATOM     14  C   UNL     1       2.153   7.781  19.349  0.00  0.00    +0.000 C 
ATOM     15  N   UNL     1       1.901   8.655  18.302  0.00  0.00    +0.000 N 
ATOM     16  H   UNL     1       2.047   8.319  17.351  0.00  0.00    +0.000 HD
BRANCH  15  17
ATOM     17  C   UNL     1       1.268   9.908  18.437  0.00  0.00    +0.000 A 
ATOM     18  C   UNL     1       1.990  11.102  18.526  0.00  0.00    +0.000 A 
ATOM     19  C   UNL     1       1.340  12.323  18.721  0.00  0.00    +0.000 A 
ATOM     20  C   UNL     1      -0.051  12.345  18.829  0.00  0.00    +0.000 A 
ATOM     21  C   UNL     1      -0.795  11.162  18.712  0.00  0.00    +0.000 A 
ATOM     22  C   UNL     1      -0.132   9.947  18.497  0.00  0.00    +0.000 A 
BRANCH  20  23
ATOM     23  N   UNL     1      -0.731  13.622  19.077  0.00  0.00    +0.000 N 
ATOM     24  O   UNL     1      -0.284  14.633  18.517  0.00  0.00    +0.000 OA
ATOM     25  O   UNL     1      -1.711  13.614  19.837  0.00  0.00    +0.000 OA
ENDBRANCH  20  23
ENDBRANCH  15  17
ENDBRANCH   1  14
BRANCH   1  26
ATOM     26  C   UNL     1       3.390   6.392  17.594  0.00  0.00    +0.000 C 
BRANCH  26  27
ATOM     27  C   UNL     1       4.756   5.769  17.436  0.00  0.00    +0.000 A 
ATOM     28  C   UNL     1       5.625   5.524  18.501  0.00  0.00    +0.000 A 
ATOM     29  C   UNL     1       6.837   4.862  18.287  0.00  0.00    +0.000 A 
ATOM     30  C   UNL     1       7.196   4.457  17.004  0.00  0.00    +0.000 A 
ATOM     31  C   UNL     1       6.363   4.727  15.926  0.00  0.00    +0.000 A 
ATOM     32  C   UNL     1       5.144   5.383  16.143  0.00  0.00    +0.000 A 
ENDBRANCH  26  27
ENDBRANCH   1  26
TORSDOF 6
ENDMDL
MODEL 3
REMARK VINA RESULT:      -8.3      0.230      1.046
REMARK  Name = 
REMARK  6 active torsions:
REMARK  status: ('A' for Active; 'I' for Inactive)
REMARK    1  A    between atoms: C_2  and  C_13
REMARK    2  A    between atoms: N_3  and  C_4
REMARK    3  A    between atoms: C_7  and  N_8
REMARK    4  A    between atoms: C_13  and  C_14
REMARK    5  A    between atoms: C_13  and  N_21
REMARK    6  A    between atoms: C_14  and  C_15
REMARK                            x       y       z     vdW  Elec       q    Type
REMARK                         _______ _______ _______ _____ _____    ______ ____
ROOT
ATOM      1  C   UNL     1       2.630   6.349  19.079  0.00  0.00    +0.000 C 
ENDROOT
BRANCH   1   2
ATOM      2  N   UNL     1       1.739   5.183  19.288  0.00  0.00    +0.000 N 
ATOM      3  C   UNL     1       2.153   4.402  20.349  0.00  0.00    +0.000 C 
ATOM      4  O   UNL     1       2.223   4.700  21.529  0.00  0.00    +0.000 OA
ATOM      5  C   UNL     1       2.753   3.205  19.790  0.00  0.00    +0.000 A 
ATOM      6  C   UNL     1       3.796   2.459  20.296  0.00  0.00    +0.000 A 
ATOM      7  C   UNL     1       4.451   1.609  19.408  0.00  0.00    +0.000 A 
ATOM      8  C   UNL     1       4.034   1.502  18.064  0.00  0.00    +0.000 A 
ATOM      9  C   UNL     1       2.975   2.278  17.576  0.00  0.00    +0.000 A 
ATOM     10  C   UNL     1       2.378   3.144  18.466  0.00  0.00    +0.000 A 
ATOM     11  C   UNL     1       1.572   4.329  18.211  0.00  0.00    +0.000 C 
ATOM     12  O   UNL     1       0.928   4.487  17.191  0.00  0.00    +0.000 OA
ENDBRANCH   1   2
BRANCH   1  14
ATOM     13  O   UNL     1       1.826   7.926  20.730  0.00  0.00    +0.000 OA
ATOM     14  C   UNL     1       2.128   7.735  19.546  0.00  0.00    +0.000 C 
ATOM     15  N   UNL     1       1.810   8.641  18.545  0.00  0.00    +0.000 N 
ATOM     16  H   UNL     1       1.914   8.343  17.576  0.00  0.00    +0.000 HD
BRANCH  15  17
ATOM     17  C   UNL     1       1.165   9.878  18.758  0.00  0.00    +0.000 A 
ATOM     18  C   UNL     1      -0.188   9.964  19.100  0.00  0.00    +0.000 A 
ATOM     19  C   UNL     1      -0.816  11.204  19.245  0.00  0.00    +0.000 A 
ATOM     20  C   UNL     1      -0.076  12.370  19.043  0.00  0.00    +0.000 A 
ATOM     21  C   UNL     1       1.289  12.304  18.731  0.00  0.00    +0.000 A 
ATOM     22  C   UNL     1       1.911  11.055  18.608  0.00  0.00    +0.000 A 
BRANCH  20  23
ATOM     23  N   UNL     1      -0.746  13.672  19.154  0.00  0.00    +0.000 N 
ATOM     24  O   UNL     1      -0.315  14.603  18.460  0.00  0.00    +0.000 OA
ATOM     25  O   UNL     1      -1.700  13.762  19.940  0.00  0.00    +0.000 OA
ENDBRANCH  20  23
ENDBRANCH  15  17
ENDBRANCH   1  14
BRANCH   1  26
ATOM     26  C   UNL     1       3.354   6.444  17.710  0.00  0.00    +0.000 C 
BRANCH  26  27
ATOM     27  C   UNL     1       4.643   5.700  17.457  0.00  0.00    +0.000 A 
ATOM     28  C   UNL     1       5.041   5.240  16.200  0.00  0.00    +0.000 A 
ATOM     29  C   UNL     1       6.290   4.638  16.029  0.00  0.00    +0.000 A 
ATOM     30  C   UNL     1       7.143   4.476  17.119  0.00  0.00    +0.000 A 
ATOM     31  C   UNL     1       6.749   4.891  18.384  0.00  0.00    +0.000 A 
ATOM     32  C   UNL     1       5.499   5.502  18.553  0.00  0.00    +0.000 A 
ENDBRANCH  26  27
ENDBRANCH   1  26
TORSDOF 6
ENDMDL
MODEL 4
REMARK VINA RESULT:      -8.1      1.127      1.418
REMARK  Name = 
REMARK  6 active torsions:
REMARK  status: ('A' for Active; 'I' for Inactive)
REMARK    1  A    between atoms: C_2  and  C_13
REMARK    2  A    between atoms: N_3  and  C_4
REMARK    3  A    between atoms: C_7  and  N_8
REMARK    4  A    between atoms: C_13  and  C_14
REMARK    5  A    between atoms: C_13  and  N_21
REMARK    6  A    between atoms: C_14  and  C_15
REMARK                            x       y       z     vdW  Elec       q    Type
REMARK                         _______ _______ _______ _____ _____    ______ ____
ROOT
ATOM      1  C   UNL     1       2.693   6.437  18.559  0.00  0.00    +0.000 C 
ENDROOT
BRANCH   1   2
ATOM      2  N   UNL     1       1.750   5.367  18.960  0.00  0.00    +0.000 N 
ATOM      3  C   UNL     1       2.131   4.761  20.141  0.00  0.00    +0.000 C 
ATOM      4  O   UNL     1       2.219   5.253  21.253  0.00  0.00    +0.000 OA
ATOM      5  C   UNL     1       2.673   3.460  19.798  0.00  0.00    +0.000 A 
ATOM      6  C   UNL     1       3.682   2.764  20.429  0.00  0.00    +0.000 A 
ATOM      7  C   UNL     1       4.294   1.745  19.702  0.00  0.00    +0.000 A 
ATOM      8  C   UNL     1       3.867   1.429  18.394  0.00  0.00    +0.000 A 
ATOM      9  C   UNL     1       2.843   2.158  17.776  0.00  0.00    +0.000 A 
ATOM     10  C   UNL     1       2.291   3.190  18.502  0.00  0.00    +0.000 A 
ATOM     11  C   UNL     1       1.540   4.351  18.044  0.00  0.00    +0.000 C 
ATOM     12  O   UNL     1       0.900   4.361  17.010  0.00  0.00    +0.000 OA
ENDBRANCH   1   2
BRANCH   1  14
ATOM     13  O   UNL     1       2.580   8.559  17.399  0.00  0.00    +0.000 OA
ATOM     14  C   UNL     1       2.116   7.848  18.299  0.00  0.00    +0.000 C 
ATOM     15  N   UNL     1       1.252   8.345  19.263  0.00  0.00    +0.000 N 
ATOM     16  H   UNL     1       1.057   7.766  20.079  0.00  0.00    +0.000 HD
BRANCH  15  17
ATOM     17  C   UNL     1       0.772   9.671  19.304  0.00  0.00    +0.000 A 
ATOM     18  C   UNL     1      -0.193  10.144  18.409  0.00  0.00    +0.000 A 
ATOM     19  C   UNL     1      -0.604  11.479  18.434  0.00  0.00    +0.000 A 
ATOM     20  C   UNL     1      -0.041  12.348  19.367  0.00  0.00    +0.000 A 
ATOM     21  C   UNL     1       0.905  11.886  20.294  0.00  0.00    +0.000 A 
ATOM     22  C   UNL     1       1.295  10.541  20.271  0.00  0.00    +0.000 A 
BRANCH  20  23
ATOM     23  N   UNL     1      -0.442  13.761  19.366  0.00  0.00    +0.000 N 
ATOM     24  O   UNL     1      -1.416  14.085  20.059  0.00  0.00    +0.000 OA
ATOM     25  O   UNL     1       0.216  14.544  18.666  0.00  0.00    +0.000 OA
ENDBRANCH  20  23
ENDBRANCH  15  17
ENDBRANCH   1  14
BRANCH   1  26
ATOM     26  C   UNL     1       3.770   6.067  17.506  0.00  0.00    +0.000 C 
BRANCH  26  27
ATOM     27  C   UNL     1       5.242   6.185  17.822  0.00  0.00    +0.000 A 
ATOM     28  C   UNL     1       6.114   7.042  17.148  0.00  0.00    +0.000 A 
ATOM     29  C   UNL     1       7.445   7.161  17.557  0.00  0.00    +0.000 A 
ATOM     30  C   UNL     1       7.917   6.409  18.631  0.00  0.00    +0.000 A 
ATOM     31  C   UNL     1       7.075   5.522  19.288  0.00  0.00    +0.000 A 
ATOM     32  C   UNL     1       5.738   5.410  18.883  0.00  0.00    +0.000 A 
ENDBRANCH  26  27
ENDBRANCH   1  26
TORSDOF 6
ENDMDL
MODEL 5
REMARK VINA RESULT:      -8.1      2.284      3.810
REMARK  Name = 
REMARK  6 active torsions:
REMARK  status: ('A' for Active; 'I' for Inactive)
REMARK    1  A    between atoms: C_2  and  C_13
REMARK    2  A    between atoms: N_3  and  C_4
REMARK    3  A    between atoms: C_7  and  N_8
REMARK    4  A    between atoms: C_13  and  C_14
REMARK    5  A    between atoms: C_13  and  N_21
REMARK    6  A    between atoms: C_14  and  C_15
REMARK                            x       y       z     vdW  Elec       q    Type
REMARK                         _______ _______ _______ _____ _____    ______ ____
ROOT
ATOM      1  C   UNL     1       4.579   3.991  17.561  0.00  0.00    +0.000 C 
ENDROOT
BRANCH   1   2
ATOM      2  N   UNL     1       4.200   2.659  18.089  0.00  0.00    +0.000 N 
ATOM      3  C   UNL     1       2.893   2.336  17.784  0.00  0.00    +0.000 C 
ATOM      4  O   UNL     1       2.389   2.167  16.687  0.00  0.00    +0.000 OA
ATOM      5  C   UNL     1       2.122   2.480  19.004  0.00  0.00    +0.000 A 
ATOM      6  C   UNL     1       0.807   2.872  19.139  0.00  0.00    +0.000 A 
ATOM      7  C   UNL     1       0.409   3.318  20.398  0.00  0.00    +0.000 A 
ATOM      8  C   UNL     1       1.313   3.330  21.483  0.00  0.00    +0.000 A 
ATOM      9  C   UNL     1       2.645   2.931  21.313  0.00  0.00    +0.000 A 
ATOM     10  C   UNL     1       3.020   2.542  20.047  0.00  0.00    +0.000 A 
ATOM     11  C   UNL     1       4.347   2.468  19.452  0.00  0.00    +0.000 C 
ATOM     12  O   UNL     1       5.359   2.307  20.107  0.00  0.00    +0.000 OA
ENDBRANCH   1   2
BRANCH   1  14
ATOM     13  O   UNL     1       4.876   5.499  19.431  0.00  0.00    +0.000 OA
ATOM     14  C   UNL     1       4.227   5.232  18.412  0.00  0.00    +0.000 C 
ATOM     15  N   UNL     1       3.027   5.861  18.115  0.00  0.00    +0.000 N 
ATOM     16  H   UNL     1       2.451   5.469  17.371  0.00  0.00    +0.000 HD
BRANCH  15  17
ATOM     17  C   UNL     1       2.443   6.885  18.890  0.00  0.00    +0.000 A 
ATOM     18  C   UNL     1       2.070   6.690  20.223  0.00  0.00    +0.000 A 
ATOM     19  C   UNL     1       1.437   7.703  20.948  0.00  0.00    +0.000 A 
ATOM     20  C   UNL     1       1.176   8.924  20.327  0.00  0.00    +0.000 A 
ATOM     21  C   UNL     1       1.570   9.150  19.000  0.00  0.00    +0.000 A 
ATOM     22  C   UNL     1       2.221   8.132  18.291  0.00  0.00    +0.000 A 
BRANCH  20  23
ATOM     23  N   UNL     1       0.473   9.974  21.076  0.00  0.00    +0.000 N 
ATOM     24  O   UNL     1      -0.406  10.616  20.484  0.00  0.00    +0.000 OA
ATOM     25  O   UNL     1       0.805  10.158  22.256  0.00  0.00    +0.000 OA
ENDBRANCH  20  23
ENDBRANCH  15  17
ENDBRANCH   1  14
BRANCH   1  26
ATOM     26  C   UNL     1       4.318   4.249  16.054  0.00  0.00    +0.000 C 
BRANCH  26  27
ATOM     27  C   UNL     1       5.462   4.365  15.074  0.00  0.00    +0.000 A 
ATOM     28  C   UNL     1       5.471   3.759  13.817  0.00  0.00    +0.000 A 
ATOM     29  C   UNL     1       6.527   3.986  12.930  0.00  0.00    +0.000 A 
ATOM     30  C   UNL     1       7.590   4.805  13.303  0.00  0.00    +0.000 A 
ATOM     31  C   UNL     1       7.618   5.386  14.564  0.00  0.00    +0.000 A 
ATOM     32  C   UNL     1       6.554   5.164  15.449  0.00  0.00    +0.000 A 
ENDBRANCH  26  27
ENDBRANCH   1  26
TORSDOF 6
ENDMDL
MODEL 6
REMARK VINA RESULT:      -8.0      1.969      2.173
REMARK  Name = 
REMARK  6 active torsions:
REMARK  status: ('A' for Active; 'I' for Inactive)
REMARK    1  A    between atoms: C_2  and  C_13
REMARK    2  A    between atoms: N_3  and  C_4
REMARK    3  A    between atoms: C_7  and  N_8
REMARK    4  A    between atoms: C_13  and  C_14
REMARK    5  A    between atoms: C_13  and  N_21
REMARK    6  A    between atoms: C_14  and  C_15
REMARK                            x       y       z     vdW  Elec       q    Type
REMARK                         _______ _______ _______ _____ _____    ______ ____
ROOT
ATOM      1  C   UNL     1       2.509   6.283  19.128  0.00  0.00    +0.000 C 
ENDROOT
BRANCH   1   2
ATOM      2  N   UNL     1       1.674   5.079  19.351  0.00  0.00    +0.000 N 
ATOM      3  C   UNL     1       2.122   4.333  20.423  0.00  0.00    +0.000 C 
ATOM      4  O   UNL     1       2.176   4.649  21.599  0.00  0.00    +0.000 OA
ATOM      5  C   UNL     1       2.779   3.159  19.880  0.00  0.00    +0.000 A 
ATOM      6  C   UNL     1       3.855   2.469  20.397  0.00  0.00    +0.000 A 
ATOM      7  C   UNL     1       4.551   1.640  19.521  0.00  0.00    +0.000 A 
ATOM      8  C   UNL     1       4.141   1.496  18.177  0.00  0.00    +0.000 A 
ATOM      9  C   UNL     1       3.047   2.215  17.678  0.00  0.00    +0.000 A 
ATOM     10  C   UNL     1       2.410   3.063  18.556  0.00  0.00    +0.000 A 
ATOM     11  C   UNL     1       1.549   4.206  18.285  0.00  0.00    +0.000 C 
ATOM     12  O   UNL     1       0.899   4.320  17.263  0.00  0.00    +0.000 OA
ENDBRANCH   1   2
BRANCH   1  14
ATOM     13  O   UNL     1       2.260   8.679  18.883  0.00  0.00    +0.000 OA
ATOM     14  C   UNL     1       1.902   7.660  19.486  0.00  0.00    +0.000 C 
ATOM     15  N   UNL     1       1.148   7.715  20.649  0.00  0.00    +0.000 N 
ATOM     16  H   UNL     1       1.048   6.862  21.197  0.00  0.00    +0.000 HD
BRANCH  15  17
ATOM     17  C   UNL     1       0.672   8.904  21.241  0.00  0.00    +0.000 A 
ATOM     18  C   UNL     1       0.079   8.921  22.507  0.00  0.00    +0.000 A 
ATOM     19  C   UNL     1      -0.439  10.103  23.043  0.00  0.00    +0.000 A 
ATOM     20  C   UNL     1      -0.362  11.280  22.299  0.00  0.00    +0.000 A 
ATOM     21  C   UNL     1       0.256  11.289  21.040  0.00  0.00    +0.000 A 
ATOM     22  C   UNL     1       0.789  10.101  20.523  0.00  0.00    +0.000 A 
BRANCH  20  23
ATOM     23  N   UNL     1      -0.944  12.512  22.843  0.00  0.00    +0.000 N 
ATOM     24  O   UNL     1      -2.112  12.467  23.254  0.00  0.00    +0.000 OA
ATOM     25  O   UNL     1      -0.233  13.528  22.856  0.00  0.00    +0.000 OA
ENDBRANCH  20  23
ENDBRANCH  15  17
ENDBRANCH   1  14
BRANCH   1  26
ATOM     26  C   UNL     1       3.308   6.348  17.800  0.00  0.00    +0.000 C 
BRANCH  26  27
ATOM     27  C   UNL     1       4.638   5.649  17.656  0.00  0.00    +0.000 A 
ATOM     28  C   UNL     1       5.097   5.093  16.461  0.00  0.00    +0.000 A 
ATOM     29  C   UNL     1       6.379   4.539  16.385  0.00  0.00    +0.000 A 
ATOM     30  C   UNL     1       7.201   4.523  17.509  0.00  0.00    +0.000 A 
ATOM     31  C   UNL     1       6.748   5.036  18.717  0.00  0.00    +0.000 A 
ATOM     32  C   UNL     1       5.466   5.598  18.790  0.00  0.00    +0.000 A 
ENDBRANCH  26  27
ENDBRANCH   1  26
TORSDOF 6
ENDMDL
MODEL 7
REMARK VINA RESULT:      -8.0      2.809      9.198
REMARK  Name = 
REMARK  6 active torsions:
REMARK  status: ('A' for Active; 'I' for Inactive)
REMARK    1  A    between atoms: C_2  and  C_13
REMARK    2  A    between atoms: N_3  and  C_4
REMARK    3  A    between atoms: C_7  and  N_8
REMARK    4  A    between atoms: C_13  and  C_14
REMARK    5  A    between atoms: C_13  and  N_21
REMARK    6  A    between atoms: C_14  and  C_15
REMARK                            x       y       z     vdW  Elec       q    Type
REMARK                         _______ _______ _______ _____ _____    ______ ____
ROOT
ATOM      1  C   UNL     1       0.645   9.755  19.840  0.00  0.00    +0.000 C 
ENDROOT
BRANCH   1   2
ATOM      2  N   UNL     1       1.116  10.524  21.016  0.00  0.00    +0.000 N 
ATOM      3  C   UNL     1       0.384  10.233  22.149  0.00  0.00    +0.000 C 
ATOM      4  O   UNL     1       0.292   9.171  22.742  0.00  0.00    +0.000 OA
ATOM      5  C   UNL     1      -0.492  11.362  22.394  0.00  0.00    +0.000 A 
ATOM      6  C   UNL     1      -1.756  11.357  22.945  0.00  0.00    +0.000 A 
ATOM      7  C   UNL     1      -2.548  12.480  22.716  0.00  0.00    +0.000 A 
ATOM      8  C   UNL     1      -2.053  13.580  21.981  0.00  0.00    +0.000 A 
ATOM      9  C   UNL     1      -0.766  13.554  21.428  0.00  0.00    +0.000 A 
ATOM     10  C   UNL     1      -0.026  12.411  21.631  0.00  0.00    +0.000 A 
ATOM     11  C   UNL     1       1.122  11.903  20.893  0.00  0.00    +0.000 C 
ATOM     12  O   UNL     1       1.880  12.621  20.269  0.00  0.00    +0.000 OA
ENDBRANCH   1   2
BRANCH   1  14
ATOM     13  O   UNL     1       1.732   8.326  18.217  0.00  0.00    +0.000 OA
ATOM     14  C   UNL     1       1.465   8.517  19.410  0.00  0.00    +0.000 C 
ATOM     15  N   UNL     1       1.659   7.542  20.377  0.00  0.00    +0.000 N 
ATOM     16  H   UNL     1       1.247   7.691  21.298  0.00  0.00    +0.000 HD
BRANCH  15  17
ATOM     17  C   UNL     1       2.213   6.268  20.133  0.00  0.00    +0.000 A 
ATOM     18  C   UNL     1       1.598   5.091  20.573  0.00  0.00    +0.000 A 
ATOM     19  C   UNL     1       2.201   3.847  20.370  0.00  0.00    +0.000 A 
ATOM     20  C   UNL     1       3.433   3.784  19.720  0.00  0.00    +0.000 A 
ATOM     21  C   UNL     1       4.050   4.950  19.245  0.00  0.00    +0.000 A 
ATOM     22  C   UNL     1       3.426   6.189  19.437  0.00  0.00    +0.000 A 
BRANCH  20  23
ATOM     23  N   UNL     1       4.086   2.481  19.545  0.00  0.00    +0.000 N 
ATOM     24  O   UNL     1       3.712   1.769  18.602  0.00  0.00    +0.000 OA
ATOM     25  O   UNL     1       4.970   2.167  20.356  0.00  0.00    +0.000 OA
ENDBRANCH  20  23
ENDBRANCH  15  17
ENDBRANCH   1  14
BRANCH   1  26
ATOM     26  C   UNL     1       0.171  10.572  18.609  0.00  0.00    +0.000 C 
BRANCH  26  27
ATOM     27  C   UNL     1      -1.290  10.641  18.234  0.00  0.00    +0.000 A 
ATOM     28  C   UNL     1      -2.214  11.477  18.864  0.00  0.00    +0.000 A 
ATOM     29  C   UNL     1      -3.531  11.550  18.402  0.00  0.00    +0.000 A 
ATOM     30  C   UNL     1      -3.936  10.773  17.319  0.00  0.00    +0.000 A 
ATOM     31  C   UNL     1      -3.042   9.906  16.705  0.00  0.00    +0.000 A 
ATOM     32  C   UNL     1      -1.720   9.840  17.164  0.00  0.00    +0.000 A 
ENDBRANCH  26  27
ENDBRANCH   1  26
TORSDOF 6
ENDMDL
MODEL 8
REMARK VINA RESULT:      -8.0      1.939      2.349
REMARK  Name = 
REMARK  6 active torsions:
REMARK  status: ('A' for Active; 'I' for Inactive)
REMARK    1  A    between atoms: C_2  and  C_13
REMARK    2  A    between atoms: N_3  and  C_4
REMARK    3  A    between atoms: C_7  and  N_8
REMARK    4  A    between atoms: C_13  and  C_14
REMARK    5  A    between atoms: C_13  and  N_21
REMARK    6  A    between atoms: C_14  and  C_15
REMARK                            x       y       z     vdW  Elec       q    Type
REMARK                         _______ _______ _______ _____ _____    ______ ____
ROOT
ATOM      1  C   UNL     1       2.455   6.327  19.148  0.00  0.00    +0.000 C 
ENDROOT
BRANCH   1   2
ATOM      2  N   UNL     1       1.646   5.102  19.357  0.00  0.00    +0.000 N 
ATOM      3  C   UNL     1       2.105   4.357  20.424  0.00  0.00    +0.000 C 
ATOM      4  O   UNL     1       2.146   4.664  21.603  0.00  0.00    +0.000 OA
ATOM      5  C   UNL     1       2.791   3.203  19.875  0.00  0.00    +0.000 A 
ATOM      6  C   UNL     1       3.880   2.533  20.392  0.00  0.00    +0.000 A 
ATOM      7  C   UNL     1       4.599   1.727  19.513  0.00  0.00    +0.000 A 
ATOM      8  C   UNL     1       4.199   1.586  18.165  0.00  0.00    +0.000 A 
ATOM      9  C   UNL     1       3.093   2.284  17.667  0.00  0.00    +0.000 A 
ATOM     10  C   UNL     1       2.431   3.110  18.549  0.00  0.00    +0.000 A 
ATOM     11  C   UNL     1       1.546   4.235  18.283  0.00  0.00    +0.000 C 
ATOM     12  O   UNL     1       0.900   4.344  17.258  0.00  0.00    +0.000 OA
ENDBRANCH   1   2
BRANCH   1  14
ATOM     13  O   UNL     1       2.066   8.689  18.792  0.00  0.00    +0.000 OA
ATOM     14  C   UNL     1       1.798   7.690  19.469  0.00  0.00    +0.000 C 
ATOM     15  N   UNL     1       1.112   7.773  20.672  0.00  0.00    +0.000 N 
ATOM     16  H   UNL     1       1.089   6.948  21.270  0.00  0.00    +0.000 HD
BRANCH  15  17
ATOM     17  C   UNL     1       0.609   8.968  21.228  0.00  0.00    +0.000 A 
ATOM     18  C   UNL     1       0.010   9.009  22.490  0.00  0.00    +0.000 A 
ATOM     19  C   UNL     1      -0.535  10.194  22.990  0.00  0.00    +0.000 A 
ATOM     20  C   UNL     1      -0.477  11.352  22.213  0.00  0.00    +0.000 A 
ATOM     21  C   UNL     1       0.148  11.338  20.958  0.00  0.00    +0.000 A 
ATOM     22  C   UNL     1       0.707  10.147  20.477  0.00  0.00    +0.000 A 
BRANCH  20  23
ATOM     23  N   UNL     1      -1.086  12.587  22.721  0.00  0.00    +0.000 N 
ATOM     24  O   UNL     1      -0.366  13.365  23.362  0.00  0.00    +0.000 OA
ATOM     25  O   UNL     1      -2.287  12.776  22.480  0.00  0.00    +0.000 OA
ENDBRANCH  20  23
ENDBRANCH  15  17
ENDBRANCH   1  14
BRANCH   1  26
ATOM     26  C   UNL     1       3.297   6.400  17.848  0.00  0.00    +0.000 C 
BRANCH  26  27
ATOM     27  C   UNL     1       4.674   5.784  17.776  0.00  0.00    +0.000 A 
ATOM     28  C   UNL     1       5.510   5.621  18.882  0.00  0.00    +0.000 A 
ATOM     29  C   UNL     1       6.735   4.961  18.752  0.00  0.00    +0.000 A 
ATOM     30  C   UNL     1       7.139   4.476  17.510  0.00  0.00    +0.000 A 
ATOM     31  C   UNL     1       6.340   4.662  16.391  0.00  0.00    +0.000 A 
ATOM     32  C   UNL     1       5.108   5.317  16.525  0.00  0.00    +0.000 A 
ENDBRANCH  26  27
ENDBRANCH   1  26
TORSDOF 6
ENDMDL
MODEL 9
REMARK VINA RESULT:      -7.9      2.791      9.145
REMARK  Name = 
REMARK  6 active torsions:
REMARK  status: ('A' for Active; 'I' for Inactive)
REMARK    1  A    between atoms: C_2  and  C_13
REMARK    2  A    between atoms: N_3  and  C_4
REMARK    3  A    between atoms: C_7  and  N_8
REMARK    4  A    between atoms: C_13  and  C_14
REMARK    5  A    between atoms: C_13  and  N_21
REMARK    6  A    between atoms: C_14  and  C_15
REMARK                            x       y       z     vdW  Elec       q    Type
REMARK                         _______ _______ _______ _____ _____    ______ ____
ROOT
ATOM      1  C   UNL     1       0.620   9.869  19.844  0.00  0.00    +0.000 C 
ENDROOT
BRANCH   1   2
ATOM      2  N   UNL     1       1.051  10.612  21.052  0.00  0.00    +0.000 N 
ATOM      3  C   UNL     1       0.263  10.317  22.147  0.00  0.00    +0.000 C 
ATOM      4  O   UNL     1       0.125   9.250  22.718  0.00  0.00    +0.000 OA
ATOM      5  C   UNL     1      -0.603  11.460  22.370  0.00  0.00    +0.000 A 
ATOM      6  C   UNL     1      -1.891  11.470  22.862  0.00  0.00    +0.000 A 
ATOM      7  C   UNL     1      -2.651  12.610  22.615  0.00  0.00    +0.000 A 
ATOM      8  C   UNL     1      -2.103  13.711  21.921  0.00  0.00    +0.000 A 
ATOM      9  C   UNL     1      -0.793  13.670  21.426  0.00  0.00    +0.000 A 
ATOM     10  C   UNL     1      -0.084  12.510  21.645  0.00  0.00    +0.000 A 
ATOM     11  C   UNL     1       1.087  11.992  20.951  0.00  0.00    +0.000 C 
ATOM     12  O   UNL     1       1.886  12.705  20.373  0.00  0.00    +0.000 OA
ENDBRANCH   1   2
BRANCH   1  14
ATOM     13  O   UNL     1       1.686   8.451  18.197  0.00  0.00    +0.000 OA
ATOM     14  C   UNL     1       1.473   8.659  19.398  0.00  0.00    +0.000 C 
ATOM     15  N   UNL     1       1.760   7.716  20.374  0.00  0.00    +0.000 N 
ATOM     16  H   UNL     1       1.390   7.868  21.312  0.00  0.00    +0.000 HD
BRANCH  15  17
ATOM     17  C   UNL     1       2.357   6.462  20.128  0.00  0.00    +0.000 A 
ATOM     18  C   UNL     1       3.482   6.320  19.310  0.00  0.00    +0.000 A 
ATOM     19  C   UNL     1       4.016   5.058  19.035  0.00  0.00    +0.000 A 
ATOM     20  C   UNL     1       3.413   3.928  19.587  0.00  0.00    +0.000 A 
ATOM     21  C   UNL     1       2.303   4.053  20.435  0.00  0.00    +0.000 A 
ATOM     22  C   UNL     1       1.790   5.325  20.718  0.00  0.00    +0.000 A 
BRANCH  20  23
ATOM     23  N   UNL     1       3.948   2.600  19.264  0.00  0.00    +0.000 N 
ATOM     24  O   UNL     1       4.771   2.102  20.045  0.00  0.00    +0.000 OA
ATOM     25  O   UNL     1       3.548   2.056  18.224  0.00  0.00    +0.000 OA
ENDBRANCH  20  23
ENDBRANCH  15  17
ENDBRANCH   1  14
BRANCH   1  26
ATOM     26  C   UNL     1       0.159  10.713  18.627  0.00  0.00    +0.000 C 
BRANCH  26  27
ATOM     27  C   UNL     1      -1.281  10.705  18.173  0.00  0.00    +0.000 A 
ATOM     28  C   UNL     1      -1.775   9.861  17.177  0.00  0.00    +0.000 A 
ATOM     29  C   UNL     1      -3.140   9.848  16.874  0.00  0.00    +0.000 A 
ATOM     30  C   UNL     1      -4.014  10.694  17.552  0.00  0.00    +0.000 A 
ATOM     31  C   UNL     1      -3.536  11.569  18.518  0.00  0.00    +0.000 A 
ATOM     32  C   UNL     1      -2.169  11.574  18.828  0.00  0.00    +0.000 A 
ENDBRANCH  26  27
ENDBRANCH   1  26
TORSDOF 6
ENDMDL
