MODEL 1
REMARK VINA RESULT:      -8.1      0.000      0.000
REMARK  Name = 
REMARK  3 active torsions:
REMARK  status: ('A' for Active; 'I' for Inactive)
REMARK    1  A    between atoms: C_2  and  C_13
REMARK    2  A    between atoms: N_3  and  C_4
REMARK    3  A    between atoms: C_16  and  C_17
REMARK                            x       y       z     vdW  Elec       q    Type
REMARK                         _______ _______ _______ _____ _____    ______ ____
ROOT
ATOM      1  O   UNL     1       3.617   7.003  17.596  0.00  0.00    +0.000 OA
ATOM      2  C   UNL     1       2.625   7.026  18.327  0.00  0.00    +0.000 C 
ATOM      3  N   UNL     1       2.043   5.881  18.845  0.00  0.00    +0.000 N 
ATOM      4  H   UNL     1       1.119   5.978  19.253  0.00  0.00    +0.000 HD
ENDROOT
BRANCH   3   5
ATOM      5  C   UNL     1       2.540   4.563  18.636  0.00  0.00    +0.000 A 
ATOM      6  C   UNL     1       2.092   3.733  17.596  0.00  0.00    +0.000 A 
ATOM      7  C   UNL     1       2.557   2.420  17.464  0.00  0.00    +0.000 A 
ATOM      8  C   UNL     1       3.486   1.930  18.366  0.00  0.00    +0.000 A 
ATOM      9  F   UNL     1       3.910   0.665  18.246  0.00  0.00    +0.000 F 
ATOM     10  C   UNL     1       3.972   2.744  19.380  0.00  0.00    +0.000 A 
ATOM     11  F   UNL     1       4.877   2.261  20.245  0.00  0.00    +0.000 F 
ATOM     12  C   UNL     1       3.512   4.054  19.508  0.00  0.00    +0.000 A 
ATOM     13  F   UNL     1       3.978   4.825  20.502  0.00  0.00    +0.000 F 
ENDBRANCH   3   5
BRANCH   2  14
ATOM     14  C   UNL     1       1.990   8.297  18.617  0.00  0.00    +0.000 A 
ATOM     15  C   UNL     1       2.076   9.448  17.855  0.00  0.00    +0.000 A 
ATOM     16  C   UNL     1       1.372  10.447  18.539  0.00  0.00    +0.000 A 
ATOM     17  C   UNL     1       0.886   9.875  19.701  0.00  0.00    +0.000 A 
ATOM     18  O   UNL     1       1.249   8.545  19.750  0.00  0.00    +0.000 OA
BRANCH  17  19
ATOM     19  C   UNL     1       0.147  10.457  20.817  0.00  0.00    +0.000 A 
ATOM     20  C   UNL     1      -0.692  11.565  20.657  0.00  0.00    +0.000 A 
ATOM     21  C   UNL     1      -1.490  12.014  21.719  0.00  0.00    +0.000 A 
ATOM     22  C   UNL     1      -1.455  11.369  22.957  0.00  0.00    +0.000 A 
ATOM     23  C   UNL     1      -0.605  10.286  23.141  0.00  0.00    +0.000 A 
ATOM     24  C   UNL     1       0.184   9.841  22.082  0.00  0.00    +0.000 A 
ATOM     25  F   UNL     1       0.976   8.783  22.309  0.00  0.00    +0.000 F 
ENDBRANCH  17  19
ENDBRANCH   2  14
TORSDOF 3
ENDMDL
MODEL 2
REMARK VINA RESULT:      -8.1      7.362     10.518
REMARK  Name = 
REMARK  3 active torsions:
REMARK  status: ('A' for Active; 'I' for Inactive)
REMARK    1  A    between atoms: C_2  and  C_13
REMARK    2  A    between atoms: N_3  and  C_4
REMARK    3  A    between atoms: C_16  and  C_17
REMARK                            x       y       z     vdW  Elec       q    Type
REMARK                         _______ _______ _______ _____ _____    ______ ____
ROOT
ATOM      1  O   UNL     1       7.972  10.306  17.596  0.00  0.00    +0.000 OA
ATOM      2  C   UNL     1       8.400   9.393  18.305  0.00  0.00    +0.000 C 
ATOM      3  N   UNL     1       9.314   9.595  19.326  0.00  0.00    +0.000 N 
ATOM      4  H   UNL     1       9.766   8.772  19.709  0.00  0.00    +0.000 HD
ENDROOT
BRANCH   3   5
ATOM      5  C   UNL     1       9.826  10.869  19.704  0.00  0.00    +0.000 A 
ATOM      6  C   UNL     1       9.467  11.512  20.899  0.00  0.00    +0.000 A 
ATOM      7  C   UNL     1       9.939  12.793  21.204  0.00  0.00    +0.000 A 
ATOM      8  C   UNL     1      10.787  13.438  20.319  0.00  0.00    +0.000 A 
ATOM      9  F   UNL     1      11.218  14.672  20.607  0.00  0.00    +0.000 F 
ATOM     10  C   UNL     1      11.187  12.806  19.149  0.00  0.00    +0.000 A 
ATOM     11  F   UNL     1      12.014  13.437  18.301  0.00  0.00    +0.000 F 
ATOM     12  C   UNL     1      10.719  11.527  18.848  0.00  0.00    +0.000 A 
ATOM     13  F   UNL     1      11.099  10.935  17.706  0.00  0.00    +0.000 F 
ENDBRANCH   3   5
BRANCH   2  14
ATOM     14  C   UNL     1       7.985   8.031  18.030  0.00  0.00    +0.000 A 
ATOM     15  C   UNL     1       8.181   6.934  18.848  0.00  0.00    +0.000 A 
ATOM     16  C   UNL     1       7.686   5.816  18.164  0.00  0.00    +0.000 A 
ATOM     17  C   UNL     1       7.212   6.267  16.945  0.00  0.00    +0.000 A 
ATOM     18  O   UNL     1       7.378   7.634  16.860  0.00  0.00    +0.000 OA
BRANCH  17  19
ATOM     19  C   UNL     1       6.655   5.542  15.807  0.00  0.00    +0.000 A 
ATOM     20  C   UNL     1       7.437   5.172  14.706  0.00  0.00    +0.000 A 
ATOM     21  C   UNL     1       6.904   4.361  13.694  0.00  0.00    +0.000 A 
ATOM     22  C   UNL     1       5.583   3.914  13.764  0.00  0.00    +0.000 A 
ATOM     23  C   UNL     1       4.785   4.297  14.835  0.00  0.00    +0.000 A 
ATOM     24  C   UNL     1       5.320   5.101  15.839  0.00  0.00    +0.000 A 
ATOM     25  F   UNL     1       4.512   5.429  16.858  0.00  0.00    +0.000 F 
ENDBRANCH  17  19
ENDBRANCH   2  14
TORSDOF 3
ENDMDL
MODEL 3
REMARK VINA RESULT:      -7.9      1.022      1.417
REMARK  Name = 
REMARK  3 active torsions:
REMARK  status: ('A' for Active; 'I' for Inactive)
REMARK    1  A    between atoms: C_2  and  C_13
REMARK    2  A    between atoms: N_3  and  C_4
REMARK    3  A    between atoms: C_16  and  C_17
REMARK                            x       y       z     vdW  Elec       q    Type
REMARK                         _______ _______ _______ _____ _____    ______ ____
ROOT
ATOM      1  O   UNL     1       3.545   7.136  17.561  0.00  0.00    +0.000 OA
ATOM      2  C   UNL     1       2.564   7.145  18.307  0.00  0.00    +0.000 C 
ATOM      3  N   UNL     1       2.001   5.992  18.828  0.00  0.00    +0.000 N 
ATOM      4  H   UNL     1       1.083   6.078  19.251  0.00  0.00    +0.000 HD
ENDROOT
BRANCH   3   5
ATOM      5  C   UNL     1       2.509   4.680  18.606  0.00  0.00    +0.000 A 
ATOM      6  C   UNL     1       2.034   3.841  17.585  0.00  0.00    +0.000 A 
ATOM      7  C   UNL     1       2.511   2.534  17.440  0.00  0.00    +0.000 A 
ATOM      8  C   UNL     1       3.479   2.059  18.309  0.00  0.00    +0.000 A 
ATOM      9  F   UNL     1       3.916   0.800  18.177  0.00  0.00    +0.000 F 
ATOM     10  C   UNL     1       3.991   2.884  19.302  0.00  0.00    +0.000 A 
ATOM     11  F   UNL     1       4.934   2.416  20.135  0.00  0.00    +0.000 F 
ATOM     12  C   UNL     1       3.518   4.188  19.443  0.00  0.00    +0.000 A 
ATOM     13  F   UNL     1       4.009   4.969  20.417  0.00  0.00    +0.000 F 
ENDBRANCH   3   5
BRANCH   2  14
ATOM     14  C   UNL     1       1.921   8.409  18.613  0.00  0.00    +0.000 A 
ATOM     15  C   UNL     1       2.094   9.601  17.935  0.00  0.00    +0.000 A 
ATOM     16  C   UNL     1       1.341  10.571  18.609  0.00  0.00    +0.000 A 
ATOM     17  C   UNL     1       0.739   9.940  19.682  0.00  0.00    +0.000 A 
ATOM     18  O   UNL     1       1.078   8.603  19.684  0.00  0.00    +0.000 OA
BRANCH  17  19
ATOM     19  C   UNL     1      -0.096  10.467  20.757  0.00  0.00    +0.000 A 
ATOM     20  C   UNL     1      -0.051   9.949  22.056  0.00  0.00    +0.000 A 
ATOM     21  C   UNL     1      -0.764  10.564  23.094  0.00  0.00    +0.000 A 
ATOM     22  C   UNL     1      -1.538  11.701  22.849  0.00  0.00    +0.000 A 
ATOM     23  C   UNL     1      -1.617  12.210  21.559  0.00  0.00    +0.000 A 
ATOM     24  C   UNL     1      -0.904  11.596  20.531  0.00  0.00    +0.000 A 
ATOM     25  F   UNL     1      -1.004  12.136  19.308  0.00  0.00    +0.000 F 
ENDBRANCH  17  19
ENDBRANCH   2  14
TORSDOF 3
ENDMDL
MODEL 4
REMARK VINA RESULT:      -7.9      1.057      1.616
REMARK  Name = 
REMARK  3 active torsions:
REMARK  status: ('A' for Active; 'I' for Inactive)
REMARK    1  A    between atoms: C_2  and  C_13
REMARK    2  A    between atoms: N_3  and  C_4
REMARK    3  A    between atoms: C_16  and  C_17
REMARK                            x       y       z     vdW  Elec       q    Type
REMARK                         _______ _______ _______ _____ _____    ______ ____
ROOT
ATOM      1  O   UNL     1       3.640   6.936  17.916  0.00  0.00    +0.000 OA
ATOM      2  C   UNL     1       2.646   7.000  18.643  0.00  0.00    +0.000 C 
ATOM      3  N   UNL     1       2.081   5.890  19.248  0.00  0.00    +0.000 N 
ATOM      4  H   UNL     1       1.155   6.004  19.647  0.00  0.00    +0.000 HD
ENDROOT
BRANCH   3   5
ATOM      5  C   UNL     1       2.599   4.568  19.142  0.00  0.00    +0.000 A 
ATOM      6  C   UNL     1       3.568   4.055  20.019  0.00  0.00    +0.000 A 
ATOM      7  C   UNL     1       4.102   2.774  19.842  0.00  0.00    +0.000 A 
ATOM      8  C   UNL     1       3.659   1.988  18.790  0.00  0.00    +0.000 A 
ATOM      9  F   UNL     1       4.189   0.771  18.615  0.00  0.00    +0.000 F 
ATOM     10  C   UNL     1       2.673   2.459  17.934  0.00  0.00    +0.000 A 
ATOM     11  F   UNL     1       2.247   1.687  16.922  0.00  0.00    +0.000 F 
ATOM     12  C   UNL     1       2.139   3.735  18.113  0.00  0.00    +0.000 A 
ATOM     13  F   UNL     1       1.199   4.184  17.268  0.00  0.00    +0.000 F 
ENDBRANCH   3   5
BRANCH   2  14
ATOM     14  C   UNL     1       1.991   8.280  18.834  0.00  0.00    +0.000 A 
ATOM     15  C   UNL     1       2.073   9.375  17.993  0.00  0.00    +0.000 A 
ATOM     16  C   UNL     1       1.347  10.410  18.595  0.00  0.00    +0.000 A 
ATOM     17  C   UNL     1       0.853   9.916  19.788  0.00  0.00    +0.000 A 
ATOM     18  O   UNL     1       1.232   8.598  19.937  0.00  0.00    +0.000 OA
BRANCH  17  19
ATOM     19  C   UNL     1       0.091  10.565  20.851  0.00  0.00    +0.000 A 
ATOM     20  C   UNL     1      -0.636  11.740  20.634  0.00  0.00    +0.000 A 
ATOM     21  C   UNL     1      -1.464  12.263  21.638  0.00  0.00    +0.000 A 
ATOM     22  C   UNL     1      -1.571  11.623  22.875  0.00  0.00    +0.000 A 
ATOM     23  C   UNL     1      -0.832  10.472  23.117  0.00  0.00    +0.000 A 
ATOM     24  C   UNL     1      -0.013   9.955  22.116  0.00  0.00    +0.000 A 
ATOM     25  F   UNL     1       0.667   8.834  22.396  0.00  0.00    +0.000 F 
ENDBRANCH  17  19
ENDBRANCH   2  14
TORSDOF 3
ENDMDL
MODEL 5
REMARK VINA RESULT:      -7.9      2.997      8.392
REMARK  Name = 
REMARK  3 active torsions:
REMARK  status: ('A' for Active; 'I' for Inactive)
REMARK    1  A    between atoms: C_2  and  C_13
REMARK    2  A    between atoms: N_3  and  C_4
REMARK    3  A    between atoms: C_16  and  C_17
REMARK                            x       y       z     vdW  Elec       q    Type
REMARK                         _______ _______ _______ _____ _____    ______ ____
ROOT
ATOM      1  O   UNL     1       1.153   5.568  20.859  0.00  0.00    +0.000 OA
ATOM      2  C   UNL     1       2.086   6.025  20.195  0.00  0.00    +0.000 C 
ATOM      3  N   UNL     1       2.280   7.383  20.000  0.00  0.00    +0.000 N 
ATOM      4  H   UNL     1       2.935   7.655  19.275  0.00  0.00    +0.000 HD
ENDROOT
BRANCH   3   5
ATOM      5  C   UNL     1       1.464   8.400  20.572  0.00  0.00    +0.000 A 
ATOM      6  C   UNL     1       1.322   8.575  21.958  0.00  0.00    +0.000 A 
ATOM      7  C   UNL     1       0.459   9.543  22.482  0.00  0.00    +0.000 A 
ATOM      8  C   UNL     1      -0.262  10.355  21.622  0.00  0.00    +0.000 A 
ATOM      9  F   UNL     1      -1.102  11.265  22.130  0.00  0.00    +0.000 F 
ATOM     10  C   UNL     1      -0.108  10.226  20.248  0.00  0.00    +0.000 A 
ATOM     11  F   UNL     1      -0.806  11.022  19.423  0.00  0.00    +0.000 F 
ATOM     12  C   UNL     1       0.756   9.264  19.726  0.00  0.00    +0.000 A 
ATOM     13  F   UNL     1       0.882   9.138  18.397  0.00  0.00    +0.000 F 
ENDBRANCH   3   5
BRANCH   2  14
ATOM     14  C   UNL     1       2.995   5.111  19.531  0.00  0.00    +0.000 A 
ATOM     15  C   UNL     1       3.400   3.875  20.000  0.00  0.00    +0.000 A 
ATOM     16  C   UNL     1       4.328   3.370  19.079  0.00  0.00    +0.000 A 
ATOM     17  C   UNL     1       4.465   4.319  18.083  0.00  0.00    +0.000 A 
ATOM     18  O   UNL     1       3.635   5.389  18.345  0.00  0.00    +0.000 OA
BRANCH  17  19
ATOM     19  C   UNL     1       5.339   4.361  16.914  0.00  0.00    +0.000 A 
ATOM     20  C   UNL     1       4.851   4.187  15.614  0.00  0.00    +0.000 A 
ATOM     21  C   UNL     1       5.692   4.367  14.507  0.00  0.00    +0.000 A 
ATOM     22  C   UNL     1       7.034   4.715  14.683  0.00  0.00    +0.000 A 
ATOM     23  C   UNL     1       7.541   4.862  15.968  0.00  0.00    +0.000 A 
ATOM     24  C   UNL     1       6.700   4.685  17.065  0.00  0.00    +0.000 A 
ATOM     25  F   UNL     1       7.236   4.852  18.282  0.00  0.00    +0.000 F 
ENDBRANCH  17  19
ENDBRANCH   2  14
TORSDOF 3
ENDMDL
MODEL 6
REMARK VINA RESULT:      -7.9      2.793      8.258
REMARK  Name = 
REMARK  3 active torsions:
REMARK  status: ('A' for Active; 'I' for Inactive)
REMARK    1  A    between atoms: C_2  and  C_13
REMARK    2  A    between atoms: N_3  and  C_4
REMARK    3  A    between atoms: C_16  and  C_17
REMARK                            x       y       z     vdW  Elec       q    Type
REMARK                         _______ _______ _______ _____ _____    ______ ____
ROOT
ATOM      1  O   UNL     1       2.219  10.194  17.460  0.00  0.00    +0.000 OA
ATOM      2  C   UNL     1       1.907   9.222  18.150  0.00  0.00    +0.000 C 
ATOM      3  N   UNL     1       0.898   9.261  19.098  0.00  0.00    +0.000 N 
ATOM      4  H   UNL     1       0.855   8.491  19.757  0.00  0.00    +0.000 HD
ENDROOT
BRANCH   3   5
ATOM      5  C   UNL     1       0.081  10.399  19.353  0.00  0.00    +0.000 A 
ATOM      6  C   UNL     1       0.336  11.304  20.395  0.00  0.00    +0.000 A 
ATOM      7  C   UNL     1      -0.528  12.373  20.655  0.00  0.00    +0.000 A 
ATOM      8  C   UNL     1      -1.651  12.553  19.865  0.00  0.00    +0.000 A 
ATOM      9  F   UNL     1      -2.484  13.566  20.132  0.00  0.00    +0.000 F 
ATOM     10  C   UNL     1      -1.903  11.693  18.804  0.00  0.00    +0.000 A 
ATOM     11  F   UNL     1      -2.990  11.880  18.040  0.00  0.00    +0.000 F 
ATOM     12  C   UNL     1      -1.039  10.630  18.543  0.00  0.00    +0.000 A 
ATOM     13  F   UNL     1      -1.304   9.797  17.525  0.00  0.00    +0.000 F 
ENDBRANCH   3   5
BRANCH   2  14
ATOM     14  C   UNL     1       2.663   7.991  18.018  0.00  0.00    +0.000 A 
ATOM     15  C   UNL     1       3.855   7.831  17.336  0.00  0.00    +0.000 A 
ATOM     16  C   UNL     1       4.191   6.473  17.408  0.00  0.00    +0.000 A 
ATOM     17  C   UNL     1       3.187   5.847  18.125  0.00  0.00    +0.000 A 
ATOM     18  O   UNL     1       2.249   6.778  18.518  0.00  0.00    +0.000 OA
BRANCH  17  19
ATOM     19  C   UNL     1       2.978   4.439  18.447  0.00  0.00    +0.000 A 
ATOM     20  C   UNL     1       3.863   3.722  19.260  0.00  0.00    +0.000 A 
ATOM     21  C   UNL     1       3.563   2.412  19.660  0.00  0.00    +0.000 A 
ATOM     22  C   UNL     1       2.378   1.798  19.249  0.00  0.00    +0.000 A 
ATOM     23  C   UNL     1       1.503   2.485  18.417  0.00  0.00    +0.000 A 
ATOM     24  C   UNL     1       1.804   3.787  18.025  0.00  0.00    +0.000 A 
ATOM     25  F   UNL     1       0.919   4.411  17.234  0.00  0.00    +0.000 F 
ENDBRANCH  17  19
ENDBRANCH   2  14
TORSDOF 3
ENDMDL
MODEL 7
REMARK VINA RESULT:      -7.9      2.977      8.214
REMARK  Name = 
REMARK  3 active torsions:
REMARK  status: ('A' for Active; 'I' for Inactive)
REMARK    1  A    between atoms: C_2  and  C_13
REMARK    2  A    between atoms: N_3  and  C_4
REMARK    3  A    between atoms: C_16  and  C_17
REMARK                            x       y       z     vdW  Elec       q    Type
REMARK                         _______ _______ _______ _____ _____    ______ ____
ROOT
ATOM      1  O   UNL     1       2.158  10.228  17.391  0.00  0.00    +0.000 OA
ATOM      2  C   UNL     1       1.837   9.501  18.333  0.00  0.00    +0.000 C 
ATOM      3  N   UNL     1       1.029   9.927  19.374  0.00  0.00    +0.000 N 
ATOM      4  H   UNL     1       0.994   9.338  20.200  0.00  0.00    +0.000 HD
ENDROOT
BRANCH   3   5
ATOM      5  C   UNL     1       0.443  11.222  19.457  0.00  0.00    +0.000 A 
ATOM      6  C   UNL     1       1.192  12.385  19.695  0.00  0.00    +0.000 A 
ATOM      7  C   UNL     1       0.572  13.631  19.837  0.00  0.00    +0.000 A 
ATOM      8  C   UNL     1      -0.805  13.726  19.727  0.00  0.00    +0.000 A 
ATOM      9  F   UNL     1      -1.394  14.918  19.884  0.00  0.00    +0.000 F 
ATOM     10  C   UNL     1      -1.563  12.595  19.453  0.00  0.00    +0.000 A 
ATOM     11  F   UNL     1      -2.897  12.699  19.342  0.00  0.00    +0.000 F 
ATOM     12  C   UNL     1      -0.944  11.354  19.308  0.00  0.00    +0.000 A 
ATOM     13  F   UNL     1      -1.690  10.267  19.060  0.00  0.00    +0.000 F 
ENDBRANCH   3   5
BRANCH   2  14
ATOM     14  C   UNL     1       2.371   8.154  18.400  0.00  0.00    +0.000 A 
ATOM     15  C   UNL     1       3.387   7.637  17.617  0.00  0.00    +0.000 A 
ATOM     16  C   UNL     1       3.531   6.289  17.969  0.00  0.00    +0.000 A 
ATOM     17  C   UNL     1       2.592   6.025  18.948  0.00  0.00    +0.000 A 
ATOM     18  O   UNL     1       1.882   7.174  19.232  0.00  0.00    +0.000 OA
BRANCH  17  19
ATOM     19  C   UNL     1       2.242   4.782  19.629  0.00  0.00    +0.000 A 
ATOM     20  C   UNL     1       2.569   4.550  20.970  0.00  0.00    +0.000 A 
ATOM     21  C   UNL     1       2.101   3.405  21.630  0.00  0.00    +0.000 A 
ATOM     22  C   UNL     1       1.307   2.473  20.960  0.00  0.00    +0.000 A 
ATOM     23  C   UNL     1       0.998   2.672  19.620  0.00  0.00    +0.000 A 
ATOM     24  C   UNL     1       1.463   3.813  18.969  0.00  0.00    +0.000 A 
ATOM     25  F   UNL     1       1.125   3.965  17.680  0.00  0.00    +0.000 F 
ENDBRANCH  17  19
ENDBRANCH   2  14
TORSDOF 3
ENDMDL
MODEL 8
REMARK VINA RESULT:      -7.8      3.047      8.505
REMARK  Name = 
REMARK  3 active torsions:
REMARK  status: ('A' for Active; 'I' for Inactive)
REMARK    1  A    between atoms: C_2  and  C_13
REMARK    2  A    between atoms: N_3  and  C_4
REMARK    3  A    between atoms: C_16  and  C_17
REMARK                            x       y       z     vdW  Elec       q    Type
REMARK                         _______ _______ _______ _____ _____    ______ ____
ROOT
ATOM      1  O   UNL     1       0.976   7.982  21.266  0.00  0.00    +0.000 OA
ATOM      2  C   UNL     1       1.549   7.889  20.179  0.00  0.00    +0.000 C 
ATOM      3  N   UNL     1       1.491   8.875  19.208  0.00  0.00    +0.000 N 
ATOM      4  H   UNL     1       1.809   8.624  18.277  0.00  0.00    +0.000 HD
ENDROOT
BRANCH   3   5
ATOM      5  C   UNL     1       0.811  10.116  19.364  0.00  0.00    +0.000 A 
ATOM      6  C   UNL     1       1.107  11.025  20.392  0.00  0.00    +0.000 A 
ATOM      7  C   UNL     1       0.371  12.204  20.553  0.00  0.00    +0.000 A 
ATOM      8  C   UNL     1      -0.662  12.490  19.676  0.00  0.00    +0.000 A 
ATOM      9  F   UNL     1      -1.375  13.610  19.848  0.00  0.00    +0.000 F 
ATOM     10  C   UNL     1      -0.948  11.624  18.629  0.00  0.00    +0.000 A 
ATOM     11  F   UNL     1      -1.947  11.914  17.780  0.00  0.00    +0.000 F 
ATOM     12  C   UNL     1      -0.212  10.452  18.466  0.00  0.00    +0.000 A 
ATOM     13  F   UNL     1      -0.510   9.616  17.460  0.00  0.00    +0.000 F 
ENDBRANCH   3   5
BRANCH   2  14
ATOM     14  C   UNL     1       2.271   6.671  19.863  0.00  0.00    +0.000 A 
ATOM     15  C   UNL     1       2.144   5.454  20.506  0.00  0.00    +0.000 A 
ATOM     16  C   UNL     1       3.073   4.582  19.925  0.00  0.00    +0.000 A 
ATOM     17  C   UNL     1       3.744   5.300  18.951  0.00  0.00    +0.000 A 
ATOM     18  O   UNL     1       3.245   6.585  18.895  0.00  0.00    +0.000 OA
BRANCH  17  19
ATOM     19  C   UNL     1       4.856   4.926  18.082  0.00  0.00    +0.000 A 
ATOM     20  C   UNL     1       4.656   4.457  16.779  0.00  0.00    +0.000 A 
ATOM     21  C   UNL     1       5.747   4.235  15.926  0.00  0.00    +0.000 A 
ATOM     22  C   UNL     1       7.052   4.471  16.364  0.00  0.00    +0.000 A 
ATOM     23  C   UNL     1       7.269   4.908  17.665  0.00  0.00    +0.000 A 
ATOM     24  C   UNL     1       6.182   5.130  18.508  0.00  0.00    +0.000 A 
ATOM     25  F   UNL     1       6.445   5.565  19.748  0.00  0.00    +0.000 F 
ENDBRANCH  17  19
ENDBRANCH   2  14
TORSDOF 3
ENDMDL
MODEL 9
REMARK VINA RESULT:      -7.8      1.878      8.200
REMARK  Name = 
REMARK  3 active torsions:
REMARK  status: ('A' for Active; 'I' for Inactive)
REMARK    1  A    between atoms: C_2  and  C_13
REMARK    2  A    between atoms: N_3  and  C_4
REMARK    3  A    between atoms: C_16  and  C_17
REMARK                            x       y       z     vdW  Elec       q    Type
REMARK                         _______ _______ _______ _____ _____    ______ ____
ROOT
ATOM      1  O   UNL     1       0.646   9.696  18.334  0.00  0.00    +0.000 OA
ATOM      2  C   UNL     1       1.342   9.068  19.134  0.00  0.00    +0.000 C 
ATOM      3  N   UNL     1       1.409   9.378  20.482  0.00  0.00    +0.000 N 
ATOM      4  H   UNL     1       2.159   8.951  21.016  0.00  0.00    +0.000 HD
ENDROOT
BRANCH   3   5
ATOM      5  C   UNL     1       0.658  10.415  21.105  0.00  0.00    +0.000 A 
ATOM      6  C   UNL     1       0.887  11.778  20.857  0.00  0.00    +0.000 A 
ATOM      7  C   UNL     1       0.174  12.769  21.539  0.00  0.00    +0.000 A 
ATOM      8  C   UNL     1      -0.787  12.404  22.467  0.00  0.00    +0.000 A 
ATOM      9  F   UNL     1      -1.452  13.358  23.131  0.00  0.00    +0.000 F 
ATOM     10  C   UNL     1      -1.058  11.063  22.700  0.00  0.00    +0.000 A 
ATOM     11  F   UNL     1      -1.996  10.719  23.597  0.00  0.00    +0.000 F 
ATOM     12  C   UNL     1      -0.349  10.075  22.017  0.00  0.00    +0.000 A 
ATOM     13  F   UNL     1      -0.609   8.782  22.264  0.00  0.00    +0.000 F 
ENDBRANCH   3   5
BRANCH   2  14
ATOM     14  C   UNL     1       2.181   7.990  18.645  0.00  0.00    +0.000 A 
ATOM     15  C   UNL     1       3.170   8.094  17.685  0.00  0.00    +0.000 A 
ATOM     16  C   UNL     1       3.674   6.805  17.473  0.00  0.00    +0.000 A 
ATOM     17  C   UNL     1       2.968   5.954  18.304  0.00  0.00    +0.000 A 
ATOM     18  O   UNL     1       2.056   6.679  19.043  0.00  0.00    +0.000 OA
BRANCH  17  19
ATOM     19  C   UNL     1       3.018   4.503  18.454  0.00  0.00    +0.000 A 
ATOM     20  C   UNL     1       2.088   3.659  17.835  0.00  0.00    +0.000 A 
ATOM     21  C   UNL     1       2.243   2.267  17.888  0.00  0.00    +0.000 A 
ATOM     22  C   UNL     1       3.323   1.697  18.565  0.00  0.00    +0.000 A 
ATOM     23  C   UNL     1       4.238   2.520  19.210  0.00  0.00    +0.000 A 
ATOM     24  C   UNL     1       4.082   3.903  19.152  0.00  0.00    +0.000 A 
ATOM     25  F   UNL     1       5.001   4.652  19.779  0.00  0.00    +0.000 F 
ENDBRANCH  17  19
ENDBRANCH   2  14
TORSDOF 3
ENDMDL
