MODEL 1
REMARK VINA RESULT:      -9.1      0.000      0.000
REMARK  Name = 
REMARK  3 active torsions:
REMARK  status: ('A' for Active; 'I' for Inactive)
REMARK    1  A    between atoms: C_2  and  C_20
REMARK    2  A    between atoms: N_3  and  C_4
REMARK    3  A    between atoms: C_7  and  C_8
REMARK                            x       y       z     vdW  Elec       q    Type
REMARK                         _______ _______ _______ _____ _____    ______ ____
ROOT
ATOM      1  C   UNL     1       0.576   9.711  20.199  0.00  0.00    +0.000 A 
ATOM      2  C   UNL     1       0.961   9.923  18.873  0.00  0.00    +0.000 A 
ATOM      3  C   UNL     1       1.795   9.011  18.218  0.00  0.00    +0.000 A 
ATOM      4  C   UNL     1       2.265   7.873  18.878  0.00  0.00    +0.000 A 
ATOM      5  C   UNL     1       1.953   7.716  20.235  0.00  0.00    +0.000 A 
ATOM      6  C   UNL     1       1.110   8.621  20.888  0.00  0.00    +0.000 A 
ENDROOT
BRANCH   4   7
ATOM      7  C   UNL     1       3.067   6.896  18.139  0.00  0.00    +0.000 A 
ATOM      8  N   UNL     1       4.060   7.193  17.321  0.00  0.00    +0.000 NA
ATOM      9  N   UNL     1       4.594   6.030  16.836  0.00  0.00    +0.000 NA
ATOM     10  C   UNL     1       3.913   5.023  17.338  0.00  0.00    +0.000 A 
ATOM     11  N   UNL     1       2.892   5.526  18.110  0.00  0.00    +0.000 N 
ATOM     12  C   UNL     1       1.816   4.779  18.732  0.00  0.00    +0.000 C 
ATOM     13  C   UNL     1       1.333   3.570  17.943  0.00  0.00    +0.000 C 
ATOM     14  C   UNL     1       2.228   2.343  18.091  0.00  0.00    +0.000 C 
ATOM     15  C   UNL     1       3.728   2.628  18.154  0.00  0.00    +0.000 C 
ATOM     16  C   UNL     1       4.209   3.587  17.073  0.00  0.00    +0.000 C 
ENDBRANCH   4   7
BRANCH   1  19
ATOM     17  O   UNL     1       1.081  12.322  21.417  0.00  0.00    +0.000 OA
ATOM     18  C   UNL     1      -0.003  11.753  21.473  0.00  0.00    +0.000 C 
ATOM     19  N   UNL     1      -0.326  10.543  20.891  0.00  0.00    +0.000 N 
ATOM     20  H   UNL     1      -1.305  10.300  20.828  0.00  0.00    +0.000 HD
BRANCH  18  21
ATOM     21  C   UNL     1      -1.104  12.460  22.177  0.00  0.00    +0.000 A 
ATOM     22  C   UNL     1      -0.754  13.576  22.961  0.00  0.00    +0.000 A 
ATOM     23  C   UNL     1      -1.685  14.220  23.780  0.00  0.00    +0.000 A 
ATOM     24  C   UNL     1      -2.971  13.687  23.772  0.00  0.00    +0.000 A 
ATOM     25  N   UNL     1      -4.103  13.972  24.484  0.00  0.00    +0.000 N 
ATOM     26  N   UNL     1      -5.135  13.197  24.111  0.00  0.00    +0.000 NA
ATOM     27  N   UNL     1      -4.688  12.356  23.186  0.00  0.00    +0.000 NA
ATOM     28  C   UNL     1      -3.361  12.619  22.976  0.00  0.00    +0.000 A 
ATOM     29  C   UNL     1      -2.423  11.980  22.154  0.00  0.00    +0.000 A 
ATOM     30  H   UNL     1      -4.236  14.638  25.234  0.00  0.00    +0.000 HD
ENDBRANCH  18  21
ENDBRANCH   1  19
TORSDOF 3
ENDMDL
MODEL 2
REMARK VINA RESULT:      -8.8      0.975      1.204
REMARK  Name = 
REMARK  3 active torsions:
REMARK  status: ('A' for Active; 'I' for Inactive)
REMARK    1  A    between atoms: C_2  and  C_20
REMARK    2  A    between atoms: N_3  and  C_4
REMARK    3  A    between atoms: C_7  and  C_8
REMARK                            x       y       z     vdW  Elec       q    Type
REMARK                         _______ _______ _______ _____ _____    ______ ____
ROOT
ATOM      1  C   UNL     1       0.527   9.654  19.936  0.00  0.00    +0.000 A 
ATOM      2  C   UNL     1       0.895   9.800  18.597  0.00  0.00    +0.000 A 
ATOM      3  C   UNL     1       1.769   8.890  17.994  0.00  0.00    +0.000 A 
ATOM      4  C   UNL     1       2.298   7.820  18.721  0.00  0.00    +0.000 A 
ATOM      5  C   UNL     1       2.000   7.735  20.087  0.00  0.00    +0.000 A 
ATOM      6  C   UNL     1       1.116   8.637  20.688  0.00  0.00    +0.000 A 
ENDROOT
BRANCH   4   7
ATOM      7  C   UNL     1       3.143   6.839  18.038  0.00  0.00    +0.000 A 
ATOM      8  N   UNL     1       4.173   7.132  17.266  0.00  0.00    +0.000 NA
ATOM      9  N   UNL     1       4.740   5.966  16.827  0.00  0.00    +0.000 NA
ATOM     10  C   UNL     1       4.041   4.961  17.309  0.00  0.00    +0.000 A 
ATOM     11  N   UNL     1       2.979   5.467  18.021  0.00  0.00    +0.000 N 
ATOM     12  C   UNL     1       1.878   4.721  18.600  0.00  0.00    +0.000 C 
ATOM     13  C   UNL     1       1.444   3.496  17.806  0.00  0.00    +0.000 C 
ATOM     14  C   UNL     1       2.340   2.279  18.018  0.00  0.00    +0.000 C 
ATOM     15  C   UNL     1       3.833   2.577  18.152  0.00  0.00    +0.000 C 
ATOM     16  C   UNL     1       4.361   3.523  17.081  0.00  0.00    +0.000 C 
ENDBRANCH   4   7
BRANCH   1  19
ATOM     17  O   UNL     1       1.011  12.109  21.451  0.00  0.00    +0.000 OA
ATOM     18  C   UNL     1      -0.102  11.614  21.312  0.00  0.00    +0.000 C 
ATOM     19  N   UNL     1      -0.411  10.484  20.582  0.00  0.00    +0.000 N 
ATOM     20  H   UNL     1      -1.386  10.315  20.371  0.00  0.00    +0.000 HD
BRANCH  18  21
ATOM     21  C   UNL     1      -1.246  12.332  21.933  0.00  0.00    +0.000 A 
ATOM     22  C   UNL     1      -1.906  11.692  22.998  0.00  0.00    +0.000 A 
ATOM     23  C   UNL     1      -3.079  12.208  23.553  0.00  0.00    +0.000 A 
ATOM     24  C   UNL     1      -3.552  13.388  22.983  0.00  0.00    +0.000 A 
ATOM     25  N   UNL     1      -4.681  14.131  23.180  0.00  0.00    +0.000 N 
ATOM     26  N   UNL     1      -4.698  15.228  22.403  0.00  0.00    +0.000 NA
ATOM     27  N   UNL     1      -3.608  15.197  21.646  0.00  0.00    +0.000 NA
ATOM     28  C   UNL     1      -2.900  14.069  21.964  0.00  0.00    +0.000 A 
ATOM     29  C   UNL     1      -1.721  13.547  21.415  0.00  0.00    +0.000 A 
ATOM     30  H   UNL     1      -5.471  13.947  23.786  0.00  0.00    +0.000 HD
ENDBRANCH  18  21
ENDBRANCH   1  19
TORSDOF 3
ENDMDL
MODEL 3
REMARK VINA RESULT:      -8.8      6.907      9.631
REMARK  Name = 
REMARK  3 active torsions:
REMARK  status: ('A' for Active; 'I' for Inactive)
REMARK    1  A    between atoms: C_2  and  C_20
REMARK    2  A    between atoms: N_3  and  C_4
REMARK    3  A    between atoms: C_7  and  C_8
REMARK                            x       y       z     vdW  Elec       q    Type
REMARK                         _______ _______ _______ _____ _____    ______ ____
ROOT
ATOM      1  C   UNL     1       8.048   7.954  18.269  0.00  0.00    +0.000 A 
ATOM      2  C   UNL     1       7.008   8.012  17.338  0.00  0.00    +0.000 A 
ATOM      3  C   UNL     1       6.114   6.945  17.199  0.00  0.00    +0.000 A 
ATOM      4  C   UNL     1       6.247   5.796  17.983  0.00  0.00    +0.000 A 
ATOM      5  C   UNL     1       7.348   5.705  18.845  0.00  0.00    +0.000 A 
ATOM      6  C   UNL     1       8.235   6.776  18.994  0.00  0.00    +0.000 A 
ENDROOT
BRANCH   4   7
ATOM      7  C   UNL     1       5.246   4.733  17.872  0.00  0.00    +0.000 A 
ATOM      8  N   UNL     1       5.231   3.801  16.937  0.00  0.00    +0.000 NA
ATOM      9  N   UNL     1       4.172   2.965  17.168  0.00  0.00    +0.000 NA
ATOM     10  C   UNL     1       3.526   3.401  18.227  0.00  0.00    +0.000 A 
ATOM     11  N   UNL     1       4.127   4.558  18.663  0.00  0.00    +0.000 N 
ATOM     12  C   UNL     1       3.660   5.446  19.709  0.00  0.00    +0.000 C 
ATOM     13  C   UNL     1       2.147   5.564  19.824  0.00  0.00    +0.000 C 
ATOM     14  C   UNL     1       1.495   4.400  20.565  0.00  0.00    +0.000 C 
ATOM     15  C   UNL     1       2.108   3.026  20.297  0.00  0.00    +0.000 C 
ATOM     16  C   UNL     1       2.328   2.738  18.818  0.00  0.00    +0.000 C 
ENDBRANCH   4   7
BRANCH   1  19
ATOM     17  O   UNL     1       7.806  10.746  17.432  0.00  0.00    +0.000 OA
ATOM     18  C   UNL     1       8.767  10.313  18.058  0.00  0.00    +0.000 C 
ATOM     19  N   UNL     1       8.931   9.022  18.519  0.00  0.00    +0.000 N 
ATOM     20  H   UNL     1       9.657   8.859  19.204  0.00  0.00    +0.000 HD
BRANCH  18  21
ATOM     21  C   UNL     1       9.833  11.283  18.419  0.00  0.00    +0.000 A 
ATOM     22  C   UNL     1      10.565  11.027  19.593  0.00  0.00    +0.000 A 
ATOM     23  C   UNL     1      11.484  11.948  20.102  0.00  0.00    +0.000 A 
ATOM     24  C   UNL     1      11.624  13.129  19.378  0.00  0.00    +0.000 A 
ATOM     25  N   UNL     1      12.333  14.277  19.595  0.00  0.00    +0.000 N 
ATOM     26  N   UNL     1      12.179  15.156  18.590  0.00  0.00    +0.000 NA
ATOM     27  N   UNL     1      11.327  14.624  17.723  0.00  0.00    +0.000 NA
ATOM     28  C   UNL     1      10.954  13.393  18.192  0.00  0.00    +0.000 A 
ATOM     29  C   UNL     1      10.035  12.463  17.685  0.00  0.00    +0.000 A 
ATOM     30  H   UNL     1      12.904  14.537  20.390  0.00  0.00    +0.000 HD
ENDBRANCH  18  21
ENDBRANCH   1  19
TORSDOF 3
ENDMDL
MODEL 4
REMARK VINA RESULT:      -8.7      0.909      1.754
REMARK  Name = 
REMARK  3 active torsions:
REMARK  status: ('A' for Active; 'I' for Inactive)
REMARK    1  A    between atoms: C_2  and  C_20
REMARK    2  A    between atoms: N_3  and  C_4
REMARK    3  A    between atoms: C_7  and  C_8
REMARK                            x       y       z     vdW  Elec       q    Type
REMARK                         _______ _______ _______ _____ _____    ______ ____
ROOT
ATOM      1  C   UNL     1       0.211   9.636  20.764  0.00  0.00    +0.000 A 
ATOM      2  C   UNL     1       0.894   8.529  21.271  0.00  0.00    +0.000 A 
ATOM      3  C   UNL     1       1.735   7.771  20.450  0.00  0.00    +0.000 A 
ATOM      4  C   UNL     1       1.903   8.102  19.102  0.00  0.00    +0.000 A 
ATOM      5  C   UNL     1       1.141   9.154  18.578  0.00  0.00    +0.000 A 
ATOM      6  C   UNL     1       0.309   9.921  19.402  0.00  0.00    +0.000 A 
ENDROOT
BRANCH   4   7
ATOM      7  C   UNL     1       2.854   7.339  18.291  0.00  0.00    +0.000 A 
ATOM      8  N   UNL     1       3.817   7.865  17.557  0.00  0.00    +0.000 NA
ATOM      9  N   UNL     1       4.522   6.852  16.965  0.00  0.00    +0.000 NA
ATOM     10  C   UNL     1       3.974   5.709  17.317  0.00  0.00    +0.000 A 
ATOM     11  N   UNL     1       2.872   5.972  18.097  0.00  0.00    +0.000 N 
ATOM     12  C   UNL     1       1.895   5.016  18.581  0.00  0.00    +0.000 C 
ATOM     13  C   UNL     1       1.608   3.856  17.637  0.00  0.00    +0.000 C 
ATOM     14  C   UNL     1       2.662   2.753  17.682  0.00  0.00    +0.000 C 
ATOM     15  C   UNL     1       4.105   3.231  17.843  0.00  0.00    +0.000 C 
ATOM     16  C   UNL     1       4.477   4.369  16.901  0.00  0.00    +0.000 C 
ENDBRANCH   4   7
BRANCH   1  19
ATOM     17  O   UNL     1       0.802  12.357  21.659  0.00  0.00    +0.000 OA
ATOM     18  C   UNL     1      -0.220  11.756  21.968  0.00  0.00    +0.000 C 
ATOM     19  N   UNL     1      -0.584  10.491  21.554  0.00  0.00    +0.000 N 
ATOM     20  H   UNL     1      -1.544  10.207  21.701  0.00  0.00    +0.000 HD
BRANCH  18  21
ATOM     21  C   UNL     1      -1.202  12.480  22.817  0.00  0.00    +0.000 A 
ATOM     22  C   UNL     1      -2.394  11.805  23.140  0.00  0.00    +0.000 A 
ATOM     23  C   UNL     1      -3.443  12.444  23.804  0.00  0.00    +0.000 A 
ATOM     24  C   UNL     1      -3.235  13.785  24.120  0.00  0.00    +0.000 A 
ATOM     25  N   UNL     1      -4.033  14.748  24.670  0.00  0.00    +0.000 N 
ATOM     26  N   UNL     1      -3.382  15.915  24.811  0.00  0.00    +0.000 NA
ATOM     27  N   UNL     1      -2.164  15.754  24.309  0.00  0.00    +0.000 NA
ATOM     28  C   UNL     1      -2.055  14.466  23.858  0.00  0.00    +0.000 A 
ATOM     29  C   UNL     1      -1.004  13.818  23.194  0.00  0.00    +0.000 A 
ATOM     30  H   UNL     1      -5.007  14.694  24.941  0.00  0.00    +0.000 HD
ENDBRANCH  18  21
ENDBRANCH   1  19
TORSDOF 3
ENDMDL
MODEL 5
REMARK VINA RESULT:      -8.7      0.816      1.290
REMARK  Name = 
REMARK  3 active torsions:
REMARK  status: ('A' for Active; 'I' for Inactive)
REMARK    1  A    between atoms: C_2  and  C_20
REMARK    2  A    between atoms: N_3  and  C_4
REMARK    3  A    between atoms: C_7  and  C_8
REMARK                            x       y       z     vdW  Elec       q    Type
REMARK                         _______ _______ _______ _____ _____    ______ ____
ROOT
ATOM      1  C   UNL     1       0.490   9.693  19.867  0.00  0.00    +0.000 A 
ATOM      2  C   UNL     1       0.876   9.827  18.532  0.00  0.00    +0.000 A 
ATOM      3  C   UNL     1       1.758   8.911  17.949  0.00  0.00    +0.000 A 
ATOM      4  C   UNL     1       2.276   7.847  18.693  0.00  0.00    +0.000 A 
ATOM      5  C   UNL     1       1.960   7.774  20.055  0.00  0.00    +0.000 A 
ATOM      6  C   UNL     1       1.069   8.683  20.637  0.00  0.00    +0.000 A 
ENDROOT
BRANCH   4   7
ATOM      7  C   UNL     1       3.130   6.859  18.030  0.00  0.00    +0.000 A 
ATOM      8  N   UNL     1       4.163   7.146  17.259  0.00  0.00    +0.000 NA
ATOM      9  N   UNL     1       4.737   5.975  16.842  0.00  0.00    +0.000 NA
ATOM     10  C   UNL     1       4.041   4.975  17.336  0.00  0.00    +0.000 A 
ATOM     11  N   UNL     1       2.972   5.487  18.035  0.00  0.00    +0.000 N 
ATOM     12  C   UNL     1       1.873   4.745  18.619  0.00  0.00    +0.000 C 
ATOM     13  C   UNL     1       1.450   3.505  17.843  0.00  0.00    +0.000 C 
ATOM     14  C   UNL     1       2.350   2.296  18.079  0.00  0.00    +0.000 C 
ATOM     15  C   UNL     1       3.841   2.604  18.216  0.00  0.00    +0.000 C 
ATOM     16  C   UNL     1       4.370   3.535  17.133  0.00  0.00    +0.000 C 
ENDBRANCH   4   7
BRANCH   1  19
ATOM     17  O   UNL     1       0.959  12.135  21.408  0.00  0.00    +0.000 OA
ATOM     18  C   UNL     1      -0.155  11.652  21.238  0.00  0.00    +0.000 C 
ATOM     19  N   UNL     1      -0.457  10.529  20.493  0.00  0.00    +0.000 N 
ATOM     20  H   UNL     1      -1.427  10.371  20.256  0.00  0.00    +0.000 HD
BRANCH  18  21
ATOM     21  C   UNL     1      -1.307  12.378  21.832  0.00  0.00    +0.000 A 
ATOM     22  C   UNL     1      -2.466  12.502  21.042  0.00  0.00    +0.000 A 
ATOM     23  C   UNL     1      -3.548  13.290  21.443  0.00  0.00    +0.000 A 
ATOM     24  C   UNL     1      -3.403  13.942  22.665  0.00  0.00    +0.000 A 
ATOM     25  N   UNL     1      -4.178  14.846  23.337  0.00  0.00    +0.000 N 
ATOM     26  N   UNL     1      -3.636  15.187  24.518  0.00  0.00    +0.000 NA
ATOM     27  N   UNL     1      -2.474  14.554  24.621  0.00  0.00    +0.000 NA
ATOM     28  C   UNL     1      -2.296  13.804  23.489  0.00  0.00    +0.000 A 
ATOM     29  C   UNL     1      -1.215  13.009  23.083  0.00  0.00    +0.000 A 
ATOM     30  H   UNL     1      -5.045  15.283  23.051  0.00  0.00    +0.000 HD
ENDBRANCH  18  21
ENDBRANCH   1  19
TORSDOF 3
ENDMDL
MODEL 6
REMARK VINA RESULT:      -8.6      1.141      1.672
REMARK  Name = 
REMARK  3 active torsions:
REMARK  status: ('A' for Active; 'I' for Inactive)
REMARK    1  A    between atoms: C_2  and  C_20
REMARK    2  A    between atoms: N_3  and  C_4
REMARK    3  A    between atoms: C_7  and  C_8
REMARK                            x       y       z     vdW  Elec       q    Type
REMARK                         _______ _______ _______ _____ _____    ______ ____
ROOT
ATOM      1  C   UNL     1       0.206   9.849  21.085  0.00  0.00    +0.000 A 
ATOM      2  C   UNL     1       0.430  10.005  19.715  0.00  0.00    +0.000 A 
ATOM      3  C   UNL     1       1.222   9.091  19.013  0.00  0.00    +0.000 A 
ATOM      4  C   UNL     1       1.811   8.006  19.668  0.00  0.00    +0.000 A 
ATOM      5  C   UNL     1       1.661   7.909  21.057  0.00  0.00    +0.000 A 
ATOM      6  C   UNL     1       0.859   8.816  21.759  0.00  0.00    +0.000 A 
ENDROOT
BRANCH   4   7
ATOM      7  C   UNL     1       2.564   7.022  18.888  0.00  0.00    +0.000 A 
ATOM      8  N   UNL     1       3.354   7.306  17.869  0.00  0.00    +0.000 NA
ATOM      9  N   UNL     1       3.912   6.144  17.408  0.00  0.00    +0.000 NA
ATOM     10  C   UNL     1       3.445   5.149  18.128  0.00  0.00    +0.000 A 
ATOM     11  N   UNL     1       2.534   5.648  19.029  0.00  0.00    +0.000 N 
ATOM     12  C   UNL     1       1.675   4.890  19.918  0.00  0.00    +0.000 C 
ATOM     13  C   UNL     1       1.189   3.559  19.360  0.00  0.00    +0.000 C 
ATOM     14  C   UNL     1       2.222   2.440  19.454  0.00  0.00    +0.000 C 
ATOM     15  C   UNL     1       3.669   2.859  19.198  0.00  0.00    +0.000 C 
ATOM     16  C   UNL     1       3.840   3.722  17.955  0.00  0.00    +0.000 C 
ENDBRANCH   4   7
BRANCH   1  19
ATOM     17  O   UNL     1       0.582  12.660  21.800  0.00  0.00    +0.000 OA
ATOM     18  C   UNL     1      -0.383  11.997  22.165  0.00  0.00    +0.000 C 
ATOM     19  N   UNL     1      -0.646  10.682  21.836  0.00  0.00    +0.000 N 
ATOM     20  H   UNL     1      -1.576  10.331  22.019  0.00  0.00    +0.000 HD
BRANCH  18  21
ATOM     21  C   UNL     1      -1.409  12.689  22.988  0.00  0.00    +0.000 A 
ATOM     22  C   UNL     1      -2.616  12.005  23.219  0.00  0.00    +0.000 A 
ATOM     23  C   UNL     1      -3.700  12.620  23.851  0.00  0.00    +0.000 A 
ATOM     24  C   UNL     1      -3.509  13.946  24.230  0.00  0.00    +0.000 A 
ATOM     25  N   UNL     1      -4.335  14.889  24.774  0.00  0.00    +0.000 N 
ATOM     26  N   UNL     1      -3.692  16.048  24.995  0.00  0.00    +0.000 NA
ATOM     27  N   UNL     1      -2.449  15.904  24.554  0.00  0.00    +0.000 NA
ATOM     28  C   UNL     1      -2.316  14.635  24.059  0.00  0.00    +0.000 A 
ATOM     29  C   UNL     1      -1.231  14.010  23.428  0.00  0.00    +0.000 A 
ATOM     30  H   UNL     1      -5.322  14.827  24.989  0.00  0.00    +0.000 HD
ENDBRANCH  18  21
ENDBRANCH   1  19
TORSDOF 3
ENDMDL
MODEL 7
REMARK VINA RESULT:      -8.5      2.554     10.333
REMARK  Name = 
REMARK  3 active torsions:
REMARK  status: ('A' for Active; 'I' for Inactive)
REMARK    1  A    between atoms: C_2  and  C_20
REMARK    2  A    between atoms: N_3  and  C_4
REMARK    3  A    between atoms: C_7  and  C_8
REMARK                            x       y       z     vdW  Elec       q    Type
REMARK                         _______ _______ _______ _____ _____    ______ ____
ROOT
ATOM      1  C   UNL     1       1.839   9.769  17.971  0.00  0.00    +0.000 A 
ATOM      2  C   UNL     1       2.366  11.029  18.262  0.00  0.00    +0.000 A 
ATOM      3  C   UNL     1       1.553  12.038  18.788  0.00  0.00    +0.000 A 
ATOM      4  C   UNL     1       0.195  11.808  19.028  0.00  0.00    +0.000 A 
ATOM      5  C   UNL     1      -0.346  10.574  18.645  0.00  0.00    +0.000 A 
ATOM      6  C   UNL     1       0.468   9.560  18.129  0.00  0.00    +0.000 A 
ENDROOT
BRANCH   4   7
ATOM      7  C   UNL     1      -0.608  12.858  19.657  0.00  0.00    +0.000 A 
ATOM      8  N   UNL     1      -0.654  14.117  19.263  0.00  0.00    +0.000 NA
ATOM      9  N   UNL     1      -1.531  14.797  20.064  0.00  0.00    +0.000 NA
ATOM     10  C   UNL     1      -2.002  13.961  20.963  0.00  0.00    +0.000 A 
ATOM     11  N   UNL     1      -1.392  12.740  20.789  0.00  0.00    +0.000 N 
ATOM     12  C   UNL     1      -1.505  11.575  21.645  0.00  0.00    +0.000 C 
ATOM     13  C   UNL     1      -1.659  11.880  23.128  0.00  0.00    +0.000 C 
ATOM     14  C   UNL     1      -3.078  12.275  23.530  0.00  0.00    +0.000 C 
ATOM     15  C   UNL     1      -3.830  13.140  22.519  0.00  0.00    +0.000 C 
ATOM     16  C   UNL     1      -3.012  14.316  22.000  0.00  0.00    +0.000 C 
ENDBRANCH   4   7
BRANCH   1  19
ATOM     17  O   UNL     1       2.460   7.272  19.362  0.00  0.00    +0.000 OA
ATOM     18  C   UNL     1       2.896   7.548  18.250  0.00  0.00    +0.000 C 
ATOM     19  N   UNL     1       2.616   8.684  17.518  0.00  0.00    +0.000 N 
ATOM     20  H   UNL     1       2.861   8.682  16.537  0.00  0.00    +0.000 HD
BRANCH  18  21
ATOM     21  C   UNL     1       3.758   6.533  17.590  0.00  0.00    +0.000 A 
ATOM     22  C   UNL     1       3.345   5.190  17.667  0.00  0.00    +0.000 A 
ATOM     23  C   UNL     1       4.153   4.145  17.212  0.00  0.00    +0.000 A 
ATOM     24  C   UNL     1       5.386   4.518  16.684  0.00  0.00    +0.000 A 
ATOM     25  N   UNL     1       6.461   3.805  16.233  0.00  0.00    +0.000 N 
ATOM     26  N   UNL     1       7.440   4.608  15.783  0.00  0.00    +0.000 NA
ATOM     27  N   UNL     1       7.048   5.861  15.978  0.00  0.00    +0.000 NA
ATOM     28  C   UNL     1       5.804   5.834  16.550  0.00  0.00    +0.000 A 
ATOM     29  C   UNL     1       4.987   6.878  17.005  0.00  0.00    +0.000 A 
ATOM     30  H   UNL     1       6.607   2.803  16.225  0.00  0.00    +0.000 HD
ENDBRANCH  18  21
ENDBRANCH   1  19
TORSDOF 3
ENDMDL
MODEL 8
REMARK VINA RESULT:      -8.5      1.514      2.395
REMARK  Name = 
REMARK  3 active torsions:
REMARK  status: ('A' for Active; 'I' for Inactive)
REMARK    1  A    between atoms: C_2  and  C_20
REMARK    2  A    between atoms: N_3  and  C_4
REMARK    3  A    between atoms: C_7  and  C_8
REMARK                            x       y       z     vdW  Elec       q    Type
REMARK                         _______ _______ _______ _____ _____    ______ ____
ROOT
ATOM      1  C   UNL     1       0.912   9.042  19.982  0.00  0.00    +0.000 A 
ATOM      2  C   UNL     1       1.237   9.112  18.626  0.00  0.00    +0.000 A 
ATOM      3  C   UNL     1       1.939   8.074  18.006  0.00  0.00    +0.000 A 
ATOM      4  C   UNL     1       2.337   6.948  18.732  0.00  0.00    +0.000 A 
ATOM      5  C   UNL     1       2.092   6.928  20.111  0.00  0.00    +0.000 A 
ATOM      6  C   UNL     1       1.379   7.960  20.730  0.00  0.00    +0.000 A 
ENDROOT
BRANCH   4   7
ATOM      7  C   UNL     1       2.997   5.842  18.035  0.00  0.00    +0.000 A 
ATOM      8  N   UNL     1       2.482   4.639  17.863  0.00  0.00    +0.000 NA
ATOM      9  N   UNL     1       3.365   3.881  17.143  0.00  0.00    +0.000 NA
ATOM     10  C   UNL     1       4.430   4.612  16.897  0.00  0.00    +0.000 A 
ATOM     11  N   UNL     1       4.272   5.836  17.504  0.00  0.00    +0.000 N 
ATOM     12  C   UNL     1       5.258   6.894  17.611  0.00  0.00    +0.000 C 
ATOM     13  C   UNL     1       6.698   6.418  17.751  0.00  0.00    +0.000 C 
ATOM     14  C   UNL     1       7.337   5.999  16.431  0.00  0.00    +0.000 C 
ATOM     15  C   UNL     1       6.414   5.268  15.457  0.00  0.00    +0.000 C 
ATOM     16  C   UNL     1       5.608   4.151  16.107  0.00  0.00    +0.000 C 
ENDBRANCH   4   7
BRANCH   1  19
ATOM     17  O   UNL     1       1.746  11.656  20.995  0.00  0.00    +0.000 OA
ATOM     18  C   UNL     1       0.611  11.213  21.132  0.00  0.00    +0.000 C 
ATOM     19  N   UNL     1       0.136  10.010  20.650  0.00  0.00    +0.000 N 
ATOM     20  H   UNL     1      -0.865   9.871  20.642  0.00  0.00    +0.000 HD
BRANCH  18  21
ATOM     21  C   UNL     1      -0.375  12.080  21.828  0.00  0.00    +0.000 A 
ATOM     22  C   UNL     1      -0.032  13.434  22.000  0.00  0.00    +0.000 A 
ATOM     23  C   UNL     1      -0.816  14.300  22.767  0.00  0.00    +0.000 A 
ATOM     24  C   UNL     1      -1.949  13.736  23.349  0.00  0.00    +0.000 A 
ATOM     25  N   UNL     1      -2.889  14.219  24.216  0.00  0.00    +0.000 N 
ATOM     26  N   UNL     1      -3.833  13.302  24.489  0.00  0.00    +0.000 NA
ATOM     27  N   UNL     1      -3.503  12.187  23.848  0.00  0.00    +0.000 NA
ATOM     28  C   UNL     1      -2.341  12.419  23.161  0.00  0.00    +0.000 A 
ATOM     29  C   UNL     1      -1.551  11.557  22.387  0.00  0.00    +0.000 A 
ATOM     30  H   UNL     1      -2.937  15.122  24.671  0.00  0.00    +0.000 HD
ENDBRANCH  18  21
ENDBRANCH   1  19
TORSDOF 3
ENDMDL
MODEL 9
REMARK VINA RESULT:      -8.5      2.026      2.986
REMARK  Name = 
REMARK  3 active torsions:
REMARK  status: ('A' for Active; 'I' for Inactive)
REMARK    1  A    between atoms: C_2  and  C_20
REMARK    2  A    between atoms: N_3  and  C_4
REMARK    3  A    between atoms: C_7  and  C_8
REMARK                            x       y       z     vdW  Elec       q    Type
REMARK                         _______ _______ _______ _____ _____    ______ ____
ROOT
ATOM      1  C   UNL     1       1.260   9.061  19.756  0.00  0.00    +0.000 A 
ATOM      2  C   UNL     1       1.646   9.090  18.414  0.00  0.00    +0.000 A 
ATOM      3  C   UNL     1       2.269   7.985  17.827  0.00  0.00    +0.000 A 
ATOM      4  C   UNL     1       2.525   6.830  18.572  0.00  0.00    +0.000 A 
ATOM      5  C   UNL     1       2.223   6.843  19.940  0.00  0.00    +0.000 A 
ATOM      6  C   UNL     1       1.588   7.944  20.526  0.00  0.00    +0.000 A 
ENDROOT
BRANCH   4   7
ATOM      7  C   UNL     1       3.103   5.661  17.906  0.00  0.00    +0.000 A 
ATOM      8  N   UNL     1       2.540   4.469  17.842  0.00  0.00    +0.000 NA
ATOM      9  N   UNL     1       3.350   3.638  17.117  0.00  0.00    +0.000 NA
ATOM     10  C   UNL     1       4.421   4.314  16.761  0.00  0.00    +0.000 A 
ATOM     11  N   UNL     1       4.341   5.577  17.298  0.00  0.00    +0.000 N 
ATOM     12  C   UNL     1       5.366   6.603  17.278  0.00  0.00    +0.000 C 
ATOM     13  C   UNL     1       6.795   6.085  17.358  0.00  0.00    +0.000 C 
ATOM     14  C   UNL     1       7.335   5.563  16.029  0.00  0.00    +0.000 C 
ATOM     15  C   UNL     1       6.328   4.809  15.162  0.00  0.00    +0.000 C 
ATOM     16  C   UNL     1       5.529   3.764  15.930  0.00  0.00    +0.000 C 
ENDBRANCH   4   7
BRANCH   1  19
ATOM     17  O   UNL     1      -1.345  10.185  19.044  0.00  0.00    +0.000 OA
ATOM     18  C   UNL     1      -0.661  10.607  19.970  0.00  0.00    +0.000 C 
ATOM     19  N   UNL     1       0.555  10.104  20.388  0.00  0.00    +0.000 N 
ATOM     20  H   UNL     1       0.899  10.401  21.290  0.00  0.00    +0.000 HD
BRANCH  18  21
ATOM     21  C   UNL     1      -1.221  11.728  20.769  0.00  0.00    +0.000 A 
ATOM     22  C   UNL     1      -2.303  12.436  20.215  0.00  0.00    +0.000 A 
ATOM     23  C   UNL     1      -2.806  13.596  20.810  0.00  0.00    +0.000 A 
ATOM     24  C   UNL     1      -2.168  14.003  21.979  0.00  0.00    +0.000 A 
ATOM     25  N   UNL     1      -2.304  15.101  22.782  0.00  0.00    +0.000 N 
ATOM     26  N   UNL     1      -1.473  15.054  23.837  0.00  0.00    +0.000 NA
ATOM     27  N   UNL     1      -0.741  13.952  23.719  0.00  0.00    +0.000 NA
ATOM     28  C   UNL     1      -1.130  13.302  22.578  0.00  0.00    +0.000 A 
ATOM     29  C   UNL     1      -0.633  12.138  21.977  0.00  0.00    +0.000 A 
ATOM     30  H   UNL     1      -2.901  15.909  22.664  0.00  0.00    +0.000 HD
ENDBRANCH  18  21
ENDBRANCH   1  19
TORSDOF 3
ENDMDL
