MODEL 1
REMARK VINA RESULT:      -9.8      0.000      0.000
REMARK  Name = 
REMARK  5 active torsions:
REMARK  status: ('A' for Active; 'I' for Inactive)
REMARK    1  A    between atoms: C_2  and  C_11
REMARK    2  A    between atoms: N_3  and  C_4
REMARK    3  A    between atoms: C_4  and  C_5
REMARK    4  A    between atoms: C_15  and  C_17
REMARK    5  A    between atoms: C_17  and  C_18
REMARK                            x       y       z     vdW  Elec       q    Type
REMARK                         _______ _______ _______ _____ _____    ______ ____
ROOT
ATOM      1  C   UNL     1       7.659   5.776  18.394  0.00  0.00    +0.000 C 
ATOM      2  C   UNL     1       7.342   4.542  17.536  0.00  0.00    +0.000 C 
ATOM      3  C   UNL     1       5.937   4.595  16.939  0.00  0.00    +0.000 C 
ATOM      4  N   UNL     1       4.938   4.832  17.980  0.00  0.00    +0.000 N 
ATOM      5  C   UNL     1       3.819   4.003  18.041  0.00  0.00    +0.000 C 
ATOM      6  O   UNL     1       3.731   3.033  17.276  0.00  0.00    +0.000 OA
ATOM      7  C   UNL     1       5.154   6.071  18.726  0.00  0.00    +0.000 C 
ATOM      8  C   UNL     1       6.526   6.039  19.398  0.00  0.00    +0.000 C 
ENDROOT
BRANCH   5   9
ATOM      9  C   UNL     1       2.664   4.294  19.061  0.00  0.00    +0.000 C 
ATOM     10  C   UNL     1       2.975   3.564  20.397  0.00  0.00    +0.000 C 
ATOM     11  C   UNL     1       1.648   3.072  20.979  0.00  0.00    +0.000 C 
ATOM     12  C   UNL     1       0.600   3.255  19.893  0.00  0.00    +0.000 C 
ATOM     13  C   UNL     1       1.381   3.542  18.619  0.00  0.00    +0.000 C 
BRANCH   9  14
ATOM     14  C   UNL     1       2.378   5.806  19.176  0.00  0.00    +0.000 A 
ATOM     15  C   UNL     1       2.260   6.637  18.048  0.00  0.00    +0.000 A 
ATOM     16  C   UNL     1       1.774   7.944  18.159  0.00  0.00    +0.000 A 
ATOM     17  C   UNL     1       1.390   8.442  19.399  0.00  0.00    +0.000 A 
ATOM     18  C   UNL     1       1.604   7.675  20.539  0.00  0.00    +0.000 A 
ATOM     19  C   UNL     1       2.132   6.387  20.436  0.00  0.00    +0.000 A 
ATOM     20  O   UNL     1       1.281   8.113  21.796  0.00  0.00    +0.000 OA
ATOM     21  C   UNL     1       0.189   9.035  21.727  0.00  0.00    +0.000 C 
ATOM     22  C   UNL     1       0.434  10.137  20.702  0.00  0.00    +0.000 C 
ATOM     23  O   UNL     1       0.773   9.661  19.398  0.00  0.00    +0.000 OA
ENDBRANCH   9  14
ENDBRANCH   5   9
BRANCH   1  25
ATOM     24  O   UNL     1       7.971   6.998  16.321  0.00  0.00    +0.000 OA
ATOM     25  C   UNL     1       7.959   7.015  17.548  0.00  0.00    +0.000 C 
ATOM     26  N   UNL     1       8.184   8.158  18.280  0.00  0.00    +0.000 N 
ATOM     27  H   UNL     1       8.065   8.144  19.283  0.00  0.00    +0.000 HD
BRANCH  26  28
ATOM     28  C   UNL     1       8.417   9.441  17.655  0.00  0.00    +0.000 C 
BRANCH  28  29
ATOM     29  C   UNL     1       9.284  10.314  18.525  0.00  0.00    +0.000 A 
ATOM     30  C   UNL     1       9.109  10.341  19.915  0.00  0.00    +0.000 A 
ATOM     31  C   UNL     1       9.919  11.149  20.716  0.00  0.00    +0.000 A 
ATOM     32  C   UNL     1      10.907  11.942  20.135  0.00  0.00    +0.000 A 
ATOM     33  C   UNL     1      11.082  11.934  18.753  0.00  0.00    +0.000 A 
ATOM     34  C   UNL     1      10.271  11.130  17.950  0.00  0.00    +0.000 A 
ENDBRANCH  28  29
ENDBRANCH  26  28
ENDBRANCH   1  25
TORSDOF 5
ENDMDL
MODEL 2
REMARK VINA RESULT:      -9.7      0.893      1.559
REMARK  Name = 
REMARK  5 active torsions:
REMARK  status: ('A' for Active; 'I' for Inactive)
REMARK    1  A    between atoms: C_2  and  C_11
REMARK    2  A    between atoms: N_3  and  C_4
REMARK    3  A    between atoms: C_4  and  C_5
REMARK    4  A    between atoms: C_15  and  C_17
REMARK    5  A    between atoms: C_17  and  C_18
REMARK                            x       y       z     vdW  Elec       q    Type
REMARK                         _______ _______ _______ _____ _____    ______ ____
ROOT
ATOM      1  C   UNL     1       7.679   5.789  18.349  0.00  0.00    +0.000 C 
ATOM      2  C   UNL     1       7.361   4.620  17.404  0.00  0.00    +0.000 C 
ATOM      3  C   UNL     1       5.892   4.596  16.984  0.00  0.00    +0.000 C 
ATOM      4  N   UNL     1       5.017   4.631  18.154  0.00  0.00    +0.000 N 
ATOM      5  C   UNL     1       3.988   3.695  18.254  0.00  0.00    +0.000 C 
ATOM      6  O   UNL     1       3.886   2.802  17.404  0.00  0.00    +0.000 OA
ATOM      7  C   UNL     1       5.220   5.806  19.001  0.00  0.00    +0.000 C 
ATOM      8  C   UNL     1       6.663   5.841  19.502  0.00  0.00    +0.000 C 
ENDROOT
BRANCH   5   9
ATOM      9  C   UNL     1       2.950   3.771  19.429  0.00  0.00    +0.000 C 
ATOM     10  C   UNL     1       3.616   3.233  20.725  0.00  0.00    +0.000 C 
ATOM     11  C   UNL     1       2.547   2.479  21.519  0.00  0.00    +0.000 C 
ATOM     12  C   UNL     1       1.346   2.328  20.600  0.00  0.00    +0.000 C 
ATOM     13  C   UNL     1       1.846   2.704  19.213  0.00  0.00    +0.000 C 
BRANCH   9  14
ATOM     14  C   UNL     1       2.317   5.175  19.534  0.00  0.00    +0.000 A 
ATOM     15  C   UNL     1       1.903   5.723  20.761  0.00  0.00    +0.000 A 
ATOM     16  C   UNL     1       1.551   7.072  20.869  0.00  0.00    +0.000 A 
ATOM     17  C   UNL     1       1.613   7.900  19.754  0.00  0.00    +0.000 A 
ATOM     18  C   UNL     1       1.912   7.352  18.512  0.00  0.00    +0.000 A 
ATOM     19  C   UNL     1       2.219   5.995  18.393  0.00  0.00    +0.000 A 
ATOM     20  O   UNL     1       1.960   8.100  17.365  0.00  0.00    +0.000 OA
ATOM     21  C   UNL     1       2.320   9.449  17.677  0.00  0.00    +0.000 C 
ATOM     22  C   UNL     1       1.456  10.030  18.791  0.00  0.00    +0.000 C 
ATOM     23  O   UNL     1       1.416   9.234  19.977  0.00  0.00    +0.000 OA
ENDBRANCH   9  14
ENDBRANCH   5   9
BRANCH   1  25
ATOM     24  O   UNL     1       7.405   7.274  16.450  0.00  0.00    +0.000 OA
ATOM     25  C   UNL     1       7.764   7.128  17.615  0.00  0.00    +0.000 C 
ATOM     26  N   UNL     1       8.249   8.162  18.380  0.00  0.00    +0.000 N 
ATOM     27  H   UNL     1       8.437   8.016  19.362  0.00  0.00    +0.000 HD
BRANCH  26  28
ATOM     28  C   UNL     1       8.340   9.516  17.881  0.00  0.00    +0.000 C 
BRANCH  28  29
ATOM     29  C   UNL     1       9.281  10.340  18.722  0.00  0.00    +0.000 A 
ATOM     30  C   UNL     1       9.065  10.493  20.098  0.00  0.00    +0.000 A 
ATOM     31  C   UNL     1       9.943  11.254  20.873  0.00  0.00    +0.000 A 
ATOM     32  C   UNL     1      11.042  11.872  20.279  0.00  0.00    +0.000 A 
ATOM     33  C   UNL     1      11.260  11.738  18.909  0.00  0.00    +0.000 A 
ATOM     34  C   UNL     1      10.381  10.981  18.132  0.00  0.00    +0.000 A 
ENDBRANCH  28  29
ENDBRANCH  26  28
ENDBRANCH   1  25
TORSDOF 5
ENDMDL
MODEL 3
REMARK VINA RESULT:      -9.1      3.254      5.727
REMARK  Name = 
REMARK  5 active torsions:
REMARK  status: ('A' for Active; 'I' for Inactive)
REMARK    1  A    between atoms: C_2  and  C_11
REMARK    2  A    between atoms: N_3  and  C_4
REMARK    3  A    between atoms: C_4  and  C_5
REMARK    4  A    between atoms: C_15  and  C_17
REMARK    5  A    between atoms: C_17  and  C_18
REMARK                            x       y       z     vdW  Elec       q    Type
REMARK                         _______ _______ _______ _____ _____    ______ ____
ROOT
ATOM      1  C   UNL     1       6.680   5.965  15.764  0.00  0.00    +0.000 C 
ATOM      2  C   UNL     1       7.307   5.685  17.139  0.00  0.00    +0.000 C 
ATOM      3  C   UNL     1       6.591   4.561  17.886  0.00  0.00    +0.000 C 
ATOM      4  N   UNL     1       5.155   4.821  17.962  0.00  0.00    +0.000 N 
ATOM      5  C   UNL     1       4.517   4.721  19.199  0.00  0.00    +0.000 C 
ATOM      6  O   UNL     1       5.184   4.504  20.218  0.00  0.00    +0.000 OA
ATOM      7  C   UNL     1       4.516   4.966  16.655  0.00  0.00    +0.000 C 
ATOM      8  C   UNL     1       5.156   6.124  15.891  0.00  0.00    +0.000 C 
ENDROOT
BRANCH   5   9
ATOM      9  C   UNL     1       2.959   4.871  19.308  0.00  0.00    +0.000 C 
ATOM     10  C   UNL     1       2.448   3.980  20.472  0.00  0.00    +0.000 C 
ATOM     11  C   UNL     1       1.089   3.407  20.059  0.00  0.00    +0.000 C 
ATOM     12  C   UNL     1       0.916   3.720  18.581  0.00  0.00    +0.000 C 
ATOM     13  C   UNL     1       2.286   4.173  18.098  0.00  0.00    +0.000 C 
BRANCH   9  14
ATOM     14  C   UNL     1       2.536   6.355  19.365  0.00  0.00    +0.000 A 
ATOM     15  C   UNL     1       2.510   7.174  18.223  0.00  0.00    +0.000 A 
ATOM     16  C   UNL     1       1.907   8.435  18.250  0.00  0.00    +0.000 A 
ATOM     17  C   UNL     1       1.314   8.899  19.418  0.00  0.00    +0.000 A 
ATOM     18  C   UNL     1       1.427   8.152  20.585  0.00  0.00    +0.000 A 
ATOM     19  C   UNL     1       2.069   6.912  20.571  0.00  0.00    +0.000 A 
ATOM     20  O   UNL     1       0.896   8.561  21.780  0.00  0.00    +0.000 OA
ATOM     21  C   UNL     1      -0.247   9.389  21.549  0.00  0.00    +0.000 C 
ATOM     22  C   UNL     1       0.048  10.508  20.556  0.00  0.00    +0.000 C 
ATOM     23  O   UNL     1       0.604  10.063  19.318  0.00  0.00    +0.000 OA
ENDBRANCH   9  14
ENDBRANCH   5   9
BRANCH   1  25
ATOM     24  O   UNL     1       6.941   3.700  14.934  0.00  0.00    +0.000 OA
ATOM     25  C   UNL     1       7.050   4.904  14.726  0.00  0.00    +0.000 C 
ATOM     26  N   UNL     1       7.487   5.416  13.526  0.00  0.00    +0.000 N 
ATOM     27  H   UNL     1       7.464   6.414  13.367  0.00  0.00    +0.000 HD
BRANCH  26  28
ATOM     28  C   UNL     1       7.818   4.571  12.401  0.00  0.00    +0.000 C 
BRANCH  28  29
ATOM     29  C   UNL     1       6.633   3.737  11.986  0.00  0.00    +0.000 A 
ATOM     30  C   UNL     1       5.342   4.283  11.971  0.00  0.00    +0.000 A 
ATOM     31  C   UNL     1       4.249   3.506  11.581  0.00  0.00    +0.000 A 
ATOM     32  C   UNL     1       4.434   2.176  11.208  0.00  0.00    +0.000 A 
ATOM     33  C   UNL     1       5.711   1.618  11.232  0.00  0.00    +0.000 A 
ATOM     34  C   UNL     1       6.805   2.392  11.626  0.00  0.00    +0.000 A 
ENDBRANCH  28  29
ENDBRANCH  26  28
ENDBRANCH   1  25
TORSDOF 5
ENDMDL
MODEL 4
REMARK VINA RESULT:      -9.1      3.260      5.881
REMARK  Name = 
REMARK  5 active torsions:
REMARK  status: ('A' for Active; 'I' for Inactive)
REMARK    1  A    between atoms: C_2  and  C_11
REMARK    2  A    between atoms: N_3  and  C_4
REMARK    3  A    between atoms: C_4  and  C_5
REMARK    4  A    between atoms: C_15  and  C_17
REMARK    5  A    between atoms: C_17  and  C_18
REMARK                            x       y       z     vdW  Elec       q    Type
REMARK                         _______ _______ _______ _____ _____    ______ ____
ROOT
ATOM      1  C   UNL     1       6.453   6.020  15.853  0.00  0.00    +0.000 C 
ATOM      2  C   UNL     1       7.067   5.923  17.257  0.00  0.00    +0.000 C 
ATOM      3  C   UNL     1       6.510   4.745  18.055  0.00  0.00    +0.000 C 
ATOM      4  N   UNL     1       5.049   4.778  18.078  0.00  0.00    +0.000 N 
ATOM      5  C   UNL     1       4.392   4.651  19.302  0.00  0.00    +0.000 C 
ATOM      6  O   UNL     1       5.049   4.601  20.349  0.00  0.00    +0.000 OA
ATOM      7  C   UNL     1       4.442   4.744  16.748  0.00  0.00    +0.000 C 
ATOM      8  C   UNL     1       4.919   5.943  15.929  0.00  0.00    +0.000 C 
ENDROOT
BRANCH   5   9
ATOM      9  C   UNL     1       2.827   4.559  19.362  0.00  0.00    +0.000 C 
ATOM     10  C   UNL     1       2.424   3.533  20.456  0.00  0.00    +0.000 C 
ATOM     11  C   UNL     1       1.180   2.789  19.962  0.00  0.00    +0.000 C 
ATOM     12  C   UNL     1       1.003   3.160  18.499  0.00  0.00    +0.000 C 
ATOM     13  C   UNL     1       2.302   3.841  18.092  0.00  0.00    +0.000 C 
BRANCH   9  14
ATOM     14  C   UNL     1       2.182   5.956  19.484  0.00  0.00    +0.000 A 
ATOM     15  C   UNL     1       1.656   6.439  20.695  0.00  0.00    +0.000 A 
ATOM     16  C   UNL     1       1.292   7.781  20.843  0.00  0.00    +0.000 A 
ATOM     17  C   UNL     1       1.453   8.667  19.785  0.00  0.00    +0.000 A 
ATOM     18  C   UNL     1       1.866   8.186  18.547  0.00  0.00    +0.000 A 
ATOM     19  C   UNL     1       2.187   6.837  18.385  0.00  0.00    +0.000 A 
ATOM     20  O   UNL     1       2.016   8.995  17.451  0.00  0.00    +0.000 OA
ATOM     21  C   UNL     1       2.341  10.324  17.866  0.00  0.00    +0.000 C 
ATOM     22  C   UNL     1       1.377  10.845  18.927  0.00  0.00    +0.000 C 
ATOM     23  O   UNL     1       1.232   9.988  20.060  0.00  0.00    +0.000 OA
ENDBRANCH   9  14
ENDBRANCH   5   9
BRANCH   1  25
ATOM     24  O   UNL     1       7.137   3.788  15.191  0.00  0.00    +0.000 OA
ATOM     25  C   UNL     1       7.020   4.973  14.892  0.00  0.00    +0.000 C 
ATOM     26  N   UNL     1       7.360   5.466  13.655  0.00  0.00    +0.000 N 
ATOM     27  H   UNL     1       7.153   6.427  13.422  0.00  0.00    +0.000 HD
BRANCH  26  28
ATOM     28  C   UNL     1       7.850   4.616  12.592  0.00  0.00    +0.000 C 
BRANCH  28  29
ATOM     29  C   UNL     1       6.762   3.702  12.089  0.00  0.00    +0.000 A 
ATOM     30  C   UNL     1       5.419   4.103  12.115  0.00  0.00    +0.000 A 
ATOM     31  C   UNL     1       4.417   3.254  11.643  0.00  0.00    +0.000 A 
ATOM     32  C   UNL     1       4.746   1.995  11.144  0.00  0.00    +0.000 A 
ATOM     33  C   UNL     1       6.076   1.579  11.125  0.00  0.00    +0.000 A 
ATOM     34  C   UNL     1       7.080   2.426  11.600  0.00  0.00    +0.000 A 
ENDBRANCH  28  29
ENDBRANCH  26  28
ENDBRANCH   1  25
TORSDOF 5
ENDMDL
MODEL 5
REMARK VINA RESULT:      -9.0      3.635      7.164
REMARK  Name = 
REMARK  5 active torsions:
REMARK  status: ('A' for Active; 'I' for Inactive)
REMARK    1  A    between atoms: C_2  and  C_11
REMARK    2  A    between atoms: N_3  and  C_4
REMARK    3  A    between atoms: C_4  and  C_5
REMARK    4  A    between atoms: C_15  and  C_17
REMARK    5  A    between atoms: C_17  and  C_18
REMARK                            x       y       z     vdW  Elec       q    Type
REMARK                         _______ _______ _______ _____ _____    ______ ____
ROOT
ATOM      1  C   UNL     1       0.811   9.766  18.449  0.00  0.00    +0.000 C 
ATOM      2  C   UNL     1       0.571   9.343  19.906  0.00  0.00    +0.000 C 
ATOM      3  C   UNL     1       1.723   8.511  20.466  0.00  0.00    +0.000 C 
ATOM      4  N   UNL     1       2.019   7.378  19.590  0.00  0.00    +0.000 N 
ATOM      5  C   UNL     1       2.122   6.104  20.148  0.00  0.00    +0.000 C 
ATOM      6  O   UNL     1       1.877   5.938  21.350  0.00  0.00    +0.000 OA
ATOM      7  C   UNL     1       2.373   7.771  18.227  0.00  0.00    +0.000 C 
ATOM      8  C   UNL     1       1.222   8.554  17.598  0.00  0.00    +0.000 C 
ENDROOT
BRANCH   5   9
ATOM      9  C   UNL     1       2.558   4.880  19.269  0.00  0.00    +0.000 C 
ATOM     10  C   UNL     1       1.364   4.454  18.371  0.00  0.00    +0.000 C 
ATOM     11  C   UNL     1       1.392   2.928  18.251  0.00  0.00    +0.000 C 
ATOM     12  C   UNL     1       2.404   2.430  19.270  0.00  0.00    +0.000 C 
ATOM     13  C   UNL     1       2.701   3.623  20.166  0.00  0.00    +0.000 C 
BRANCH   9  14
ATOM     14  C   UNL     1       3.885   5.157  18.531  0.00  0.00    +0.000 A 
ATOM     15  C   UNL     1       5.092   5.384  19.215  0.00  0.00    +0.000 A 
ATOM     16  C   UNL     1       6.316   5.400  18.538  0.00  0.00    +0.000 A 
ATOM     17  C   UNL     1       6.356   5.184  17.165  0.00  0.00    +0.000 A 
ATOM     18  C   UNL     1       5.165   5.069  16.457  0.00  0.00    +0.000 A 
ATOM     19  C   UNL     1       3.940   5.098  17.125  0.00  0.00    +0.000 A 
ATOM     20  O   UNL     1       5.127   4.887  15.099  0.00  0.00    +0.000 OA
ATOM     21  C   UNL     1       6.306   4.206  14.664  0.00  0.00    +0.000 C 
ATOM     22  C   UNL     1       7.576   4.866  15.192  0.00  0.00    +0.000 C 
ATOM     23  O   UNL     1       7.597   5.050  16.608  0.00  0.00    +0.000 OA
ENDBRANCH   9  14
ENDBRANCH   5   9
BRANCH   1  25
ATOM     24  O   UNL     1       2.747  10.896  17.521  0.00  0.00    +0.000 OA
ATOM     25  C   UNL     1       1.824  10.906  18.330  0.00  0.00    +0.000 C 
ATOM     26  N   UNL     1       1.595  11.957  19.186  0.00  0.00    +0.000 N 
ATOM     27  H   UNL     1       0.766  11.964  19.763  0.00  0.00    +0.000 HD
BRANCH  26  28
ATOM     28  C   UNL     1       2.407  13.154  19.173  0.00  0.00    +0.000 C 
BRANCH  28  29
ATOM     29  C   UNL     1       1.547  14.388  19.070  0.00  0.00    +0.000 A 
ATOM     30  C   UNL     1       2.109  15.627  18.735  0.00  0.00    +0.000 A 
ATOM     31  C   UNL     1       1.307  16.765  18.637  0.00  0.00    +0.000 A 
ATOM     32  C   UNL     1      -0.063  16.677  18.877  0.00  0.00    +0.000 A 
ATOM     33  C   UNL     1      -0.632  15.453  19.224  0.00  0.00    +0.000 A 
ATOM     34  C   UNL     1       0.170  14.314  19.327  0.00  0.00    +0.000 A 
ENDBRANCH  28  29
ENDBRANCH  26  28
ENDBRANCH   1  25
TORSDOF 5
ENDMDL
MODEL 6
REMARK VINA RESULT:      -8.5      3.632      6.984
REMARK  Name = 
REMARK  5 active torsions:
REMARK  status: ('A' for Active; 'I' for Inactive)
REMARK    1  A    between atoms: C_2  and  C_11
REMARK    2  A    between atoms: N_3  and  C_4
REMARK    3  A    between atoms: C_4  and  C_5
REMARK    4  A    between atoms: C_15  and  C_17
REMARK    5  A    between atoms: C_17  and  C_18
REMARK                            x       y       z     vdW  Elec       q    Type
REMARK                         _______ _______ _______ _____ _____    ______ ____
ROOT
ATOM      1  C   UNL     1       0.818   9.664  18.469  0.00  0.00    +0.000 C 
ATOM      2  C   UNL     1       0.605   9.231  19.927  0.00  0.00    +0.000 C 
ATOM      3  C   UNL     1       1.774   8.407  20.465  0.00  0.00    +0.000 C 
ATOM      4  N   UNL     1       2.069   7.283  19.578  0.00  0.00    +0.000 N 
ATOM      5  C   UNL     1       2.194   6.006  20.127  0.00  0.00    +0.000 C 
ATOM      6  O   UNL     1       1.969   5.832  21.331  0.00  0.00    +0.000 OA
ATOM      7  C   UNL     1       2.397   7.686  18.211  0.00  0.00    +0.000 C 
ATOM      8  C   UNL     1       1.229   8.461  17.604  0.00  0.00    +0.000 C 
ENDROOT
BRANCH   5   9
ATOM      9  C   UNL     1       2.628   4.792  19.234  0.00  0.00    +0.000 C 
ATOM     10  C   UNL     1       1.421   4.348  18.364  0.00  0.00    +0.000 C 
ATOM     11  C   UNL     1       1.471   2.823  18.240  0.00  0.00    +0.000 C 
ATOM     12  C   UNL     1       2.515   2.339  19.233  0.00  0.00    +0.000 C 
ATOM     13  C   UNL     1       2.814   3.536  20.124  0.00  0.00    +0.000 C 
BRANCH   9  14
ATOM     14  C   UNL     1       3.933   5.093  18.465  0.00  0.00    +0.000 A 
ATOM     15  C   UNL     1       5.149   5.351  19.120  0.00  0.00    +0.000 A 
ATOM     16  C   UNL     1       6.357   5.389  18.415  0.00  0.00    +0.000 A 
ATOM     17  C   UNL     1       6.371   5.165  17.044  0.00  0.00    +0.000 A 
ATOM     18  C   UNL     1       5.167   5.020  16.363  0.00  0.00    +0.000 A 
ATOM     19  C   UNL     1       3.957   5.027  17.058  0.00  0.00    +0.000 A 
ATOM     20  O   UNL     1       5.102   4.828  15.008  0.00  0.00    +0.000 OA
ATOM     21  C   UNL     1       6.287   4.170  14.550  0.00  0.00    +0.000 C 
ATOM     22  C   UNL     1       7.553   4.860  15.045  0.00  0.00    +0.000 C 
ATOM     23  O   UNL     1       7.602   5.054  16.459  0.00  0.00    +0.000 OA
ENDBRANCH   9  14
ENDBRANCH   5   9
BRANCH   1  25
ATOM     24  O   UNL     1       2.762  10.794  17.557  0.00  0.00    +0.000 OA
ATOM     25  C   UNL     1       1.817  10.815  18.340  0.00  0.00    +0.000 C 
ATOM     26  N   UNL     1       1.550  11.889  19.156  0.00  0.00    +0.000 N 
ATOM     27  H   UNL     1       0.705  11.902  19.710  0.00  0.00    +0.000 HD
BRANCH  26  28
ATOM     28  C   UNL     1       2.344  13.097  19.126  0.00  0.00    +0.000 C 
BRANCH  28  29
ATOM     29  C   UNL     1       1.818  14.113  20.108  0.00  0.00    +0.000 A 
ATOM     30  C   UNL     1       2.599  14.533  21.193  0.00  0.00    +0.000 A 
ATOM     31  C   UNL     1       2.107  15.478  22.096  0.00  0.00    +0.000 A 
ATOM     32  C   UNL     1       0.829  16.007  21.927  0.00  0.00    +0.000 A 
ATOM     33  C   UNL     1       0.038  15.587  20.859  0.00  0.00    +0.000 A 
ATOM     34  C   UNL     1       0.527  14.640  19.957  0.00  0.00    +0.000 A 
ENDBRANCH  28  29
ENDBRANCH  26  28
ENDBRANCH   1  25
TORSDOF 5
ENDMDL
MODEL 7
REMARK VINA RESULT:      -8.4      3.173      6.146
REMARK  Name = 
REMARK  5 active torsions:
REMARK  status: ('A' for Active; 'I' for Inactive)
REMARK    1  A    between atoms: C_2  and  C_11
REMARK    2  A    between atoms: N_3  and  C_4
REMARK    3  A    between atoms: C_4  and  C_5
REMARK    4  A    between atoms: C_15  and  C_17
REMARK    5  A    between atoms: C_17  and  C_18
REMARK                            x       y       z     vdW  Elec       q    Type
REMARK                         _______ _______ _______ _____ _____    ______ ____
ROOT
ATOM      1  C   UNL     1       6.521   6.313  15.701  0.00  0.00    +0.000 C 
ATOM      2  C   UNL     1       7.218   6.108  17.055  0.00  0.00    +0.000 C 
ATOM      3  C   UNL     1       6.788   4.813  17.740  0.00  0.00    +0.000 C 
ATOM      4  N   UNL     1       5.331   4.735  17.837  0.00  0.00    +0.000 N 
ATOM      5  C   UNL     1       4.753   4.427  19.069  0.00  0.00    +0.000 C 
ATOM      6  O   UNL     1       5.470   4.311  20.071  0.00  0.00    +0.000 OA
ATOM      7  C   UNL     1       4.654   4.803  16.543  0.00  0.00    +0.000 C 
ATOM      8  C   UNL     1       5.003   6.116  15.843  0.00  0.00    +0.000 C 
ENDROOT
BRANCH   5   9
ATOM      9  C   UNL     1       3.204   4.215  19.193  0.00  0.00    +0.000 C 
ATOM     10  C   UNL     1       2.928   3.142  20.282  0.00  0.00    +0.000 C 
ATOM     11  C   UNL     1       1.724   2.314  19.827  0.00  0.00    +0.000 C 
ATOM     12  C   UNL     1       1.456   2.695  18.380  0.00  0.00    +0.000 C 
ATOM     13  C   UNL     1       2.680   3.480  17.932  0.00  0.00    +0.000 C 
BRANCH   9  14
ATOM     14  C   UNL     1       2.461   5.556  19.371  0.00  0.00    +0.000 A 
ATOM     15  C   UNL     1       1.924   5.960  20.605  0.00  0.00    +0.000 A 
ATOM     16  C   UNL     1       1.465   7.267  20.802  0.00  0.00    +0.000 A 
ATOM     17  C   UNL     1       1.542   8.195  19.771  0.00  0.00    +0.000 A 
ATOM     18  C   UNL     1       1.966   7.785  18.512  0.00  0.00    +0.000 A 
ATOM     19  C   UNL     1       2.381   6.469  18.301  0.00  0.00    +0.000 A 
ATOM     20  O   UNL     1       2.036   8.636  17.441  0.00  0.00    +0.000 OA
ATOM     21  C   UNL     1       2.271   9.972  17.893  0.00  0.00    +0.000 C 
ATOM     22  C   UNL     1       1.291  10.388  18.986  0.00  0.00    +0.000 C 
ATOM     23  O   UNL     1       1.230   9.487  20.093  0.00  0.00    +0.000 OA
ENDBRANCH   9  14
ENDBRANCH   5   9
BRANCH   1  25
ATOM     24  O   UNL     1       8.221   5.594  14.127  0.00  0.00    +0.000 OA
ATOM     25  C   UNL     1       7.103   5.422  14.602  0.00  0.00    +0.000 C 
ATOM     26  N   UNL     1       6.278   4.393  14.214  0.00  0.00    +0.000 N 
ATOM     27  H   UNL     1       5.409   4.232  14.704  0.00  0.00    +0.000 HD
BRANCH  26  28
ATOM     28  C   UNL     1       6.682   3.407  13.236  0.00  0.00    +0.000 C 
BRANCH  28  29
ATOM     29  C   UNL     1       5.586   3.166  12.229  0.00  0.00    +0.000 A 
ATOM     30  C   UNL     1       5.539   1.974  11.493  0.00  0.00    +0.000 A 
ATOM     31  C   UNL     1       4.518   1.755  10.565  0.00  0.00    +0.000 A 
ATOM     32  C   UNL     1       3.539   2.725  10.361  0.00  0.00    +0.000 A 
ATOM     33  C   UNL     1       3.584   3.920  11.077  0.00  0.00    +0.000 A 
ATOM     34  C   UNL     1       4.605   4.143  12.002  0.00  0.00    +0.000 A 
ENDBRANCH  28  29
ENDBRANCH  26  28
ENDBRANCH   1  25
TORSDOF 5
ENDMDL
MODEL 8
REMARK VINA RESULT:      -8.4      4.603      9.740
REMARK  Name = 
REMARK  5 active torsions:
REMARK  status: ('A' for Active; 'I' for Inactive)
REMARK    1  A    between atoms: C_2  and  C_11
REMARK    2  A    between atoms: N_3  and  C_4
REMARK    3  A    between atoms: C_4  and  C_5
REMARK    4  A    between atoms: C_15  and  C_17
REMARK    5  A    between atoms: C_17  and  C_18
REMARK                            x       y       z     vdW  Elec       q    Type
REMARK                         _______ _______ _______ _____ _____    ______ ____
ROOT
ATOM      1  C   UNL     1      -0.198   9.618  20.928  0.00  0.00    +0.000 C 
ATOM      2  C   UNL     1      -0.692   9.883  19.497  0.00  0.00    +0.000 C 
ATOM      3  C   UNL     1       0.156  10.928  18.775  0.00  0.00    +0.000 C 
ATOM      4  N   UNL     1       0.264  12.150  19.572  0.00  0.00    +0.000 N 
ATOM      5  C   UNL     1      -0.006  13.376  18.964  0.00  0.00    +0.000 C 
ATOM      6  O   UNL     1      -0.415  13.406  17.796  0.00  0.00    +0.000 OA
ATOM      7  C   UNL     1       0.849  11.936  20.894  0.00  0.00    +0.000 C 
ATOM      8  C   UNL     1      -0.001  10.942  21.683  0.00  0.00    +0.000 C 
ENDROOT
BRANCH   5   9
ATOM      9  C   UNL     1       0.214  14.719  19.744  0.00  0.00    +0.000 C 
ATOM     10  C   UNL     1      -0.601  14.675  21.065  0.00  0.00    +0.000 C 
ATOM     11  C   UNL     1      -1.134  16.085  21.332  0.00  0.00    +0.000 C 
ATOM     12  C   UNL     1      -0.882  16.892  20.069  0.00  0.00    +0.000 C 
ATOM     13  C   UNL     1      -0.510  15.873  19.002  0.00  0.00    +0.000 C 
BRANCH   9  14
ATOM     14  C   UNL     1       1.715  15.046  19.894  0.00  0.00    +0.000 A 
ATOM     15  C   UNL     1       2.350  15.106  21.147  0.00  0.00    +0.000 A 
ATOM     16  C   UNL     1       3.743  15.172  21.249  0.00  0.00    +0.000 A 
ATOM     17  C   UNL     1       4.528  15.172  20.102  0.00  0.00    +0.000 A 
ATOM     18  C   UNL     1       3.915  15.226  18.855  0.00  0.00    +0.000 A 
ATOM     19  C   UNL     1       2.523  15.207  18.751  0.00  0.00    +0.000 A 
ATOM     20  O   UNL     1       4.623  15.261  17.684  0.00  0.00    +0.000 OA
ATOM     21  C   UNL     1       5.882  14.602  17.853  0.00  0.00    +0.000 C 
ATOM     22  C   UNL     1       6.634  15.111  19.079  0.00  0.00    +0.000 C 
ATOM     23  O   UNL     1       5.878  15.070  20.290  0.00  0.00    +0.000 OA
ENDBRANCH   9  14
ENDBRANCH   5   9
BRANCH   1  25
ATOM     24  O   UNL     1       1.744   8.608  21.973  0.00  0.00    +0.000 OA
ATOM     25  C   UNL     1       1.067   8.759  20.961  0.00  0.00    +0.000 C 
ATOM     26  N   UNL     1       1.366   8.147  19.767  0.00  0.00    +0.000 N 
ATOM     27  H   UNL     1       0.725   8.221  18.989  0.00  0.00    +0.000 HD
BRANCH  26  28
ATOM     28  C   UNL     1       2.486   7.243  19.621  0.00  0.00    +0.000 C 
BRANCH  28  29
ATOM     29  C   UNL     1       2.014   5.821  19.464  0.00  0.00    +0.000 A 
ATOM     30  C   UNL     1       1.525   5.101  20.563  0.00  0.00    +0.000 A 
ATOM     31  C   UNL     1       1.085   3.785  20.409  0.00  0.00    +0.000 A 
ATOM     32  C   UNL     1       1.134   3.173  19.158  0.00  0.00    +0.000 A 
ATOM     33  C   UNL     1       1.631   3.874  18.060  0.00  0.00    +0.000 A 
ATOM     34  C   UNL     1       2.075   5.189  18.213  0.00  0.00    +0.000 A 
ENDBRANCH  28  29
ENDBRANCH  26  28
ENDBRANCH   1  25
TORSDOF 5
ENDMDL
MODEL 9
REMARK VINA RESULT:      -8.3      3.966      7.019
REMARK  Name = 
REMARK  5 active torsions:
REMARK  status: ('A' for Active; 'I' for Inactive)
REMARK    1  A    between atoms: C_2  and  C_11
REMARK    2  A    between atoms: N_3  and  C_4
REMARK    3  A    between atoms: C_4  and  C_5
REMARK    4  A    between atoms: C_15  and  C_17
REMARK    5  A    between atoms: C_17  and  C_18
REMARK                            x       y       z     vdW  Elec       q    Type
REMARK                         _______ _______ _______ _____ _____    ______ ____
ROOT
ATOM      1  C   UNL     1       4.317   6.192  18.414  0.00  0.00    +0.000 C 
ATOM      2  C   UNL     1       3.585   6.050  19.757  0.00  0.00    +0.000 C 
ATOM      3  C   UNL     1       2.127   6.500  19.674  0.00  0.00    +0.000 C 
ATOM      4  N   UNL     1       2.030   7.848  19.117  0.00  0.00    +0.000 N 
ATOM      5  C   UNL     1       1.262   8.800  19.787  0.00  0.00    +0.000 C 
ATOM      6  O   UNL     1       0.751   8.518  20.878  0.00  0.00    +0.000 OA
ATOM      7  C   UNL     1       2.613   7.972  17.782  0.00  0.00    +0.000 C 
ATOM      8  C   UNL     1       4.092   7.594  17.825  0.00  0.00    +0.000 C 
ENDROOT
BRANCH   5   9
ATOM      9  C   UNL     1       1.030  10.221  19.165  0.00  0.00    +0.000 C 
ATOM     10  C   UNL     1       2.078  10.457  18.043  0.00  0.00    +0.000 C 
ATOM     11  C   UNL     1       2.476  11.935  18.080  0.00  0.00    +0.000 C 
ATOM     12  C   UNL     1       1.895  12.510  19.361  0.00  0.00    +0.000 C 
ATOM     13  C   UNL     1       1.457  11.308  20.185  0.00  0.00    +0.000 C 
BRANCH   9  14
ATOM     14  C   UNL     1      -0.445  10.427  18.758  0.00  0.00    +0.000 A 
ATOM     15  C   UNL     1      -1.320  11.247  19.492  0.00  0.00    +0.000 A 
ATOM     16  C   UNL     1      -2.573  11.604  18.984  0.00  0.00    +0.000 A 
ATOM     17  C   UNL     1      -2.972  11.155  17.731  0.00  0.00    +0.000 A 
ATOM     18  C   UNL     1      -2.168  10.254  17.041  0.00  0.00    +0.000 A 
ATOM     19  C   UNL     1      -0.937   9.859  17.566  0.00  0.00    +0.000 A 
ATOM     20  O   UNL     1      -2.512   9.743  15.817  0.00  0.00    +0.000 OA
ATOM     21  C   UNL     1      -3.339  10.674  15.114  0.00  0.00    +0.000 C 
ATOM     22  C   UNL     1      -4.510  11.156  15.964  0.00  0.00    +0.000 C 
ATOM     23  O   UNL     1      -4.133  11.682  17.238  0.00  0.00    +0.000 OA
ENDBRANCH   9  14
ENDBRANCH   5   9
BRANCH   1  25
ATOM     24  O   UNL     1       2.843   4.530  17.438  0.00  0.00    +0.000 OA
ATOM     25  C   UNL     1       3.932   5.096  17.419  0.00  0.00    +0.000 C 
ATOM     26  N   UNL     1       4.899   4.820  16.481  0.00  0.00    +0.000 N 
ATOM     27  H   UNL     1       5.738   5.381  16.444  0.00  0.00    +0.000 HD
BRANCH  26  28
ATOM     28  C   UNL     1       4.692   3.862  15.418  0.00  0.00    +0.000 C 
BRANCH  28  29
ATOM     29  C   UNL     1       5.669   4.086  14.292  0.00  0.00    +0.000 A 
ATOM     30  C   UNL     1       6.760   4.952  14.451  0.00  0.00    +0.000 A 
ATOM     31  C   UNL     1       7.664   5.151  13.406  0.00  0.00    +0.000 A 
ATOM     32  C   UNL     1       7.485   4.492  12.192  0.00  0.00    +0.000 A 
ATOM     33  C   UNL     1       6.396   3.638  12.017  0.00  0.00    +0.000 A 
ATOM     34  C   UNL     1       5.489   3.441  13.060  0.00  0.00    +0.000 A 
ENDBRANCH  28  29
ENDBRANCH  26  28
ENDBRANCH   1  25
TORSDOF 5
ENDMDL
