MODEL 1
REMARK VINA RESULT:      -9.6      0.000      0.000
REMARK  Name = 
REMARK  7 active torsions:
REMARK  status: ('A' for Active; 'I' for Inactive)
REMARK    1  A    between atoms: C_1  and  C_2
REMARK    2  A    between atoms: C_5  and  N_6
REMARK    3  A    between atoms: N_6  and  C_7
REMARK    4  A    between atoms: C_7  and  C_8
REMARK    5  A    between atoms: C_23  and  N_24
REMARK    6  A    between atoms: N_24  and  S_25
REMARK    7  A    between atoms: S_25  and  C_26
REMARK                            x       y       z     vdW  Elec       q    Type
REMARK                         _______ _______ _______ _____ _____    ______ ____
ROOT
ATOM      1  N   UNL     1       3.450   2.581  17.681  0.00  0.00    +0.000 N 
ATOM      2  H   UNL     1       3.533   1.671  18.125  0.00  0.00    +0.000 HD
ENDROOT
BRANCH   1   7
ATOM      3  C   UNL     1       8.075   5.896  18.658  0.00  0.00    +0.000 C 
ATOM      4  C   UNL     1       6.862   5.066  18.340  0.00  0.00    +0.000 A 
ATOM      5  C   UNL     1       5.946   4.805  19.370  0.00  0.00    +0.000 A 
ATOM      6  C   UNL     1       4.819   3.994  19.167  0.00  0.00    +0.000 A 
ATOM      7  C   UNL     1       4.571   3.387  17.937  0.00  0.00    +0.000 A 
ATOM      8  C   UNL     1       5.469   3.693  16.891  0.00  0.00    +0.000 A 
ATOM      9  C   UNL     1       6.615   4.492  17.085  0.00  0.00    +0.000 A 
BRANCH   9  10
ATOM     10  N   UNL     1       7.519   4.675  15.980  0.00  0.00    +0.000 N 
ATOM     11  H   UNL     1       8.379   5.177  16.212  0.00  0.00    +0.000 HD
BRANCH  10  12
ATOM     12  S   UNL     1       6.916   5.286  14.521  0.00  0.00    +0.000 S 
ATOM     13  C   UNL     1       6.247   3.827  13.745  0.00  0.00    +0.000 C 
ATOM     14  O   UNL     1       5.841   6.219  14.777  0.00  0.00    +0.000 OA
ATOM     15  O   UNL     1       8.083   5.681  13.757  0.00  0.00    +0.000 OA
ENDBRANCH  10  12
ENDBRANCH   9  10
ENDBRANCH   1   7
BRANCH   1  16
ATOM     16  C   UNL     1       2.052   3.076  17.699  0.00  0.00    +0.000 C 
BRANCH  16  17
ATOM     17  C   UNL     1       1.779   3.942  18.903  0.00  0.00    +0.000 A 
ATOM     18  C   UNL     1       0.857   3.549  19.813  0.00  0.00    +0.000 A 
ATOM     19  C   UNL     1       1.461   3.618  21.173  0.00  0.00    +0.000 A 
ATOM     20  O   UNL     1       1.384   2.691  21.959  0.00  0.00    +0.000 OA
ATOM     21  O   UNL     1       2.033   4.839  21.486  0.00  0.00    +0.000 OA
ATOM     22  C   UNL     1       2.061   5.792  20.451  0.00  0.00    +0.000 A 
ATOM     23  C   UNL     1       1.794   7.097  20.827  0.00  0.00    +0.000 A 
ATOM     24  C   UNL     1       1.666   8.009  19.808  0.00  0.00    +0.000 A 
ATOM     25  C   UNL     1       2.020   7.690  18.491  0.00  0.00    +0.000 A 
ATOM     26  C   UNL     1       2.270   6.363  18.112  0.00  0.00    +0.000 A 
ATOM     27  C   UNL     1       2.144   5.374  19.097  0.00  0.00    +0.000 A 
ATOM     28  C   UNL     1       1.947   8.921  17.636  0.00  0.00    +0.000 C 
ATOM     29  C   UNL     1       1.369   9.996  18.585  0.00  0.00    +0.000 C 
ATOM     30  C   UNL     1       0.946   9.314  19.884  0.00  0.00    +0.000 C 
ENDBRANCH  16  17
ENDBRANCH   1  16
TORSDOF 5
ENDMDL
MODEL 2
REMARK VINA RESULT:      -9.6      3.171      4.827
REMARK  Name = 
REMARK  7 active torsions:
REMARK  status: ('A' for Active; 'I' for Inactive)
REMARK    1  A    between atoms: C_1  and  C_2
REMARK    2  A    between atoms: C_5  and  N_6
REMARK    3  A    between atoms: N_6  and  C_7
REMARK    4  A    between atoms: C_7  and  C_8
REMARK    5  A    between atoms: C_23  and  N_24
REMARK    6  A    between atoms: N_24  and  S_25
REMARK    7  A    between atoms: S_25  and  C_26
REMARK                            x       y       z     vdW  Elec       q    Type
REMARK                         _______ _______ _______ _____ _____    ______ ____
ROOT
ATOM      1  N   UNL     1       2.220   6.874  20.375  0.00  0.00    +0.000 N 
ATOM      2  H   UNL     1       2.761   7.113  21.202  0.00  0.00    +0.000 HD
ENDROOT
BRANCH   1   7
ATOM      3  C   UNL     1       3.753   1.706  18.307  0.00  0.00    +0.000 C 
ATOM      4  C   UNL     1       3.414   3.052  18.886  0.00  0.00    +0.000 A 
ATOM      5  C   UNL     1       2.081   3.308  19.238  0.00  0.00    +0.000 A 
ATOM      6  C   UNL     1       1.675   4.556  19.733  0.00  0.00    +0.000 A 
ATOM      7  C   UNL     1       2.575   5.612  19.871  0.00  0.00    +0.000 A 
ATOM      8  C   UNL     1       3.924   5.335  19.561  0.00  0.00    +0.000 A 
ATOM      9  C   UNL     1       4.343   4.089  19.046  0.00  0.00    +0.000 A 
BRANCH   9  10
ATOM     10  N   UNL     1       5.725   3.930  18.677  0.00  0.00    +0.000 N 
ATOM     11  H   UNL     1       6.379   3.940  19.463  0.00  0.00    +0.000 HD
BRANCH  10  12
ATOM     12  S   UNL     1       6.359   4.894  17.437  0.00  0.00    +0.000 S 
ATOM     13  C   UNL     1       5.306   4.481  16.059  0.00  0.00    +0.000 C 
ATOM     14  O   UNL     1       6.189   6.294  17.757  0.00  0.00    +0.000 OA
ATOM     15  O   UNL     1       7.670   4.344  17.155  0.00  0.00    +0.000 OA
ENDBRANCH  10  12
ENDBRANCH   9  10
ENDBRANCH   1   7
BRANCH   1  16
ATOM     16  C   UNL     1       1.960   8.063  19.527  0.00  0.00    +0.000 C 
BRANCH  16  17
ATOM     17  C   UNL     1       0.901   8.955  20.125  0.00  0.00    +0.000 A 
ATOM     18  C   UNL     1       0.372   8.648  21.332  0.00  0.00    +0.000 A 
ATOM     19  C   UNL     1       0.433   9.853  22.207  0.00  0.00    +0.000 A 
ATOM     20  O   UNL     1       0.875   9.804  23.340  0.00  0.00    +0.000 OA
ATOM     21  O   UNL     1      -0.126  10.992  21.653  0.00  0.00    +0.000 OA
ATOM     22  C   UNL     1      -0.567  10.880  20.321  0.00  0.00    +0.000 A 
ATOM     23  C   UNL     1      -1.758  11.520  20.026  0.00  0.00    +0.000 A 
ATOM     24  C   UNL     1      -2.276  11.291  18.774  0.00  0.00    +0.000 A 
ATOM     25  C   UNL     1      -1.529  10.648  17.779  0.00  0.00    +0.000 A 
ATOM     26  C   UNL     1      -0.333   9.985  18.089  0.00  0.00    +0.000 A 
ATOM     27  C   UNL     1       0.078   9.985  19.428  0.00  0.00    +0.000 A 
ATOM     28  C   UNL     1      -2.274  10.698  16.477  0.00  0.00    +0.000 C 
ATOM     29  C   UNL     1      -3.631  11.337  16.853  0.00  0.00    +0.000 C 
ATOM     30  C   UNL     1      -3.704  11.453  18.373  0.00  0.00    +0.000 C 
ENDBRANCH  16  17
ENDBRANCH   1  16
TORSDOF 5
ENDMDL
MODEL 3
REMARK VINA RESULT:      -9.5      4.521      7.704
REMARK  Name = 
REMARK  7 active torsions:
REMARK  status: ('A' for Active; 'I' for Inactive)
REMARK    1  A    between atoms: C_1  and  C_2
REMARK    2  A    between atoms: C_5  and  N_6
REMARK    3  A    between atoms: N_6  and  C_7
REMARK    4  A    between atoms: C_7  and  C_8
REMARK    5  A    between atoms: C_23  and  N_24
REMARK    6  A    between atoms: N_24  and  S_25
REMARK    7  A    between atoms: S_25  and  C_26
REMARK                            x       y       z     vdW  Elec       q    Type
REMARK                         _______ _______ _______ _____ _____    ______ ____
ROOT
ATOM      1  N   UNL     1       1.698   8.475  19.141  0.00  0.00    +0.000 N 
ATOM      2  H   UNL     1       2.502   8.794  18.609  0.00  0.00    +0.000 HD
ENDROOT
BRANCH   1   7
ATOM      3  C   UNL     1      -2.181  12.691  19.858  0.00  0.00    +0.000 C 
ATOM      4  C   UNL     1      -1.218  11.559  19.628  0.00  0.00    +0.000 A 
ATOM      5  C   UNL     1      -0.465  11.095  20.717  0.00  0.00    +0.000 A 
ATOM      6  C   UNL     1       0.493  10.080  20.574  0.00  0.00    +0.000 A 
ATOM      7  C   UNL     1       0.761   9.503  19.333  0.00  0.00    +0.000 A 
ATOM      8  C   UNL     1      -0.033   9.938  18.250  0.00  0.00    +0.000 A 
ATOM      9  C   UNL     1      -0.987  10.970  18.377  0.00  0.00    +0.000 A 
BRANCH   9  10
ATOM     10  N   UNL     1      -1.687  11.406  17.197  0.00  0.00    +0.000 N 
ATOM     11  H   UNL     1      -1.766  12.421  17.100  0.00  0.00    +0.000 HD
BRANCH  10  12
ATOM     12  S   UNL     1      -3.185  10.712  16.827  0.00  0.00    +0.000 S 
ATOM     13  C   UNL     1      -3.041  10.405  15.077  0.00  0.00    +0.000 C 
ATOM     14  O   UNL     1      -3.333   9.449  17.516  0.00  0.00    +0.000 OA
ATOM     15  O   UNL     1      -4.155  11.775  16.998  0.00  0.00    +0.000 OA
ENDBRANCH  10  12
ENDBRANCH   9  10
ENDBRANCH   1   7
BRANCH   1  16
ATOM     16  C   UNL     1       2.085   7.500  20.190  0.00  0.00    +0.000 C 
BRANCH  16  17
ATOM     17  C   UNL     1       2.332   6.128  19.615  0.00  0.00    +0.000 A 
ATOM     18  C   UNL     1       2.337   5.051  20.435  0.00  0.00    +0.000 A 
ATOM     19  C   UNL     1       1.436   4.008  19.867  0.00  0.00    +0.000 A 
ATOM     20  O   UNL     1       0.590   3.451  20.543  0.00  0.00    +0.000 OA
ATOM     21  O   UNL     1       1.701   3.677  18.549  0.00  0.00    +0.000 OA
ATOM     22  C   UNL     1       2.696   4.438  17.908  0.00  0.00    +0.000 A 
ATOM     23  C   UNL     1       3.547   3.735  17.073  0.00  0.00    +0.000 A 
ATOM     24  C   UNL     1       4.613   4.435  16.564  0.00  0.00    +0.000 A 
ATOM     25  C   UNL     1       4.700   5.828  16.686  0.00  0.00    +0.000 A 
ATOM     26  C   UNL     1       3.848   6.532  17.549  0.00  0.00    +0.000 A 
ATOM     27  C   UNL     1       2.916   5.789  18.285  0.00  0.00    +0.000 A 
ATOM     28  C   UNL     1       5.867   6.333  15.887  0.00  0.00    +0.000 C 
ATOM     29  C   UNL     1       6.552   5.044  15.379  0.00  0.00    +0.000 C 
ATOM     30  C   UNL     1       5.886   3.847  16.053  0.00  0.00    +0.000 C 
ENDBRANCH  16  17
ENDBRANCH   1  16
TORSDOF 5
ENDMDL
MODEL 4
REMARK VINA RESULT:      -9.4      4.444      8.063
REMARK  Name = 
REMARK  7 active torsions:
REMARK  status: ('A' for Active; 'I' for Inactive)
REMARK    1  A    between atoms: C_1  and  C_2
REMARK    2  A    between atoms: C_5  and  N_6
REMARK    3  A    between atoms: N_6  and  C_7
REMARK    4  A    between atoms: C_7  and  C_8
REMARK    5  A    between atoms: C_23  and  N_24
REMARK    6  A    between atoms: N_24  and  S_25
REMARK    7  A    between atoms: S_25  and  C_26
REMARK                            x       y       z     vdW  Elec       q    Type
REMARK                         _______ _______ _______ _____ _____    ______ ____
ROOT
ATOM      1  N   UNL     1       1.900   8.546  18.935  0.00  0.00    +0.000 N 
ATOM      2  H   UNL     1       1.631   7.621  19.260  0.00  0.00    +0.000 HD
ENDROOT
BRANCH   1   7
ATOM      3  C   UNL     1      -2.286  12.423  19.822  0.00  0.00    +0.000 C 
ATOM      4  C   UNL     1      -1.241  11.376  19.549  0.00  0.00    +0.000 A 
ATOM      5  C   UNL     1      -0.429  10.954  20.612  0.00  0.00    +0.000 A 
ATOM      6  C   UNL     1       0.604  10.021  20.426  0.00  0.00    +0.000 A 
ATOM      7  C   UNL     1       0.889   9.492  19.168  0.00  0.00    +0.000 A 
ATOM      8  C   UNL     1       0.037   9.882  18.112  0.00  0.00    +0.000 A 
ATOM      9  C   UNL     1      -0.993  10.832  18.281  0.00  0.00    +0.000 A 
BRANCH   9  10
ATOM     10  N   UNL     1      -1.752  11.233  17.125  0.00  0.00    +0.000 N 
ATOM     11  H   UNL     1      -2.052  12.210  17.132  0.00  0.00    +0.000 HD
BRANCH  10  12
ATOM     12  S   UNL     1      -3.055  10.274  16.626  0.00  0.00    +0.000 S 
ATOM     13  C   UNL     1      -4.399  11.444  16.599  0.00  0.00    +0.000 C 
ATOM     14  O   UNL     1      -2.829   9.784  15.284  0.00  0.00    +0.000 OA
ATOM     15  O   UNL     1      -3.303   9.360  17.724  0.00  0.00    +0.000 OA
ENDBRANCH  10  12
ENDBRANCH   9  10
ENDBRANCH   1   7
BRANCH   1  16
ATOM     16  C   UNL     1       2.701   8.478  17.689  0.00  0.00    +0.000 C 
BRANCH  16  17
ATOM     17  C   UNL     1       3.604   7.271  17.669  0.00  0.00    +0.000 A 
ATOM     18  C   UNL     1       4.513   7.133  16.676  0.00  0.00    +0.000 A 
ATOM     19  C   UNL     1       5.847   6.852  17.277  0.00  0.00    +0.000 A 
ATOM     20  O   UNL     1       6.845   7.467  16.947  0.00  0.00    +0.000 OA
ATOM     21  O   UNL     1       5.864   5.790  18.166  0.00  0.00    +0.000 OA
ATOM     22  C   UNL     1       4.616   5.207  18.455  0.00  0.00    +0.000 A 
ATOM     23  C   UNL     1       4.607   3.827  18.561  0.00  0.00    +0.000 A 
ATOM     24  C   UNL     1       3.373   3.236  18.689  0.00  0.00    +0.000 A 
ATOM     25  C   UNL     1       2.221   3.992  18.939  0.00  0.00    +0.000 A 
ATOM     26  C   UNL     1       2.232   5.389  18.810  0.00  0.00    +0.000 A 
ATOM     27  C   UNL     1       3.434   5.993  18.417  0.00  0.00    +0.000 A 
ATOM     28  C   UNL     1       1.064   3.075  19.209  0.00  0.00    +0.000 C 
ATOM     29  C   UNL     1       1.643   1.665  18.952  0.00  0.00    +0.000 C 
ATOM     30  C   UNL     1       3.041   1.819  18.359  0.00  0.00    +0.000 C 
ENDBRANCH  16  17
ENDBRANCH   1  16
TORSDOF 5
ENDMDL
MODEL 5
REMARK VINA RESULT:      -9.3      3.578      5.327
REMARK  Name = 
REMARK  7 active torsions:
REMARK  status: ('A' for Active; 'I' for Inactive)
REMARK    1  A    between atoms: C_1  and  C_2
REMARK    2  A    between atoms: C_5  and  N_6
REMARK    3  A    between atoms: N_6  and  C_7
REMARK    4  A    between atoms: C_7  and  C_8
REMARK    5  A    between atoms: C_23  and  N_24
REMARK    6  A    between atoms: N_24  and  S_25
REMARK    7  A    between atoms: S_25  and  C_26
REMARK                            x       y       z     vdW  Elec       q    Type
REMARK                         _______ _______ _______ _____ _____    ______ ____
ROOT
ATOM      1  N   UNL     1       1.757   7.576  20.468  0.00  0.00    +0.000 N 
ATOM      2  H   UNL     1       2.125   7.796  21.389  0.00  0.00    +0.000 HD
ENDROOT
BRANCH   1   7
ATOM      3  C   UNL     1       3.822   2.571  18.464  0.00  0.00    +0.000 C 
ATOM      4  C   UNL     1       3.349   3.904  18.974  0.00  0.00    +0.000 A 
ATOM      5  C   UNL     1       2.527   3.928  20.111  0.00  0.00    +0.000 A 
ATOM      6  C   UNL     1       2.001   5.127  20.616  0.00  0.00    +0.000 A 
ATOM      7  C   UNL     1       2.248   6.350  19.993  0.00  0.00    +0.000 A 
ATOM      8  C   UNL     1       3.115   6.326  18.878  0.00  0.00    +0.000 A 
ATOM      9  C   UNL     1       3.637   5.126  18.350  0.00  0.00    +0.000 A 
BRANCH   9  10
ATOM     10  N   UNL     1       4.441   5.195  17.158  0.00  0.00    +0.000 N 
ATOM     11  H   UNL     1       4.415   4.353  16.579  0.00  0.00    +0.000 HD
BRANCH  10  12
ATOM     12  S   UNL     1       6.048   5.714  17.281  0.00  0.00    +0.000 S 
ATOM     13  C   UNL     1       6.908   4.529  16.264  0.00  0.00    +0.000 C 
ATOM     14  O   UNL     1       6.193   7.029  16.698  0.00  0.00    +0.000 OA
ATOM     15  O   UNL     1       6.431   5.458  18.655  0.00  0.00    +0.000 OA
ENDBRANCH  10  12
ENDBRANCH   9  10
ENDBRANCH   1   7
BRANCH   1  16
ATOM     16  C   UNL     1       1.612   8.792  19.631  0.00  0.00    +0.000 C 
BRANCH  16  17
ATOM     17  C   UNL     1       0.395   9.595  20.017  0.00  0.00    +0.000 A 
ATOM     18  C   UNL     1      -0.209   9.363  21.206  0.00  0.00    +0.000 A 
ATOM     19  C   UNL     1      -0.388  10.661  21.917  0.00  0.00    +0.000 A 
ATOM     20  O   UNL     1      -0.058  10.808  23.080  0.00  0.00    +0.000 OA
ATOM     21  O   UNL     1      -1.028  11.638  21.175  0.00  0.00    +0.000 OA
ATOM     22  C   UNL     1      -1.316  11.309  19.837  0.00  0.00    +0.000 A 
ATOM     23  C   UNL     1      -2.543  11.740  19.362  0.00  0.00    +0.000 A 
ATOM     24  C   UNL     1      -2.901  11.295  18.113  0.00  0.00    +0.000 A 
ATOM     25  C   UNL     1      -1.984  10.647  17.276  0.00  0.00    +0.000 A 
ATOM     26  C   UNL     1      -0.750  10.196  17.768  0.00  0.00    +0.000 A 
ATOM     27  C   UNL     1      -0.478  10.412  19.125  0.00  0.00    +0.000 A 
ATOM     28  C   UNL     1      -2.595  10.439  15.921  0.00  0.00    +0.000 C 
ATOM     29  C   UNL     1      -4.053  10.925  16.096  0.00  0.00    +0.000 C 
ATOM     30  C   UNL     1      -4.291  11.210  17.577  0.00  0.00    +0.000 C 
ENDBRANCH  16  17
ENDBRANCH   1  16
TORSDOF 5
ENDMDL
MODEL 6
REMARK VINA RESULT:      -9.2      1.601      2.626
REMARK  Name = 
REMARK  7 active torsions:
REMARK  status: ('A' for Active; 'I' for Inactive)
REMARK    1  A    between atoms: C_1  and  C_2
REMARK    2  A    between atoms: C_5  and  N_6
REMARK    3  A    between atoms: N_6  and  C_7
REMARK    4  A    between atoms: C_7  and  C_8
REMARK    5  A    between atoms: C_23  and  N_24
REMARK    6  A    between atoms: N_24  and  S_25
REMARK    7  A    between atoms: S_25  and  C_26
REMARK                            x       y       z     vdW  Elec       q    Type
REMARK                         _______ _______ _______ _____ _____    ______ ____
ROOT
ATOM      1  N   UNL     1       4.219   3.231  17.324  0.00  0.00    +0.000 N 
ATOM      2  H   UNL     1       4.598   3.344  18.260  0.00  0.00    +0.000 HD
ENDROOT
BRANCH   1   7
ATOM      3  C   UNL     1       7.789   5.453  13.368  0.00  0.00    +0.000 C 
ATOM      4  C   UNL     1       6.914   4.875  14.446  0.00  0.00    +0.000 A 
ATOM      5  C   UNL     1       6.018   3.853  14.098  0.00  0.00    +0.000 A 
ATOM      6  C   UNL     1       5.130   3.300  15.034  0.00  0.00    +0.000 A 
ATOM      7  C   UNL     1       5.078   3.762  16.348  0.00  0.00    +0.000 A 
ATOM      8  C   UNL     1       6.015   4.756  16.706  0.00  0.00    +0.000 A 
ATOM      9  C   UNL     1       6.901   5.332  15.771  0.00  0.00    +0.000 A 
BRANCH   9  10
ATOM     10  N   UNL     1       7.760   6.401  16.210  0.00  0.00    +0.000 N 
ATOM     11  H   UNL     1       8.746   6.146  16.297  0.00  0.00    +0.000 HD
BRANCH  10  12
ATOM     12  S   UNL     1       7.315   7.304  17.571  0.00  0.00    +0.000 S 
ATOM     13  C   UNL     1       7.825   6.246  18.912  0.00  0.00    +0.000 C 
ATOM     14  O   UNL     1       8.075   8.533  17.624  0.00  0.00    +0.000 OA
ATOM     15  O   UNL     1       5.866   7.321  17.565  0.00  0.00    +0.000 OA
ENDBRANCH  10  12
ENDBRANCH   9  10
ENDBRANCH   1   7
BRANCH   1  16
ATOM     16  C   UNL     1       2.744   3.390  17.306  0.00  0.00    +0.000 C 
BRANCH  16  17
ATOM     17  C   UNL     1       2.244   4.112  18.532  0.00  0.00    +0.000 A 
ATOM     18  C   UNL     1       1.245   3.569  19.266  0.00  0.00    +0.000 A 
ATOM     19  C   UNL     1       1.656   3.545  20.699  0.00  0.00    +0.000 A 
ATOM     20  O   UNL     1       1.552   2.542  21.381  0.00  0.00    +0.000 OA
ATOM     21  O   UNL     1       2.079   4.767  21.194  0.00  0.00    +0.000 OA
ATOM     22  C   UNL     1       2.165   5.817  20.261  0.00  0.00    +0.000 A 
ATOM     23  C   UNL     1       1.743   7.057  20.709  0.00  0.00    +0.000 A 
ATOM     24  C   UNL     1       1.677   8.053  19.766  0.00  0.00    +0.000 A 
ATOM     25  C   UNL     1       2.227   7.890  18.488  0.00  0.00    +0.000 A 
ATOM     26  C   UNL     1       2.634   6.627  18.032  0.00  0.00    +0.000 A 
ATOM     27  C   UNL     1       2.461   5.540  18.900  0.00  0.00    +0.000 A 
ATOM     28  C   UNL     1       2.167   9.191  17.742  0.00  0.00    +0.000 C 
ATOM     29  C   UNL     1       1.381  10.124  18.692  0.00  0.00    +0.000 C 
ATOM     30  C   UNL     1       0.848   9.290  19.854  0.00  0.00    +0.000 C 
ENDBRANCH  16  17
ENDBRANCH   1  16
TORSDOF 5
ENDMDL
MODEL 7
REMARK VINA RESULT:      -9.2      3.230      5.148
REMARK  Name = 
REMARK  7 active torsions:
REMARK  status: ('A' for Active; 'I' for Inactive)
REMARK    1  A    between atoms: C_1  and  C_2
REMARK    2  A    between atoms: C_5  and  N_6
REMARK    3  A    between atoms: N_6  and  C_7
REMARK    4  A    between atoms: C_7  and  C_8
REMARK    5  A    between atoms: C_23  and  N_24
REMARK    6  A    between atoms: N_24  and  S_25
REMARK    7  A    between atoms: S_25  and  C_26
REMARK                            x       y       z     vdW  Elec       q    Type
REMARK                         _______ _______ _______ _____ _____    ______ ____
ROOT
ATOM      1  N   UNL     1       1.865   7.012  20.684  0.00  0.00    +0.000 N 
ATOM      2  H   UNL     1       2.398   7.236  21.520  0.00  0.00    +0.000 HD
ENDROOT
BRANCH   1   7
ATOM      3  C   UNL     1       3.083   1.729  18.698  0.00  0.00    +0.000 C 
ATOM      4  C   UNL     1       2.827   3.129  19.184  0.00  0.00    +0.000 A 
ATOM      5  C   UNL     1       2.333   3.301  20.486  0.00  0.00    +0.000 A 
ATOM      6  C   UNL     1       2.017   4.570  20.994  0.00  0.00    +0.000 A 
ATOM      7  C   UNL     1       2.153   5.720  20.216  0.00  0.00    +0.000 A 
ATOM      8  C   UNL     1       2.696   5.547  18.924  0.00  0.00    +0.000 A 
ATOM      9  C   UNL     1       3.001   4.275  18.395  0.00  0.00    +0.000 A 
BRANCH   9  10
ATOM     10  N   UNL     1       3.468   4.192  17.036  0.00  0.00    +0.000 N 
ATOM     11  H   UNL     1       3.313   3.286  16.588  0.00  0.00    +0.000 HD
BRANCH  10  12
ATOM     12  S   UNL     1       5.038   4.710  16.675  0.00  0.00    +0.000 S 
ATOM     13  C   UNL     1       5.885   4.464  18.224  0.00  0.00    +0.000 C 
ATOM     14  O   UNL     1       5.629   3.850  15.673  0.00  0.00    +0.000 OA
ATOM     15  O   UNL     1       4.933   6.140  16.465  0.00  0.00    +0.000 OA
ENDBRANCH  10  12
ENDBRANCH   9  10
ENDBRANCH   1   7
BRANCH   1  16
ATOM     16  C   UNL     1       1.700   8.195  19.805  0.00  0.00    +0.000 C 
BRANCH  16  17
ATOM     17  C   UNL     1       0.591   9.098  20.283  0.00  0.00    +0.000 A 
ATOM     18  C   UNL     1      -0.021   8.837  21.462  0.00  0.00    +0.000 A 
ATOM     19  C   UNL     1      -0.037  10.080  22.284  0.00  0.00    +0.000 A 
ATOM     20  O   UNL     1       0.322  10.087  23.447  0.00  0.00    +0.000 OA
ATOM     21  O   UNL     1      -0.566  11.186  21.641  0.00  0.00    +0.000 OA
ATOM     22  C   UNL     1      -0.907  11.010  20.287  0.00  0.00    +0.000 A 
ATOM     23  C   UNL     1      -2.081  11.620  19.877  0.00  0.00    +0.000 A 
ATOM     24  C   UNL     1      -2.503  11.329  18.603  0.00  0.00    +0.000 A 
ATOM     25  C   UNL     1      -1.679  10.653  17.694  0.00  0.00    +0.000 A 
ATOM     26  C   UNL     1      -0.502  10.020  18.119  0.00  0.00    +0.000 A 
ATOM     27  C   UNL     1      -0.189  10.085  19.483  0.00  0.00    +0.000 A 
ATOM     28  C   UNL     1      -2.328  10.636  16.340  0.00  0.00    +0.000 C 
ATOM     29  C   UNL     1      -3.715  11.271  16.588  0.00  0.00    +0.000 C 
ATOM     30  C   UNL     1      -3.900  11.453  18.092  0.00  0.00    +0.000 C 
ENDBRANCH  16  17
ENDBRANCH   1  16
TORSDOF 5
ENDMDL
MODEL 8
REMARK VINA RESULT:      -9.2      4.553      7.827
REMARK  Name = 
REMARK  7 active torsions:
REMARK  status: ('A' for Active; 'I' for Inactive)
REMARK    1  A    between atoms: C_1  and  C_2
REMARK    2  A    between atoms: C_5  and  N_6
REMARK    3  A    between atoms: N_6  and  C_7
REMARK    4  A    between atoms: C_7  and  C_8
REMARK    5  A    between atoms: C_23  and  N_24
REMARK    6  A    between atoms: N_24  and  S_25
REMARK    7  A    between atoms: S_25  and  C_26
REMARK                            x       y       z     vdW  Elec       q    Type
REMARK                         _______ _______ _______ _____ _____    ______ ____
ROOT
ATOM      1  N   UNL     1       1.495   7.799  21.121  0.00  0.00    +0.000 N 
ATOM      2  H   UNL     1       1.010   6.932  21.333  0.00  0.00    +0.000 HD
ENDROOT
BRANCH   1   7
ATOM      3  C   UNL     1      -1.478  12.436  22.850  0.00  0.00    +0.000 C 
ATOM      4  C   UNL     1      -0.731  11.238  22.334  0.00  0.00    +0.000 A 
ATOM      5  C   UNL     1      -0.658  10.098  23.148  0.00  0.00    +0.000 A 
ATOM      6  C   UNL     1       0.066   8.959  22.761  0.00  0.00    +0.000 A 
ATOM      7  C   UNL     1       0.770   8.919  21.559  0.00  0.00    +0.000 A 
ATOM      8  C   UNL     1       0.653  10.050  20.721  0.00  0.00    +0.000 A 
ATOM      9  C   UNL     1      -0.056  11.207  21.105  0.00  0.00    +0.000 A 
BRANCH   9  10
ATOM     10  N   UNL     1      -0.045  12.343  20.221  0.00  0.00    +0.000 N 
ATOM     11  H   UNL     1      -0.217  12.118  19.238  0.00  0.00    +0.000 HD
BRANCH  10  12
ATOM     12  S   UNL     1       1.244  13.436  20.305  0.00  0.00    +0.000 S 
ATOM     13  C   UNL     1       0.447  14.919  20.893  0.00  0.00    +0.000 C 
ATOM     14  O   UNL     1       2.207  12.997  21.291  0.00  0.00    +0.000 OA
ATOM     15  O   UNL     1       1.637  13.675  18.931  0.00  0.00    +0.000 OA
ENDBRANCH  10  12
ENDBRANCH   9  10
ENDBRANCH   1   7
BRANCH   1  16
ATOM     16  C   UNL     1       2.205   7.727  19.821  0.00  0.00    +0.000 C 
BRANCH  16  17
ATOM     17  C   UNL     1       2.424   6.301  19.381  0.00  0.00    +0.000 A 
ATOM     18  C   UNL     1       2.408   5.308  20.300  0.00  0.00    +0.000 A 
ATOM     19  C   UNL     1       1.484   4.234  19.836  0.00  0.00    +0.000 A 
ATOM     20  O   UNL     1       0.628   3.763  20.562  0.00  0.00    +0.000 OA
ATOM     21  O   UNL     1       1.741   3.772  18.556  0.00  0.00    +0.000 OA
ATOM     22  C   UNL     1       2.750   4.448  17.845  0.00  0.00    +0.000 A 
ATOM     23  C   UNL     1       3.586   3.650  17.082  0.00  0.00    +0.000 A 
ATOM     24  C   UNL     1       4.666   4.276  16.508  0.00  0.00    +0.000 A 
ATOM     25  C   UNL     1       4.781   5.672  16.496  0.00  0.00    +0.000 A 
ATOM     26  C   UNL     1       3.945   6.473  17.287  0.00  0.00    +0.000 A 
ATOM     27  C   UNL     1       2.999   5.824  18.090  0.00  0.00    +0.000 A 
ATOM     28  C   UNL     1       5.956   6.074  15.652  0.00  0.00    +0.000 C 
ATOM     29  C   UNL     1       6.614   4.727  15.272  0.00  0.00    +0.000 C 
ATOM     30  C   UNL     1       5.925   3.615  16.058  0.00  0.00    +0.000 C 
ENDBRANCH  16  17
ENDBRANCH   1  16
TORSDOF 5
ENDMDL
MODEL 9
REMARK VINA RESULT:      -9.2      3.974      5.724
REMARK  Name = 
REMARK  7 active torsions:
REMARK  status: ('A' for Active; 'I' for Inactive)
REMARK    1  A    between atoms: C_1  and  C_2
REMARK    2  A    between atoms: C_5  and  N_6
REMARK    3  A    between atoms: N_6  and  C_7
REMARK    4  A    between atoms: C_7  and  C_8
REMARK    5  A    between atoms: C_23  and  N_24
REMARK    6  A    between atoms: N_24  and  S_25
REMARK    7  A    between atoms: S_25  and  C_26
REMARK                            x       y       z     vdW  Elec       q    Type
REMARK                         _______ _______ _______ _____ _____    ______ ____
ROOT
ATOM      1  N   UNL     1       2.276   8.572  18.358  0.00  0.00    +0.000 N 
ATOM      2  H   UNL     1       3.062   9.214  18.408  0.00  0.00    +0.000 HD
ENDROOT
BRANCH   1   7
ATOM      3  C   UNL     1       4.085   3.170  17.418  0.00  0.00    +0.000 C 
ATOM      4  C   UNL     1       3.676   4.590  17.699  0.00  0.00    +0.000 A 
ATOM      5  C   UNL     1       2.344   4.839  18.062  0.00  0.00    +0.000 A 
ATOM      6  C   UNL     1       1.871   6.141  18.286  0.00  0.00    +0.000 A 
ATOM      7  C   UNL     1       2.698   7.252  18.130  0.00  0.00    +0.000 A 
ATOM      8  C   UNL     1       4.049   6.993  17.812  0.00  0.00    +0.000 A 
ATOM      9  C   UNL     1       4.534   5.691  17.567  0.00  0.00    +0.000 A 
BRANCH   9  10
ATOM     10  N   UNL     1       5.906   5.535  17.163  0.00  0.00    +0.000 N 
ATOM     11  H   UNL     1       6.062   4.813  16.455  0.00  0.00    +0.000 HD
BRANCH  10  12
ATOM     12  S   UNL     1       7.101   5.388  18.353  0.00  0.00    +0.000 S 
ATOM     13  C   UNL     1       7.909   6.975  18.278  0.00  0.00    +0.000 C 
ATOM     14  O   UNL     1       6.491   5.231  19.655  0.00  0.00    +0.000 OA
ATOM     15  O   UNL     1       8.035   4.406  17.842  0.00  0.00    +0.000 OA
ENDBRANCH  10  12
ENDBRANCH   9  10
ENDBRANCH   1   7
BRANCH   1  16
ATOM     16  C   UNL     1       1.102   9.193  17.698  0.00  0.00    +0.000 C 
BRANCH  16  17
ATOM     17  C   UNL     1       0.252   9.963  18.677  0.00  0.00    +0.000 A 
ATOM     18  C   UNL     1       0.279   9.632  19.989  0.00  0.00    +0.000 A 
ATOM     19  C   UNL     1       0.517  10.864  20.793  0.00  0.00    +0.000 A 
ATOM     20  O   UNL     1       1.367  10.910  21.664  0.00  0.00    +0.000 OA
ATOM     21  O   UNL     1      -0.357  11.903  20.523  0.00  0.00    +0.000 OA
ATOM     22  C   UNL     1      -1.262  11.691  19.466  0.00  0.00    +0.000 A 
ATOM     23  C   UNL     1      -2.547  12.164  19.669  0.00  0.00    +0.000 A 
ATOM     24  C   UNL     1      -3.476  11.828  18.715  0.00  0.00    +0.000 A 
ATOM     25  C   UNL     1      -3.098  11.252  17.496  0.00  0.00    +0.000 A 
ATOM     26  C   UNL     1      -1.800  10.757  17.302  0.00  0.00    +0.000 A 
ATOM     27  C   UNL     1      -0.904  10.855  18.375  0.00  0.00    +0.000 A 
ATOM     28  C   UNL     1      -4.290  11.162  16.587  0.00  0.00    +0.000 C 
ATOM     29  C   UNL     1      -5.465  11.635  17.474  0.00  0.00    +0.000 C 
ATOM     30  C   UNL     1      -4.955  11.793  18.904  0.00  0.00    +0.000 C 
ENDBRANCH  16  17
ENDBRANCH   1  16
TORSDOF 5
ENDMDL
