MODEL 1
REMARK VINA RESULT:      -8.6      0.000      0.000
REMARK  Name = 
REMARK  6 active torsions:
REMARK  status: ('A' for Active; 'I' for Inactive)
REMARK    1  A    between atoms: C_1  and  C_2
REMARK    2  A    between atoms: C_5  and  N_6
REMARK    3  A    between atoms: N_9  and  C_10
REMARK    4  A    between atoms: C_10  and  C_11
REMARK    5  A    between atoms: C_14  and  C_15
REMARK    6  A    between atoms: C_24  and  C_25
REMARK                            x       y       z     vdW  Elec       q    Type
REMARK                         _______ _______ _______ _____ _____    ______ ____
ROOT
ATOM      1  N   UNL     1       9.540   9.978  19.875  0.00  0.00    +0.000 N 
ATOM      2  C   UNL     1       8.812   9.518  18.793  0.00  0.00    +0.000 C 
ATOM      3  O   UNL     1       8.377  10.191  17.869  0.00  0.00    +0.000 OA
ATOM      4  N   UNL     1       8.561   8.169  18.811  0.00  0.00    +0.000 N 
ATOM      5  H   UNL     1       9.838   9.296  20.555  0.00  0.00    +0.000 HD
ATOM      6  H   UNL     1       8.967   7.533  19.480  0.00  0.00    +0.000 HD
ENDROOT
BRANCH   1  11
ATOM      7  C   UNL     1      11.153  15.452  20.759  0.00  0.00    +0.000 C 
ATOM      8  C   UNL     1      10.669  14.039  20.569  0.00  0.00    +0.000 A 
ATOM      9  C   UNL     1      11.428  13.213  19.740  0.00  0.00    +0.000 A 
ATOM     10  C   UNL     1      11.056  11.890  19.509  0.00  0.00    +0.000 A 
ATOM     11  C   UNL     1       9.916  11.335  20.093  0.00  0.00    +0.000 A 
ATOM     12  C   UNL     1       9.137  12.160  20.924  0.00  0.00    +0.000 A 
ATOM     13  C   UNL     1       9.506  13.513  21.168  0.00  0.00    +0.000 A 
BRANCH  13  14
ATOM     14  C   UNL     1       8.695  14.373  22.090  0.00  0.00    +0.000 C 
ATOM     15  N   UNL     1       7.636  15.066  21.568  0.00  0.00    +0.000 N 
ATOM     16  O   UNL     1       8.951  14.494  23.281  0.00  0.00    +0.000 OA
ATOM     17  H   UNL     1       7.445  15.154  20.582  0.00  0.00    +0.000 HD
ATOM     18  H   UNL     1       7.187  15.715  22.202  0.00  0.00    +0.000 HD
ENDBRANCH  13  14
ENDBRANCH   1  11
BRANCH   4  19
ATOM     19  C   UNL     1       7.812   7.620  17.687  0.00  0.00    +0.000 C 
BRANCH  19  20
ATOM     20  C   UNL     1       7.095   6.370  18.038  0.00  0.00    +0.000 A 
ATOM     21  N   UNL     1       7.713   5.348  18.645  0.00  0.00    +0.000 NA
ATOM     22  O   UNL     1       6.691   4.416  18.821  0.00  0.00    +0.000 OA
ATOM     23  C   UNL     1       5.559   4.976  18.300  0.00  0.00    +0.000 A 
ATOM     24  N   UNL     1       5.756   6.178  17.798  0.00  0.00    +0.000 NA
BRANCH  23  25
ATOM     25  C   UNL     1       4.325   4.214  18.405  0.00  0.00    +0.000 A 
ATOM     26  C   UNL     1       3.671   3.820  17.227  0.00  0.00    +0.000 A 
ATOM     27  C   UNL     1       2.457   3.135  17.278  0.00  0.00    +0.000 A 
ATOM     28  C   UNL     1       1.882   2.834  18.509  0.00  0.00    +0.000 A 
ATOM     29  C   UNL     1       2.531   3.208  19.685  0.00  0.00    +0.000 A 
ATOM     30 BR   UNL     1       1.742   2.808  21.356  0.00  0.00    +0.000 Br
ATOM     31  C   UNL     1       3.748   3.889  19.641  0.00  0.00    +0.000 A 
ENDBRANCH  23  25
ENDBRANCH  19  20
ENDBRANCH   4  19
TORSDOF 5
ENDMDL
MODEL 2
REMARK VINA RESULT:      -8.6      1.666      2.074
REMARK  Name = 
REMARK  6 active torsions:
REMARK  status: ('A' for Active; 'I' for Inactive)
REMARK    1  A    between atoms: C_1  and  C_2
REMARK    2  A    between atoms: C_5  and  N_6
REMARK    3  A    between atoms: N_9  and  C_10
REMARK    4  A    between atoms: C_10  and  C_11
REMARK    5  A    between atoms: C_14  and  C_15
REMARK    6  A    between atoms: C_24  and  C_25
REMARK                            x       y       z     vdW  Elec       q    Type
REMARK                         _______ _______ _______ _____ _____    ______ ____
ROOT
ATOM      1  N   UNL     1       9.464  10.030  19.831  0.00  0.00    +0.000 N 
ATOM      2  C   UNL     1       8.702   9.528  18.791  0.00  0.00    +0.000 C 
ATOM      3  O   UNL     1       8.136  10.177  17.924  0.00  0.00    +0.000 OA
ATOM      4  N   UNL     1       8.583   8.161  18.787  0.00  0.00    +0.000 N 
ATOM      5  H   UNL     1       9.876   9.365  20.466  0.00  0.00    +0.000 HD
ATOM      6  H   UNL     1       9.097   7.551  19.404  0.00  0.00    +0.000 HD
ENDROOT
BRANCH   1  11
ATOM      7  C   UNL     1      10.444  15.634  20.826  0.00  0.00    +0.000 C 
ATOM      8  C   UNL     1      10.219  14.182  20.497  0.00  0.00    +0.000 A 
ATOM      9  C   UNL     1       9.723  13.368  21.516  0.00  0.00    +0.000 A 
ATOM     10  C   UNL     1       9.483  12.013  21.300  0.00  0.00    +0.000 A 
ATOM     11  C   UNL     1       9.725  11.412  20.063  0.00  0.00    +0.000 A 
ATOM     12  C   UNL     1      10.233  12.220  19.030  0.00  0.00    +0.000 A 
ATOM     13  C   UNL     1      10.483  13.606  19.238  0.00  0.00    +0.000 A 
BRANCH  13  14
ATOM     14  C   UNL     1      10.984  14.468  18.119  0.00  0.00    +0.000 C 
ATOM     15  N   UNL     1      12.333  14.531  17.901  0.00  0.00    +0.000 N 
ATOM     16  O   UNL     1      10.239  15.131  17.408  0.00  0.00    +0.000 OA
ATOM     17  H   UNL     1      13.028  14.151  18.525  0.00  0.00    +0.000 HD
ATOM     18  H   UNL     1      12.631  15.208  17.209  0.00  0.00    +0.000 HD
ENDBRANCH  13  14
ENDBRANCH   1  11
BRANCH   4  19
ATOM     19  C   UNL     1       7.806   7.569  17.704  0.00  0.00    +0.000 C 
BRANCH  19  20
ATOM     20  C   UNL     1       7.045   6.372  18.139  0.00  0.00    +0.000 A 
ATOM     21  N   UNL     1       7.557   5.486  19.003  0.00  0.00    +0.000 NA
ATOM     22  O   UNL     1       6.524   4.564  19.164  0.00  0.00    +0.000 OA
ATOM     23  C   UNL     1       5.493   4.992  18.378  0.00  0.00    +0.000 A 
ATOM     24  N   UNL     1       5.766   6.100  17.719  0.00  0.00    +0.000 NA
BRANCH  23  25
ATOM     25  C   UNL     1       4.262   4.219  18.406  0.00  0.00    +0.000 A 
ATOM     26  C   UNL     1       3.691   3.813  17.190  0.00  0.00    +0.000 A 
ATOM     27  C   UNL     1       2.482   3.116  17.165  0.00  0.00    +0.000 A 
ATOM     28  C   UNL     1       1.830   2.816  18.358  0.00  0.00    +0.000 A 
ATOM     29  C   UNL     1       2.397   3.203  19.571  0.00  0.00    +0.000 A 
ATOM     30 BR   UNL     1       1.504   2.803  21.189  0.00  0.00    +0.000 Br
ATOM     31  C   UNL     1       3.608   3.895  19.604  0.00  0.00    +0.000 A 
ENDBRANCH  23  25
ENDBRANCH  19  20
ENDBRANCH   4  19
TORSDOF 5
ENDMDL
MODEL 3
REMARK VINA RESULT:      -8.3      2.276      2.660
REMARK  Name = 
REMARK  6 active torsions:
REMARK  status: ('A' for Active; 'I' for Inactive)
REMARK    1  A    between atoms: C_1  and  C_2
REMARK    2  A    between atoms: C_5  and  N_6
REMARK    3  A    between atoms: N_9  and  C_10
REMARK    4  A    between atoms: C_10  and  C_11
REMARK    5  A    between atoms: C_14  and  C_15
REMARK    6  A    between atoms: C_24  and  C_25
REMARK                            x       y       z     vdW  Elec       q    Type
REMARK                         _______ _______ _______ _____ _____    ______ ____
ROOT
ATOM      1  N   UNL     1       8.518  10.852  17.789  0.00  0.00    +0.000 N 
ATOM      2  C   UNL     1       8.579   9.555  18.266  0.00  0.00    +0.000 C 
ATOM      3  O   UNL     1       9.210   9.167  19.239  0.00  0.00    +0.000 OA
ATOM      4  N   UNL     1       7.862   8.646  17.531  0.00  0.00    +0.000 N 
ATOM      5  H   UNL     1       7.945  11.018  16.976  0.00  0.00    +0.000 HD
ATOM      6  H   UNL     1       7.239   8.900  16.780  0.00  0.00    +0.000 HD
ENDROOT
BRANCH   1  11
ATOM      7  C   UNL     1      11.160  15.388  20.193  0.00  0.00    +0.000 C 
ATOM      8  C   UNL     1      10.495  14.231  19.498  0.00  0.00    +0.000 A 
ATOM      9  C   UNL     1       9.909  13.255  20.305  0.00  0.00    +0.000 A 
ATOM     10  C   UNL     1       9.270  12.150  19.748  0.00  0.00    +0.000 A 
ATOM     11  C   UNL     1       9.186  11.970  18.365  0.00  0.00    +0.000 A 
ATOM     12  C   UNL     1       9.780  12.943  17.541  0.00  0.00    +0.000 A 
ATOM     13  C   UNL     1      10.436  14.076  18.098  0.00  0.00    +0.000 A 
BRANCH  13  14
ATOM     14  C   UNL     1      11.028  15.130  17.211  0.00  0.00    +0.000 C 
ATOM     15  N   UNL     1      12.310  14.957  16.764  0.00  0.00    +0.000 N 
ATOM     16  O   UNL     1      10.421  16.143  16.888  0.00  0.00    +0.000 OA
ATOM     17  H   UNL     1      12.938  14.243  17.100  0.00  0.00    +0.000 HD
ATOM     18  H   UNL     1      12.704  15.742  16.261  0.00  0.00    +0.000 HD
ENDBRANCH  13  14
ENDBRANCH   1  11
BRANCH   4  19
ATOM     19  C   UNL     1       7.872   7.264  17.995  0.00  0.00    +0.000 C 
BRANCH  19  20
ATOM     20  C   UNL     1       6.591   6.566  17.732  0.00  0.00    +0.000 A 
ATOM     21  N   UNL     1       5.852   6.831  16.647  0.00  0.00    +0.000 NA
ATOM     22  O   UNL     1       4.779   5.949  16.767  0.00  0.00    +0.000 OA
ATOM     23  C   UNL     1       4.984   5.241  17.917  0.00  0.00    +0.000 A 
ATOM     24  N   UNL     1       6.084   5.588  18.553  0.00  0.00    +0.000 NA
BRANCH  23  25
ATOM     25  C   UNL     1       4.017   4.206  18.248  0.00  0.00    +0.000 A 
ATOM     26  C   UNL     1       3.554   3.362  17.227  0.00  0.00    +0.000 A 
ATOM     27  C   UNL     1       2.586   2.391  17.487  0.00  0.00    +0.000 A 
ATOM     28  C   UNL     1       2.070   2.253  18.772  0.00  0.00    +0.000 A 
ATOM     29  C   UNL     1       2.534   3.077  19.795  0.00  0.00    +0.000 A 
ATOM     30 BR   UNL     1       1.824   2.894  21.538  0.00  0.00    +0.000 Br
ATOM     31  C   UNL     1       3.506   4.047  19.544  0.00  0.00    +0.000 A 
ENDBRANCH  23  25
ENDBRANCH  19  20
ENDBRANCH   4  19
TORSDOF 5
ENDMDL
MODEL 4
REMARK VINA RESULT:      -8.2      7.072     10.753
REMARK  Name = 
REMARK  6 active torsions:
REMARK  status: ('A' for Active; 'I' for Inactive)
REMARK    1  A    between atoms: C_1  and  C_2
REMARK    2  A    between atoms: C_5  and  N_6
REMARK    3  A    between atoms: N_9  and  C_10
REMARK    4  A    between atoms: C_10  and  C_11
REMARK    5  A    between atoms: C_14  and  C_15
REMARK    6  A    between atoms: C_24  and  C_25
REMARK                            x       y       z     vdW  Elec       q    Type
REMARK                         _______ _______ _______ _____ _____    ______ ____
ROOT
ATOM      1  N   UNL     1       1.509   6.470  21.040  0.00  0.00    +0.000 N 
ATOM      2  C   UNL     1       1.644   7.785  20.630  0.00  0.00    +0.000 C 
ATOM      3  O   UNL     1       2.109   8.172  19.568  0.00  0.00    +0.000 OA
ATOM      4  N   UNL     1       1.220   8.711  21.550  0.00  0.00    +0.000 N 
ATOM      5  H   UNL     1       1.098   6.309  21.946  0.00  0.00    +0.000 HD
ATOM      6  H   UNL     1       0.735   8.473  22.402  0.00  0.00    +0.000 HD
ENDROOT
BRANCH   1  11
ATOM      7  C   UNL     1       3.014   1.793  18.006  0.00  0.00    +0.000 C 
ATOM      8  C   UNL     1       2.684   3.048  18.769  0.00  0.00    +0.000 A 
ATOM      9  C   UNL     1       1.478   3.066  19.472  0.00  0.00    +0.000 A 
ATOM     10  C   UNL     1       1.093   4.185  20.207  0.00  0.00    +0.000 A 
ATOM     11  C   UNL     1       1.890   5.330  20.275  0.00  0.00    +0.000 A 
ATOM     12  C   UNL     1       3.103   5.327  19.564  0.00  0.00    +0.000 A 
ATOM     13  C   UNL     1       3.509   4.191  18.809  0.00  0.00    +0.000 A 
BRANCH  13  14
ATOM     14  C   UNL     1       4.823   4.180  18.090  0.00  0.00    +0.000 C 
ATOM     15  N   UNL     1       5.954   3.895  18.807  0.00  0.00    +0.000 N 
ATOM     16  O   UNL     1       4.929   4.433  16.896  0.00  0.00    +0.000 OA
ATOM     17  H   UNL     1       5.988   3.831  19.813  0.00  0.00    +0.000 HD
ATOM     18  H   UNL     1       6.826   4.006  18.306  0.00  0.00    +0.000 HD
ENDBRANCH  13  14
ENDBRANCH   1  11
BRANCH   4  19
ATOM     19  C   UNL     1       1.320  10.114  21.169  0.00  0.00    +0.000 C 
BRANCH  19  20
ATOM     20  C   UNL     1       0.030  10.667  20.691  0.00  0.00    +0.000 A 
ATOM     21  N   UNL     1      -0.656  11.573  21.399  0.00  0.00    +0.000 NA
ATOM     22  O   UNL     1      -1.759  11.843  20.590  0.00  0.00    +0.000 OA
ATOM     23  C   UNL     1      -1.621  11.069  19.473  0.00  0.00    +0.000 A 
ATOM     24  N   UNL     1      -0.538  10.320  19.489  0.00  0.00    +0.000 NA
BRANCH  23  25
ATOM     25  C   UNL     1      -2.631  11.204  18.435  0.00  0.00    +0.000 A 
ATOM     26  C   UNL     1      -3.856  11.809  18.758  0.00  0.00    +0.000 A 
ATOM     27  C   UNL     1      -4.874  11.912  17.810  0.00  0.00    +0.000 A 
ATOM     28  C   UNL     1      -4.679  11.411  16.526  0.00  0.00    +0.000 A 
ATOM     29  C   UNL     1      -3.462  10.821  16.192  0.00  0.00    +0.000 A 
ATOM     30 BR   UNL     1      -3.204  10.132  14.450  0.00  0.00    +0.000 Br
ATOM     31  C   UNL     1      -2.437  10.720  17.133  0.00  0.00    +0.000 A 
ENDBRANCH  23  25
ENDBRANCH  19  20
ENDBRANCH   4  19
TORSDOF 5
ENDMDL
MODEL 5
REMARK VINA RESULT:      -7.9      7.516     10.563
REMARK  Name = 
REMARK  6 active torsions:
REMARK  status: ('A' for Active; 'I' for Inactive)
REMARK    1  A    between atoms: C_1  and  C_2
REMARK    2  A    between atoms: C_5  and  N_6
REMARK    3  A    between atoms: N_9  and  C_10
REMARK    4  A    between atoms: C_10  and  C_11
REMARK    5  A    between atoms: C_14  and  C_15
REMARK    6  A    between atoms: C_24  and  C_25
REMARK                            x       y       z     vdW  Elec       q    Type
REMARK                         _______ _______ _______ _____ _____    ______ ____
ROOT
ATOM      1  N   UNL     1       2.674   6.638  19.276  0.00  0.00    +0.000 N 
ATOM      2  C   UNL     1       2.141   7.893  19.043  0.00  0.00    +0.000 C 
ATOM      3  O   UNL     1       2.275   8.564  18.030  0.00  0.00    +0.000 OA
ATOM      4  N   UNL     1       1.414   8.402  20.090  0.00  0.00    +0.000 N 
ATOM      5  H   UNL     1       2.468   6.205  20.163  0.00  0.00    +0.000 HD
ATOM      6  H   UNL     1       1.174   7.874  20.915  0.00  0.00    +0.000 HD
ENDROOT
BRANCH   1  11
ATOM      7  C   UNL     1       5.888   3.584  15.576  0.00  0.00    +0.000 C 
ATOM      8  C   UNL     1       5.107   4.432  16.543  0.00  0.00    +0.000 A 
ATOM      9  C   UNL     1       3.807   4.022  16.844  0.00  0.00    +0.000 A 
ATOM     10  C   UNL     1       3.012   4.745  17.730  0.00  0.00    +0.000 A 
ATOM     11  C   UNL     1       3.476   5.904  18.355  0.00  0.00    +0.000 A 
ATOM     12  C   UNL     1       4.781   6.333  18.054  0.00  0.00    +0.000 A 
ATOM     13  C   UNL     1       5.604   5.604  17.151  0.00  0.00    +0.000 A 
BRANCH  13  14
ATOM     14  C   UNL     1       7.008   6.044  16.869  0.00  0.00    +0.000 C 
ATOM     15  N   UNL     1       7.771   6.489  17.915  0.00  0.00    +0.000 N 
ATOM     16  O   UNL     1       7.493   6.039  15.745  0.00  0.00    +0.000 OA
ATOM     17  H   UNL     1       7.415   6.678  18.839  0.00  0.00    +0.000 HD
ATOM     18  H   UNL     1       8.671   6.877  17.661  0.00  0.00    +0.000 HD
ENDBRANCH  13  14
ENDBRANCH   1  11
BRANCH   4  19
ATOM     19  C   UNL     1       0.811   9.715  19.899  0.00  0.00    +0.000 C 
BRANCH  19  20
ATOM     20  C   UNL     1       0.250  10.271  21.154  0.00  0.00    +0.000 A 
ATOM     21  N   UNL     1       0.671   9.862  22.357  0.00  0.00    +0.000 NA
ATOM     22  O   UNL     1      -0.070  10.648  23.239  0.00  0.00    +0.000 OA
ATOM     23  C   UNL     1      -0.864  11.452  22.472  0.00  0.00    +0.000 A 
ATOM     24  N   UNL     1      -0.710  11.254  21.178  0.00  0.00    +0.000 NA
BRANCH  23  25
ATOM     25  C   UNL     1      -1.710  12.414  23.161  0.00  0.00    +0.000 A 
ATOM     26  C   UNL     1      -3.030  12.052  23.470  0.00  0.00    +0.000 A 
ATOM     27  C   UNL     1      -3.895  12.960  24.082  0.00  0.00    +0.000 A 
ATOM     28  C   UNL     1      -3.448  14.242  24.393  0.00  0.00    +0.000 A 
ATOM     29  C   UNL     1      -2.134  14.605  24.102  0.00  0.00    +0.000 A 
ATOM     30 BR   UNL     1      -1.534  16.349  24.515  0.00  0.00    +0.000 Br
ATOM     31  C   UNL     1      -1.263  13.700  23.495  0.00  0.00    +0.000 A 
ENDBRANCH  23  25
ENDBRANCH  19  20
ENDBRANCH   4  19
TORSDOF 5
ENDMDL
MODEL 6
REMARK VINA RESULT:      -7.9      2.189      2.775
REMARK  Name = 
REMARK  6 active torsions:
REMARK  status: ('A' for Active; 'I' for Inactive)
REMARK    1  A    between atoms: C_1  and  C_2
REMARK    2  A    between atoms: C_5  and  N_6
REMARK    3  A    between atoms: N_9  and  C_10
REMARK    4  A    between atoms: C_10  and  C_11
REMARK    5  A    between atoms: C_14  and  C_15
REMARK    6  A    between atoms: C_24  and  C_25
REMARK                            x       y       z     vdW  Elec       q    Type
REMARK                         _______ _______ _______ _____ _____    ______ ____
ROOT
ATOM      1  N   UNL     1       9.560   9.638  19.350  0.00  0.00    +0.000 N 
ATOM      2  C   UNL     1       8.615   9.093  18.499  0.00  0.00    +0.000 C 
ATOM      3  O   UNL     1       7.925   9.701  17.692  0.00  0.00    +0.000 OA
ATOM      4  N   UNL     1       8.457   7.736  18.622  0.00  0.00    +0.000 N 
ATOM      5  H   UNL     1      10.057   9.003  19.955  0.00  0.00    +0.000 HD
ATOM      6  H   UNL     1       9.053   7.151  19.188  0.00  0.00    +0.000 HD
ENDROOT
BRANCH   1  11
ATOM      7  C   UNL     1      10.847  15.256  19.706  0.00  0.00    +0.000 C 
ATOM      8  C   UNL     1      10.541  13.791  19.543  0.00  0.00    +0.000 A 
ATOM      9  C   UNL     1      10.018  13.122  20.650  0.00  0.00    +0.000 A 
ATOM     10  C   UNL     1       9.704  11.767  20.589  0.00  0.00    +0.000 A 
ATOM     11  C   UNL     1       9.896  11.020  19.424  0.00  0.00    +0.000 A 
ATOM     12  C   UNL     1      10.431  11.680  18.303  0.00  0.00    +0.000 A 
ATOM     13  C   UNL     1      10.756  13.065  18.353  0.00  0.00    +0.000 A 
BRANCH  13  14
ATOM     14  C   UNL     1      11.285  13.770  17.141  0.00  0.00    +0.000 C 
ATOM     15  N   UNL     1      10.554  14.804  16.621  0.00  0.00    +0.000 N 
ATOM     16  O   UNL     1      12.330  13.449  16.590  0.00  0.00    +0.000 OA
ATOM     17  H   UNL     1       9.616  15.036  16.905  0.00  0.00    +0.000 HD
ATOM     18  H   UNL     1      10.894  15.177  15.743  0.00  0.00    +0.000 HD
ENDBRANCH  13  14
ENDBRANCH   1  11
BRANCH   4  19
ATOM     19  C   UNL     1       7.487   7.099  17.739  0.00  0.00    +0.000 C 
BRANCH  19  20
ATOM     20  C   UNL     1       6.563   6.196  18.466  0.00  0.00    +0.000 A 
ATOM     21  N   UNL     1       7.001   5.336  19.395  0.00  0.00    +0.000 NA
ATOM     22  O   UNL     1       5.831   4.726  19.843  0.00  0.00    +0.000 OA
ATOM     23  C   UNL     1       4.804   5.284  19.135  0.00  0.00    +0.000 A 
ATOM     24  N   UNL     1       5.204   6.192  18.268  0.00  0.00    +0.000 NA
BRANCH  23  25
ATOM     25  C   UNL     1       3.455   4.848  19.454  0.00  0.00    +0.000 A 
ATOM     26  C   UNL     1       2.720   5.566  20.409  0.00  0.00    +0.000 A 
ATOM     27  C   UNL     1       1.442   5.153  20.787  0.00  0.00    +0.000 A 
ATOM     28  C   UNL     1       0.883   4.015  20.212  0.00  0.00    +0.000 A 
ATOM     29  C   UNL     1       1.599   3.304  19.252  0.00  0.00    +0.000 A 
ATOM     30 BR   UNL     1       0.841   1.752  18.481  0.00  0.00    +0.000 Br
ATOM     31  C   UNL     1       2.875   3.714  18.865  0.00  0.00    +0.000 A 
ENDBRANCH  23  25
ENDBRANCH  19  20
ENDBRANCH   4  19
TORSDOF 5
ENDMDL
MODEL 7
REMARK VINA RESULT:      -7.9      8.338     11.606
REMARK  Name = 
REMARK  6 active torsions:
REMARK  status: ('A' for Active; 'I' for Inactive)
REMARK    1  A    between atoms: C_1  and  C_2
REMARK    2  A    between atoms: C_5  and  N_6
REMARK    3  A    between atoms: N_9  and  C_10
REMARK    4  A    between atoms: C_10  and  C_11
REMARK    5  A    between atoms: C_14  and  C_15
REMARK    6  A    between atoms: C_24  and  C_25
REMARK                            x       y       z     vdW  Elec       q    Type
REMARK                         _______ _______ _______ _____ _____    ______ ____
ROOT
ATOM      1  N   UNL     1       1.938   6.862  21.021  0.00  0.00    +0.000 N 
ATOM      2  C   UNL     1       1.519   8.097  20.560  0.00  0.00    +0.000 C 
ATOM      3  O   UNL     1       1.278   8.398  19.400  0.00  0.00    +0.000 OA
ATOM      4  N   UNL     1       1.396   9.053  21.536  0.00  0.00    +0.000 N 
ATOM      5  H   UNL     1       2.090   6.766  22.013  0.00  0.00    +0.000 HD
ATOM      6  H   UNL     1       1.479   8.861  22.523  0.00  0.00    +0.000 HD
ENDROOT
BRANCH   1  11
ATOM      7  C   UNL     1       2.777   2.154  17.783  0.00  0.00    +0.000 C 
ATOM      8  C   UNL     1       2.623   3.410  18.598  0.00  0.00    +0.000 A 
ATOM      9  C   UNL     1       1.452   3.544  19.346  0.00  0.00    +0.000 A 
ATOM     10  C   UNL     1       1.227   4.673  20.131  0.00  0.00    +0.000 A 
ATOM     11  C   UNL     1       2.155   5.714  20.206  0.00  0.00    +0.000 A 
ATOM     12  C   UNL     1       3.335   5.595  19.449  0.00  0.00    +0.000 A 
ATOM     13  C   UNL     1       3.578   4.447  18.643  0.00  0.00    +0.000 A 
BRANCH  13  14
ATOM     14  C   UNL     1       4.857   4.309  17.875  0.00  0.00    +0.000 C 
ATOM     15  N   UNL     1       5.961   3.836  18.531  0.00  0.00    +0.000 N 
ATOM     16  O   UNL     1       4.958   4.617  16.694  0.00  0.00    +0.000 OA
ATOM     17  H   UNL     1       6.017   3.707  19.530  0.00  0.00    +0.000 HD
ATOM     18  H   UNL     1       6.824   3.863  18.003  0.00  0.00    +0.000 HD
ENDBRANCH  13  14
ENDBRANCH   1  11
BRANCH   4  19
ATOM     19  C   UNL     1       0.940  10.373  21.116  0.00  0.00    +0.000 C 
BRANCH  19  20
ATOM     20  C   UNL     1      -0.199  10.865  21.927  0.00  0.00    +0.000 A 
ATOM     21  N   UNL     1      -0.321  10.569  23.227  0.00  0.00    +0.000 NA
ATOM     22  O   UNL     1      -1.480  11.247  23.602  0.00  0.00    +0.000 OA
ATOM     23  C   UNL     1      -1.938  11.884  22.484  0.00  0.00    +0.000 A 
ATOM     24  N   UNL     1      -1.188  11.675  21.422  0.00  0.00    +0.000 NA
BRANCH  23  25
ATOM     25  C   UNL     1      -3.126  12.712  22.624  0.00  0.00    +0.000 A 
ATOM     26  C   UNL     1      -3.901  12.591  23.787  0.00  0.00    +0.000 A 
ATOM     27  C   UNL     1      -5.078  13.325  23.942  0.00  0.00    +0.000 A 
ATOM     28  C   UNL     1      -5.493  14.189  22.932  0.00  0.00    +0.000 A 
ATOM     29  C   UNL     1      -4.722  14.326  21.779  0.00  0.00    +0.000 A 
ATOM     30 BR   UNL     1      -5.295  15.493  20.406  0.00  0.00    +0.000 Br
ATOM     31  C   UNL     1      -3.542  13.600  21.621  0.00  0.00    +0.000 A 
ENDBRANCH  23  25
ENDBRANCH  19  20
ENDBRANCH   4  19
TORSDOF 5
ENDMDL
MODEL 8
REMARK VINA RESULT:      -7.8      7.689     11.170
REMARK  Name = 
REMARK  6 active torsions:
REMARK  status: ('A' for Active; 'I' for Inactive)
REMARK    1  A    between atoms: C_1  and  C_2
REMARK    2  A    between atoms: C_5  and  N_6
REMARK    3  A    between atoms: N_9  and  C_10
REMARK    4  A    between atoms: C_10  and  C_11
REMARK    5  A    between atoms: C_14  and  C_15
REMARK    6  A    between atoms: C_24  and  C_25
REMARK                            x       y       z     vdW  Elec       q    Type
REMARK                         _______ _______ _______ _____ _____    ______ ____
ROOT
ATOM      1  N   UNL     1       2.284   7.437  19.074  0.00  0.00    +0.000 N 
ATOM      2  C   UNL     1       1.899   8.701  18.665  0.00  0.00    +0.000 C 
ATOM      3  O   UNL     1       2.161   9.232  17.596  0.00  0.00    +0.000 OA
ATOM      4  N   UNL     1       1.169   9.398  19.594  0.00  0.00    +0.000 N 
ATOM      5  H   UNL     1       1.982   7.134  19.987  0.00  0.00    +0.000 HD
ATOM      6  H   UNL     1       0.827   8.997  20.454  0.00  0.00    +0.000 HD
ENDROOT
BRANCH   1  11
ATOM      7  C   UNL     1       5.423   3.805  15.864  0.00  0.00    +0.000 C 
ATOM      8  C   UNL     1       4.572   4.691  16.734  0.00  0.00    +0.000 A 
ATOM      9  C   UNL     1       4.797   6.066  16.655  0.00  0.00    +0.000 A 
ATOM     10  C   UNL     1       4.054   6.960  17.423  0.00  0.00    +0.000 A 
ATOM     11  C   UNL     1       3.058   6.525  18.300  0.00  0.00    +0.000 A 
ATOM     12  C   UNL     1       2.829   5.141  18.396  0.00  0.00    +0.000 A 
ATOM     13  C   UNL     1       3.580   4.217  17.617  0.00  0.00    +0.000 A 
BRANCH  13  14
ATOM     14  C   UNL     1       3.299   2.747  17.693  0.00  0.00    +0.000 C 
ATOM     15  N   UNL     1       4.096   1.973  18.492  0.00  0.00    +0.000 N 
ATOM     16  O   UNL     1       2.401   2.209  17.057  0.00  0.00    +0.000 OA
ATOM     17  H   UNL     1       4.948   2.293  18.926  0.00  0.00    +0.000 HD
ATOM     18  H   UNL     1       3.938   0.975  18.428  0.00  0.00    +0.000 HD
ENDBRANCH  13  14
ENDBRANCH   1  11
BRANCH   4  19
ATOM     19  C   UNL     1       0.717  10.732  19.216  0.00  0.00    +0.000 C 
BRANCH  19  20
ATOM     20  C   UNL     1       0.406  11.582  20.391  0.00  0.00    +0.000 A 
ATOM     21  N   UNL     1       1.297  12.446  20.892  0.00  0.00    +0.000 NA
ATOM     22  O   UNL     1       0.601  13.052  21.938  0.00  0.00    +0.000 OA
ATOM     23  C   UNL     1      -0.642  12.487  21.957  0.00  0.00    +0.000 A 
ATOM     24  N   UNL     1      -0.811  11.569  21.027  0.00  0.00    +0.000 NA
BRANCH  23  25
ATOM     25  C   UNL     1      -1.591  12.987  22.938  0.00  0.00    +0.000 A 
ATOM     26  C   UNL     1      -2.753  12.244  23.196  0.00  0.00    +0.000 A 
ATOM     27  C   UNL     1      -3.718  12.711  24.089  0.00  0.00    +0.000 A 
ATOM     28  C   UNL     1      -3.530  13.929  24.737  0.00  0.00    +0.000 A 
ATOM     29  C   UNL     1      -2.373  14.668  24.498  0.00  0.00    +0.000 A 
ATOM     30 BR   UNL     1      -2.127  16.327  25.370  0.00  0.00    +0.000 Br
ATOM     31  C   UNL     1      -1.402  14.204  23.610  0.00  0.00    +0.000 A 
ENDBRANCH  23  25
ENDBRANCH  19  20
ENDBRANCH   4  19
TORSDOF 5
ENDMDL
MODEL 9
REMARK VINA RESULT:      -7.8      6.947     10.439
REMARK  Name = 
REMARK  6 active torsions:
REMARK  status: ('A' for Active; 'I' for Inactive)
REMARK    1  A    between atoms: C_1  and  C_2
REMARK    2  A    between atoms: C_5  and  N_6
REMARK    3  A    between atoms: N_9  and  C_10
REMARK    4  A    between atoms: C_10  and  C_11
REMARK    5  A    between atoms: C_14  and  C_15
REMARK    6  A    between atoms: C_24  and  C_25
REMARK                            x       y       z     vdW  Elec       q    Type
REMARK                         _______ _______ _______ _____ _____    ______ ____
ROOT
ATOM      1  N   UNL     1       1.242   6.311  21.109  0.00  0.00    +0.000 N 
ATOM      2  C   UNL     1       1.513   7.646  20.871  0.00  0.00    +0.000 C 
ATOM      3  O   UNL     1       2.243   8.097  20.000  0.00  0.00    +0.000 OA
ATOM      4  N   UNL     1       0.894   8.512  21.737  0.00  0.00    +0.000 N 
ATOM      5  H   UNL     1       0.610   6.095  21.863  0.00  0.00    +0.000 HD
ATOM      6  H   UNL     1       0.203   8.229  22.414  0.00  0.00    +0.000 HD
ENDROOT
BRANCH   1  11
ATOM      7  C   UNL     1       3.352   1.833  18.134  0.00  0.00    +0.000 C 
ATOM      8  C   UNL     1       2.865   3.039  18.892  0.00  0.00    +0.000 A 
ATOM      9  C   UNL     1       1.578   2.978  19.428  0.00  0.00    +0.000 A 
ATOM     10  C   UNL     1       1.047   4.047  20.145  0.00  0.00    +0.000 A 
ATOM     11  C   UNL     1       1.773   5.221  20.361  0.00  0.00    +0.000 A 
ATOM     12  C   UNL     1       3.068   5.299  19.818  0.00  0.00    +0.000 A 
ATOM     13  C   UNL     1       3.623   4.213  19.083  0.00  0.00    +0.000 A 
BRANCH  13  14
ATOM     14  C   UNL     1       5.020   4.288  18.545  0.00  0.00    +0.000 C 
ATOM     15  N   UNL     1       5.196   4.693  17.250  0.00  0.00    +0.000 N 
ATOM     16  O   UNL     1       6.003   3.985  19.209  0.00  0.00    +0.000 OA
ATOM     17  H   UNL     1       4.449   4.810  16.583  0.00  0.00    +0.000 HD
ATOM     18  H   UNL     1       6.143   4.623  16.899  0.00  0.00    +0.000 HD
ENDBRANCH  13  14
ENDBRANCH   1  11
BRANCH   4  19
ATOM     19  C   UNL     1       1.126   9.936  21.527  0.00  0.00    +0.000 C 
BRANCH  19  20
ATOM     20  C   UNL     1       0.450  10.449  20.311  0.00  0.00    +0.000 A 
ATOM     21  N   UNL     1       1.042  11.326  19.490  0.00  0.00    +0.000 NA
ATOM     22  O   UNL     1       0.098  11.506  18.480  0.00  0.00    +0.000 OA
ATOM     23  C   UNL     1      -0.969  10.715  18.798  0.00  0.00    +0.000 A 
ATOM     24  N   UNL     1      -0.805  10.047  19.922  0.00  0.00    +0.000 NA
BRANCH  23  25
ATOM     25  C   UNL     1      -2.084  10.685  17.865  0.00  0.00    +0.000 A 
ATOM     26  C   UNL     1      -1.956   9.938  16.683  0.00  0.00    +0.000 A 
ATOM     27  C   UNL     1      -2.977   9.923  15.733  0.00  0.00    +0.000 A 
ATOM     28  C   UNL     1      -4.140  10.656  15.953  0.00  0.00    +0.000 A 
ATOM     29  C   UNL     1      -4.282  11.389  17.130  0.00  0.00    +0.000 A 
ATOM     30 BR   UNL     1      -5.858  12.392  17.422  0.00  0.00    +0.000 Br
ATOM     31  C   UNL     1      -3.267  11.404  18.087  0.00  0.00    +0.000 A 
ENDBRANCH  23  25
ENDBRANCH  19  20
ENDBRANCH   4  19
TORSDOF 5
ENDMDL
