MODEL 1
REMARK VINA RESULT:      -8.9      0.000      0.000
REMARK  Name = 
REMARK  3 active torsions:
REMARK  status: ('A' for Active; 'I' for Inactive)
REMARK    1  A    between atoms: C_5  and  C_7
REMARK    2  A    between atoms: C_7  and  N_8
REMARK    3  A    between atoms: C_11  and  C_12
REMARK                            x       y       z     vdW  Elec       q    Type
REMARK                         _______ _______ _______ _____ _____    ______ ____
ROOT
ATOM      1  N   UNL     1       3.163   5.780  18.623  0.00  0.00    +0.000 NA
ATOM      2  C   UNL     1       2.954   5.176  17.297  0.00  0.00    +0.000 C 
ATOM      3  C   UNL     1       3.582   3.795  17.117  0.00  0.00    +0.000 C 
ATOM      4  C   UNL     1       5.050   3.744  17.550  0.00  0.00    +0.000 C 
ATOM      5  C   UNL     1       5.137   4.248  18.993  0.00  0.00    +0.000 C 
ATOM      6  C   UNL     1       4.522   5.635  19.168  0.00  0.00    +0.000 C 
ENDROOT
BRANCH   4   7
ATOM      7  C   UNL     1       6.004   4.443  16.593  0.00  0.00    +0.000 A 
ATOM      8  C   UNL     1       6.942   5.413  16.895  0.00  0.00    +0.000 A 
ATOM      9  N   UNL     1       7.585   5.793  15.750  0.00  0.00    +0.000 N 
ATOM     10  C   UNL     1       7.101   5.084  14.683  0.00  0.00    +0.000 A 
ATOM     11  C   UNL     1       7.473   5.149  13.335  0.00  0.00    +0.000 A 
ATOM     12  C   UNL     1       6.818   4.299  12.445  0.00  0.00    +0.000 A 
ATOM     13  C   UNL     1       5.833   3.424  12.889  0.00  0.00    +0.000 A 
ATOM     14  C   UNL     1       5.471   3.376  14.243  0.00  0.00    +0.000 A 
ATOM     15  C   UNL     1       6.114   4.225  15.169  0.00  0.00    +0.000 A 
ATOM     16  H   UNL     1       8.316   6.488  15.694  0.00  0.00    +0.000 HD
ENDBRANCH   4   7
BRANCH   1  17
ATOM     17  C   UNL     1       2.827   7.230  18.573  0.00  0.00    +0.000 C 
BRANCH  17  22
ATOM     18  O   UNL     1       2.262  12.008  17.972  0.00  0.00    +0.000 OA
ATOM     19  C   UNL     1       1.719  11.247  18.771  0.00  0.00    +0.000 C 
ATOM     20  C   UNL     1       1.384   9.805  18.423  0.00  0.00    +0.000 C 
ATOM     21  N   UNL     1       1.263   8.918  19.592  0.00  0.00    +0.000 N 
ATOM     22  C   UNL     1       1.931   7.689  19.740  0.00  0.00    +0.000 C 
ATOM     23  O   UNL     1       1.890   7.022  20.778  0.00  0.00    +0.000 OA
ATOM     24  C   UNL     1       0.524   9.485  20.684  0.00  0.00    +0.000 A 
ATOM     25  C   UNL     1      -0.165   8.704  21.618  0.00  0.00    +0.000 A 
ATOM     26  C   UNL     1      -0.799   9.297  22.713  0.00  0.00    +0.000 A 
ATOM     27  C   UNL     1      -0.741  10.677  22.895  0.00  0.00    +0.000 A 
ATOM     28  C   UNL     1      -0.070  11.473  21.968  0.00  0.00    +0.000 A 
ATOM     29  C   UNL     1       0.536  10.882  20.858  0.00  0.00    +0.000 A 
ATOM     30  N   UNL     1       1.214  11.709  19.952  0.00  0.00    +0.000 N 
ATOM     31  H   UNL     1       1.334  12.694  20.141  0.00  0.00    +0.000 HD
ENDBRANCH  17  22
ENDBRANCH   1  17
TORSDOF 3
ENDMDL
MODEL 2
REMARK VINA RESULT:      -8.5      1.352      1.892
REMARK  Name = 
REMARK  3 active torsions:
REMARK  status: ('A' for Active; 'I' for Inactive)
REMARK    1  A    between atoms: C_5  and  C_7
REMARK    2  A    between atoms: C_7  and  N_8
REMARK    3  A    between atoms: C_11  and  C_12
REMARK                            x       y       z     vdW  Elec       q    Type
REMARK                         _______ _______ _______ _____ _____    ______ ____
ROOT
ATOM      1  N   UNL     1       1.944   6.489  19.311  0.00  0.00    +0.000 NA
ATOM      2  C   UNL     1       2.128   6.059  17.916  0.00  0.00    +0.000 C 
ATOM      3  C   UNL     1       2.178   4.545  17.714  0.00  0.00    +0.000 C 
ATOM      4  C   UNL     1       3.152   3.846  18.666  0.00  0.00    +0.000 C 
ATOM      5  C   UNL     1       2.780   4.238  20.098  0.00  0.00    +0.000 C 
ATOM      6  C   UNL     1       2.744   5.752  20.301  0.00  0.00    +0.000 C 
ENDROOT
BRANCH   4   7
ATOM      7  C   UNL     1       4.618   4.069  18.325  0.00  0.00    +0.000 A 
ATOM      8  C   UNL     1       5.685   4.153  19.202  0.00  0.00    +0.000 A 
ATOM      9  N   UNL     1       6.835   4.373  18.496  0.00  0.00    +0.000 N 
ATOM     10  C   UNL     1       6.559   4.426  17.156  0.00  0.00    +0.000 A 
ATOM     11  C   UNL     1       7.432   4.628  16.080  0.00  0.00    +0.000 A 
ATOM     12  C   UNL     1       6.885   4.629  14.798  0.00  0.00    +0.000 A 
ATOM     13  C   UNL     1       5.521   4.436  14.605  0.00  0.00    +0.000 A 
ATOM     14  C   UNL     1       4.661   4.239  15.696  0.00  0.00    +0.000 A 
ATOM     15  C   UNL     1       5.185   4.235  17.007  0.00  0.00    +0.000 A 
ATOM     16  H   UNL     1       7.756   4.474  18.898  0.00  0.00    +0.000 HD
ENDBRANCH   4   7
BRANCH   1  17
ATOM     17  C   UNL     1       2.259   7.939  19.435  0.00  0.00    +0.000 C 
BRANCH  17  22
ATOM     18  O   UNL     1       2.254  12.589  18.061  0.00  0.00    +0.000 OA
ATOM     19  C   UNL     1       1.595  12.027  18.935  0.00  0.00    +0.000 C 
ATOM     20  C   UNL     1       1.119  10.590  18.797  0.00  0.00    +0.000 C 
ATOM     21  N   UNL     1       0.849   9.921  20.081  0.00  0.00    +0.000 N 
ATOM     22  C   UNL     1       1.370   8.671  20.459  0.00  0.00    +0.000 C 
ATOM     23  O   UNL     1       1.211   8.189  21.585  0.00  0.00    +0.000 OA
ATOM     24  C   UNL     1       0.131  10.731  21.025  0.00  0.00    +0.000 A 
ATOM     25  C   UNL     1      -0.680  10.186  22.026  0.00  0.00    +0.000 A 
ATOM     26  C   UNL     1      -1.291  11.010  22.975  0.00  0.00    +0.000 A 
ATOM     27  C   UNL     1      -1.088  12.388  22.942  0.00  0.00    +0.000 A 
ATOM     28  C   UNL     1      -0.294  12.951  21.944  0.00  0.00    +0.000 A 
ATOM     29  C   UNL     1       0.290  12.129  20.978  0.00  0.00    +0.000 A 
ATOM     30  N   UNL     1       1.094  12.724  19.997  0.00  0.00    +0.000 N 
ATOM     31  H   UNL     1       1.315  13.709  20.036  0.00  0.00    +0.000 HD
ENDBRANCH  17  22
ENDBRANCH   1  17
TORSDOF 3
ENDMDL
MODEL 3
REMARK VINA RESULT:      -8.0      2.068      3.065
REMARK  Name = 
REMARK  3 active torsions:
REMARK  status: ('A' for Active; 'I' for Inactive)
REMARK    1  A    between atoms: C_5  and  C_7
REMARK    2  A    between atoms: C_7  and  N_8
REMARK    3  A    between atoms: C_11  and  C_12
REMARK                            x       y       z     vdW  Elec       q    Type
REMARK                         _______ _______ _______ _____ _____    ______ ____
ROOT
ATOM      1  N   UNL     1       1.802   6.428  19.544  0.00  0.00    +0.000 NA
ATOM      2  C   UNL     1       2.075   6.283  18.105  0.00  0.00    +0.000 C 
ATOM      3  C   UNL     1       2.026   4.847  17.586  0.00  0.00    +0.000 C 
ATOM      4  C   UNL     1       2.855   3.876  18.431  0.00  0.00    +0.000 C 
ATOM      5  C   UNL     1       2.389   3.994  19.884  0.00  0.00    +0.000 C 
ATOM      6  C   UNL     1       2.452   5.429  20.406  0.00  0.00    +0.000 C 
ENDROOT
BRANCH   4   7
ATOM      7  C   UNL     1       4.358   4.026  18.250  0.00  0.00    +0.000 A 
ATOM      8  C   UNL     1       5.335   3.969  19.228  0.00  0.00    +0.000 A 
ATOM      9  N   UNL     1       6.561   4.165  18.655  0.00  0.00    +0.000 N 
ATOM     10  C   UNL     1       6.423   4.343  17.304  0.00  0.00    +0.000 A 
ATOM     11  C   UNL     1       7.410   4.569  16.336  0.00  0.00    +0.000 A 
ATOM     12  C   UNL     1       6.994   4.707  15.013  0.00  0.00    +0.000 A 
ATOM     13  C   UNL     1       5.647   4.622  14.677  0.00  0.00    +0.000 A 
ATOM     14  C   UNL     1       4.673   4.399  15.661  0.00  0.00    +0.000 A 
ATOM     15  C   UNL     1       5.062   4.256  17.010  0.00  0.00    +0.000 A 
ATOM     16  H   UNL     1       7.442   4.173  19.149  0.00  0.00    +0.000 HD
ENDBRANCH   4   7
BRANCH   1  17
ATOM     17  C   UNL     1       2.216   7.785  19.999  0.00  0.00    +0.000 C 
BRANCH  17  22
ATOM     18  O   UNL     1       0.136   9.638  23.967  0.00  0.00    +0.000 OA
ATOM     19  C   UNL     1       0.090  10.028  22.801  0.00  0.00    +0.000 C 
ATOM     20  C   UNL     1       1.266   9.885  21.848  0.00  0.00    +0.000 C 
ATOM     21  N   UNL     1       0.890   9.881  20.425  0.00  0.00    +0.000 N 
ATOM     22  C   UNL     1       1.289   8.907  19.492  0.00  0.00    +0.000 C 
ATOM     23  O   UNL     1       0.867   8.874  18.332  0.00  0.00    +0.000 OA
ATOM     24  C   UNL     1      -0.083  10.877  20.073  0.00  0.00    +0.000 A 
ATOM     25  C   UNL     1      -0.183  11.414  18.785  0.00  0.00    +0.000 A 
ATOM     26  C   UNL     1      -1.201  12.317  18.468  0.00  0.00    +0.000 A 
ATOM     27  C   UNL     1      -2.139  12.684  19.430  0.00  0.00    +0.000 A 
ATOM     28  C   UNL     1      -2.047  12.170  20.723  0.00  0.00    +0.000 A 
ATOM     29  C   UNL     1      -1.012  11.291  21.046  0.00  0.00    +0.000 A 
ATOM     30  N   UNL     1      -0.956  10.781  22.350  0.00  0.00    +0.000 N 
ATOM     31  H   UNL     1      -1.693  10.975  23.014  0.00  0.00    +0.000 HD
ENDBRANCH  17  22
ENDBRANCH   1  17
TORSDOF 3
ENDMDL
MODEL 4
REMARK VINA RESULT:      -7.9      4.296      6.743
REMARK  Name = 
REMARK  3 active torsions:
REMARK  status: ('A' for Active; 'I' for Inactive)
REMARK    1  A    between atoms: C_5  and  C_7
REMARK    2  A    between atoms: C_7  and  N_8
REMARK    3  A    between atoms: C_11  and  C_12
REMARK                            x       y       z     vdW  Elec       q    Type
REMARK                         _______ _______ _______ _____ _____    ______ ____
ROOT
ATOM      1  N   UNL     1      -0.461  10.792  20.708  0.00  0.00    +0.000 NA
ATOM      2  C   UNL     1      -1.013   9.431  20.611  0.00  0.00    +0.000 C 
ATOM      3  C   UNL     1      -0.363   8.410  21.543  0.00  0.00    +0.000 C 
ATOM      4  C   UNL     1       1.166   8.418  21.468  0.00  0.00    +0.000 C 
ATOM      5  C   UNL     1       1.646   9.847  21.732  0.00  0.00    +0.000 C 
ATOM      6  C   UNL     1       1.006  10.865  20.791  0.00  0.00    +0.000 C 
ENDROOT
BRANCH   4   7
ATOM      7  C   UNL     1       1.727   7.803  20.194  0.00  0.00    +0.000 A 
ATOM      8  C   UNL     1       2.033   8.449  19.010  0.00  0.00    +0.000 A 
ATOM      9  N   UNL     1       2.500   7.537  18.105  0.00  0.00    +0.000 N 
ATOM     10  C   UNL     1       2.523   6.289  18.667  0.00  0.00    +0.000 A 
ATOM     11  C   UNL     1       2.929   5.072  18.105  0.00  0.00    +0.000 A 
ATOM     12  C   UNL     1       2.860   3.936  18.910  0.00  0.00    +0.000 A 
ATOM     13  C   UNL     1       2.402   4.018  20.221  0.00  0.00    +0.000 A 
ATOM     14  C   UNL     1       1.996   5.245  20.765  0.00  0.00    +0.000 A 
ATOM     15  C   UNL     1       2.053   6.414  19.975  0.00  0.00    +0.000 A 
ATOM     16  H   UNL     1       2.793   7.747  17.161  0.00  0.00    +0.000 HD
ENDBRANCH   4   7
BRANCH   1  17
ATOM     17  C   UNL     1      -0.908  11.599  19.538  0.00  0.00    +0.000 C 
BRANCH  17  22
ATOM     18  O   UNL     1      -2.736  10.598  15.161  0.00  0.00    +0.000 OA
ATOM     19  C   UNL     1      -3.309  10.957  16.188  0.00  0.00    +0.000 C 
ATOM     20  C   UNL     1      -2.841  10.535  17.572  0.00  0.00    +0.000 C 
ATOM     21  N   UNL     1      -3.258  11.446  18.651  0.00  0.00    +0.000 N 
ATOM     22  C   UNL     1      -2.394  12.003  19.610  0.00  0.00    +0.000 C 
ATOM     23  O   UNL     1      -2.759  12.847  20.435  0.00  0.00    +0.000 OA
ATOM     24  C   UNL     1      -4.625  11.878  18.558  0.00  0.00    +0.000 A 
ATOM     25  C   UNL     1      -5.374  12.262  19.675  0.00  0.00    +0.000 A 
ATOM     26  C   UNL     1      -6.672  12.756  19.526  0.00  0.00    +0.000 A 
ATOM     27  C   UNL     1      -7.232  12.885  18.257  0.00  0.00    +0.000 A 
ATOM     28  C   UNL     1      -6.506  12.495  17.133  0.00  0.00    +0.000 A 
ATOM     29  C   UNL     1      -5.221  11.972  17.286  0.00  0.00    +0.000 A 
ATOM     30  N   UNL     1      -4.512  11.602  16.135  0.00  0.00    +0.000 N 
ATOM     31  H   UNL     1      -4.886  11.788  15.215  0.00  0.00    +0.000 HD
ENDBRANCH  17  22
ENDBRANCH   1  17
TORSDOF 3
ENDMDL
MODEL 5
REMARK VINA RESULT:      -7.7      3.268      8.573
REMARK  Name = 
REMARK  3 active torsions:
REMARK  status: ('A' for Active; 'I' for Inactive)
REMARK    1  A    between atoms: C_5  and  C_7
REMARK    2  A    between atoms: C_7  and  N_8
REMARK    3  A    between atoms: C_11  and  C_12
REMARK                            x       y       z     vdW  Elec       q    Type
REMARK                         _______ _______ _______ _____ _____    ______ ____
ROOT
ATOM      1  N   UNL     1       0.705   9.496  20.312  0.00  0.00    +0.000 NA
ATOM      2  C   UNL     1       0.858  10.735  21.092  0.00  0.00    +0.000 C 
ATOM      3  C   UNL     1      -0.078  11.870  20.681  0.00  0.00    +0.000 C 
ATOM      4  C   UNL     1      -0.073  12.133  19.173  0.00  0.00    +0.000 C 
ATOM      5  C   UNL     1      -0.393  10.817  18.460  0.00  0.00    +0.000 C 
ATOM      6  C   UNL     1       0.553   9.687  18.862  0.00  0.00    +0.000 C 
ENDROOT
BRANCH   4   7
ATOM      7  C   UNL     1       1.187  12.819  18.668  0.00  0.00    +0.000 A 
ATOM      8  C   UNL     1       2.346  12.222  18.207  0.00  0.00    +0.000 A 
ATOM      9  N   UNL     1       3.248  13.189  17.861  0.00  0.00    +0.000 N 
ATOM     10  C   UNL     1       2.708  14.429  18.071  0.00  0.00    +0.000 A 
ATOM     11  C   UNL     1       3.275  15.690  17.850  0.00  0.00    +0.000 A 
ATOM     12  C   UNL     1       2.494  16.808  18.144  0.00  0.00    +0.000 A 
ATOM     13  C   UNL     1       1.202  16.664  18.637  0.00  0.00    +0.000 A 
ATOM     14  C   UNL     1       0.652  15.393  18.855  0.00  0.00    +0.000 A 
ATOM     15  C   UNL     1       1.418  14.242  18.570  0.00  0.00    +0.000 A 
ATOM     16  H   UNL     1       4.175  13.020  17.496  0.00  0.00    +0.000 HD
ENDBRANCH   4   7
BRANCH   1  17
ATOM     17  C   UNL     1       1.874   8.605  20.551  0.00  0.00    +0.000 C 
BRANCH  17  22
ATOM     18  O   UNL     1       4.378   6.712  16.856  0.00  0.00    +0.000 OA
ATOM     19  C   UNL     1       3.702   6.150  17.717  0.00  0.00    +0.000 C 
ATOM     20  C   UNL     1       3.606   6.668  19.143  0.00  0.00    +0.000 C 
ATOM     21  N   UNL     1       2.391   6.241  19.857  0.00  0.00    +0.000 N 
ATOM     22  C   UNL     1       1.512   7.107  20.532  0.00  0.00    +0.000 C 
ATOM     23  O   UNL     1       0.446   6.729  21.029  0.00  0.00    +0.000 OA
ATOM     24  C   UNL     1       2.057   4.857  19.670  0.00  0.00    +0.000 A 
ATOM     25  C   UNL     1       1.332   4.121  20.613  0.00  0.00    +0.000 A 
ATOM     26  C   UNL     1       0.957   2.801  20.349  0.00  0.00    +0.000 A 
ATOM     27  C   UNL     1       1.291   2.206  19.135  0.00  0.00    +0.000 A 
ATOM     28  C   UNL     1       2.025   2.919  18.189  0.00  0.00    +0.000 A 
ATOM     29  C   UNL     1       2.425   4.227  18.466  0.00  0.00    +0.000 A 
ATOM     30  N   UNL     1       3.150   4.922  17.488  0.00  0.00    +0.000 N 
ATOM     31  H   UNL     1       3.304   4.519  16.575  0.00  0.00    +0.000 HD
ENDBRANCH  17  22
ENDBRANCH   1  17
TORSDOF 3
ENDMDL
MODEL 6
REMARK VINA RESULT:      -7.6      4.433      7.903
REMARK  Name = 
REMARK  3 active torsions:
REMARK  status: ('A' for Active; 'I' for Inactive)
REMARK    1  A    between atoms: C_5  and  C_7
REMARK    2  A    between atoms: C_7  and  N_8
REMARK    3  A    between atoms: C_11  and  C_12
REMARK                            x       y       z     vdW  Elec       q    Type
REMARK                         _______ _______ _______ _____ _____    ______ ____
ROOT
ATOM      1  N   UNL     1      -0.626  12.252  21.321  0.00  0.00    +0.000 NA
ATOM      2  C   UNL     1       0.831  12.225  21.117  0.00  0.00    +0.000 C 
ATOM      3  C   UNL     1       1.270  11.937  19.682  0.00  0.00    +0.000 C 
ATOM      4  C   UNL     1       0.581  10.710  19.079  0.00  0.00    +0.000 C 
ATOM      5  C   UNL     1      -0.932  10.907  19.204  0.00  0.00    +0.000 C 
ATOM      6  C   UNL     1      -1.371  11.180  20.641  0.00  0.00    +0.000 C 
ENDROOT
BRANCH   4   7
ATOM      7  C   UNL     1       1.079   9.384  19.634  0.00  0.00    +0.000 A 
ATOM      8  C   UNL     1       0.795   8.824  20.866  0.00  0.00    +0.000 A 
ATOM      9  N   UNL     1       1.451   7.631  20.984  0.00  0.00    +0.000 N 
ATOM     10  C   UNL     1       2.164   7.374  19.843  0.00  0.00    +0.000 A 
ATOM     11  C   UNL     1       2.971   6.273  19.533  0.00  0.00    +0.000 A 
ATOM     12  C   UNL     1       3.585   6.256  18.282  0.00  0.00    +0.000 A 
ATOM     13  C   UNL     1       3.396   7.299  17.382  0.00  0.00    +0.000 A 
ATOM     14  C   UNL     1       2.587   8.396  17.711  0.00  0.00    +0.000 A 
ATOM     15  C   UNL     1       1.953   8.444  18.972  0.00  0.00    +0.000 A 
ATOM     16  H   UNL     1       1.414   7.020  21.788  0.00  0.00    +0.000 HD
ENDBRANCH   4   7
BRANCH   1  17
ATOM     17  C   UNL     1      -0.930  12.186  22.778  0.00  0.00    +0.000 C 
BRANCH  17  22
ATOM     18  O   UNL     1      -5.778  12.256  22.750  0.00  0.00    +0.000 OA
ATOM     19  C   UNL     1      -4.983  13.052  23.247  0.00  0.00    +0.000 C 
ATOM     20  C   UNL     1      -3.654  12.613  23.841  0.00  0.00    +0.000 C 
ATOM     21  N   UNL     1      -2.634  13.675  23.880  0.00  0.00    +0.000 N 
ATOM     22  C   UNL     1      -1.326  13.549  23.379  0.00  0.00    +0.000 C 
ATOM     23  O   UNL     1      -0.531  14.493  23.331  0.00  0.00    +0.000 OA
ATOM     24  C   UNL     1      -3.129  14.947  24.326  0.00  0.00    +0.000 A 
ATOM     25  C   UNL     1      -2.314  15.900  24.944  0.00  0.00    +0.000 A 
ATOM     26  C   UNL     1      -2.820  17.158  25.284  0.00  0.00    +0.000 A 
ATOM     27  C   UNL     1      -4.144  17.482  24.997  0.00  0.00    +0.000 A 
ATOM     28  C   UNL     1      -4.976  16.540  24.393  0.00  0.00    +0.000 A 
ATOM     29  C   UNL     1      -4.477  15.273  24.084  0.00  0.00    +0.000 A 
ATOM     30  N   UNL     1      -5.335  14.354  23.464  0.00  0.00    +0.000 N 
ATOM     31  H   UNL     1      -6.262  14.628  23.173  0.00  0.00    +0.000 HD
ENDBRANCH  17  22
ENDBRANCH   1  17
TORSDOF 3
ENDMDL
MODEL 7
REMARK VINA RESULT:      -7.6      1.169      1.832
REMARK  Name = 
REMARK  3 active torsions:
REMARK  status: ('A' for Active; 'I' for Inactive)
REMARK    1  A    between atoms: C_5  and  C_7
REMARK    2  A    between atoms: C_7  and  N_8
REMARK    3  A    between atoms: C_11  and  C_12
REMARK                            x       y       z     vdW  Elec       q    Type
REMARK                         _______ _______ _______ _____ _____    ______ ____
ROOT
ATOM      1  N   UNL     1       4.455   6.901  18.213  0.00  0.00    +0.000 NA
ATOM      2  C   UNL     1       4.641   5.484  18.564  0.00  0.00    +0.000 C 
ATOM      3  C   UNL     1       6.092   5.007  18.555  0.00  0.00    +0.000 C 
ATOM      4  C   UNL     1       6.839   5.386  17.273  0.00  0.00    +0.000 C 
ATOM      5  C   UNL     1       6.714   6.899  17.081  0.00  0.00    +0.000 C 
ATOM      6  C   UNL     1       5.261   7.373  17.076  0.00  0.00    +0.000 C 
ENDROOT
BRANCH   4   7
ATOM      7  C   UNL     1       6.430   4.573  16.054  0.00  0.00    +0.000 A 
ATOM      8  C   UNL     1       5.540   3.515  16.006  0.00  0.00    +0.000 A 
ATOM      9  N   UNL     1       5.461   3.048  14.723  0.00  0.00    +0.000 N 
ATOM     10  C   UNL     1       6.276   3.784  13.906  0.00  0.00    +0.000 A 
ATOM     11  C   UNL     1       6.499   3.656  12.529  0.00  0.00    +0.000 A 
ATOM     12  C   UNL     1       7.383   4.553  11.934  0.00  0.00    +0.000 A 
ATOM     13  C   UNL     1       8.017   5.536  12.687  0.00  0.00    +0.000 A 
ATOM     14  C   UNL     1       7.784   5.647  14.066  0.00  0.00    +0.000 A 
ATOM     15  C   UNL     1       6.895   4.752  14.699  0.00  0.00    +0.000 A 
ATOM     16  H   UNL     1       4.883   2.278  14.416  0.00  0.00    +0.000 HD
ENDBRANCH   4   7
BRANCH   1  17
ATOM     17  C   UNL     1       3.020   7.160  17.913  0.00  0.00    +0.000 C 
BRANCH  17  22
ATOM     18  O   UNL     1       2.384  11.959  17.655  0.00  0.00    +0.000 OA
ATOM     19  C   UNL     1       1.897  11.143  18.435  0.00  0.00    +0.000 C 
ATOM     20  C   UNL     1       1.552   9.723  18.017  0.00  0.00    +0.000 C 
ATOM     21  N   UNL     1       1.509   8.762  19.133  0.00  0.00    +0.000 N 
ATOM     22  C   UNL     1       2.195   7.534  19.160  0.00  0.00    +0.000 C 
ATOM     23  O   UNL     1       2.223   6.802  20.154  0.00  0.00    +0.000 OA
ATOM     24  C   UNL     1       0.836   9.251  20.302  0.00  0.00    +0.000 A 
ATOM     25  C   UNL     1       0.212   8.405  21.225  0.00  0.00    +0.000 A 
ATOM     26  C   UNL     1      -0.357   8.920  22.393  0.00  0.00    +0.000 A 
ATOM     27  C   UNL     1      -0.297  10.286  22.659  0.00  0.00    +0.000 A 
ATOM     28  C   UNL     1       0.308  11.147  21.745  0.00  0.00    +0.000 A 
ATOM     29  C   UNL     1       0.848  10.634  20.564  0.00  0.00    +0.000 A 
ATOM     30  N   UNL     1       1.463  11.524  19.673  0.00  0.00    +0.000 N 
ATOM     31  H   UNL     1       1.588  12.497  19.917  0.00  0.00    +0.000 HD
ENDBRANCH  17  22
ENDBRANCH   1  17
TORSDOF 3
ENDMDL
MODEL 8
REMARK VINA RESULT:      -7.6      1.838      2.728
REMARK  Name = 
REMARK  3 active torsions:
REMARK  status: ('A' for Active; 'I' for Inactive)
REMARK    1  A    between atoms: C_5  and  C_7
REMARK    2  A    between atoms: C_7  and  N_8
REMARK    3  A    between atoms: C_11  and  C_12
REMARK                            x       y       z     vdW  Elec       q    Type
REMARK                         _______ _______ _______ _____ _____    ______ ____
ROOT
ATOM      1  N   UNL     1       1.941   6.132  19.414  0.00  0.00    +0.000 NA
ATOM      2  C   UNL     1       1.707   5.728  18.019  0.00  0.00    +0.000 C 
ATOM      3  C   UNL     1       1.668   4.219  17.787  0.00  0.00    +0.000 C 
ATOM      4  C   UNL     1       2.862   3.487  18.406  0.00  0.00    +0.000 C 
ATOM      5  C   UNL     1       2.926   3.855  19.891  0.00  0.00    +0.000 C 
ATOM      6  C   UNL     1       2.979   5.365  20.120  0.00  0.00    +0.000 C 
ENDROOT
BRANCH   4   7
ATOM      7  C   UNL     1       4.171   3.696  17.661  0.00  0.00    +0.000 A 
ATOM      8  C   UNL     1       4.484   3.292  16.376  0.00  0.00    +0.000 A 
ATOM      9  N   UNL     1       5.768   3.661  16.085  0.00  0.00    +0.000 N 
ATOM     10  C   UNL     1       6.320   4.318  17.152  0.00  0.00    +0.000 A 
ATOM     11  C   UNL     1       7.600   4.867  17.288  0.00  0.00    +0.000 A 
ATOM     12  C   UNL     1       7.906   5.498  18.492  0.00  0.00    +0.000 A 
ATOM     13  C   UNL     1       6.968   5.573  19.516  0.00  0.00    +0.000 A 
ATOM     14  C   UNL     1       5.691   5.013  19.363  0.00  0.00    +0.000 A 
ATOM     15  C   UNL     1       5.351   4.366  18.156  0.00  0.00    +0.000 A 
ATOM     16  H   UNL     1       6.243   3.484  15.211  0.00  0.00    +0.000 HD
ENDBRANCH   4   7
BRANCH   1  17
ATOM     17  C   UNL     1       2.306   7.575  19.464  0.00  0.00    +0.000 C 
BRANCH  17  22
ATOM     18  O   UNL     1       2.456  12.145  17.852  0.00  0.00    +0.000 OA
ATOM     19  C   UNL     1       1.779  11.652  18.753  0.00  0.00    +0.000 C 
ATOM     20  C   UNL     1       1.255  10.226  18.690  0.00  0.00    +0.000 C 
ATOM     21  N   UNL     1       0.964   9.634  20.006  0.00  0.00    +0.000 N 
ATOM     22  C   UNL     1       1.443   8.388  20.449  0.00  0.00    +0.000 C 
ATOM     23  O   UNL     1       1.269   7.971  21.598  0.00  0.00    +0.000 OA
ATOM     24  C   UNL     1       0.274  10.516  20.906  0.00  0.00    +0.000 A 
ATOM     25  C   UNL     1      -0.553  10.051  21.933  0.00  0.00    +0.000 A 
ATOM     26  C   UNL     1      -1.135  10.943  22.838  0.00  0.00    +0.000 A 
ATOM     27  C   UNL     1      -0.886  12.309  22.734  0.00  0.00    +0.000 A 
ATOM     28  C   UNL     1      -0.075  12.793  21.709  0.00  0.00    +0.000 A 
ATOM     29  C   UNL     1       0.481  11.903  20.787  0.00  0.00    +0.000 A 
ATOM     30  N   UNL     1       1.303  12.419  19.777  0.00  0.00    +0.000 N 
ATOM     31  H   UNL     1       1.557  13.397  19.766  0.00  0.00    +0.000 HD
ENDBRANCH  17  22
ENDBRANCH   1  17
TORSDOF 3
ENDMDL
MODEL 9
REMARK VINA RESULT:      -7.5      2.514      9.885
REMARK  Name = 
REMARK  3 active torsions:
REMARK  status: ('A' for Active; 'I' for Inactive)
REMARK    1  A    between atoms: C_5  and  C_7
REMARK    2  A    between atoms: C_7  and  N_8
REMARK    3  A    between atoms: C_11  and  C_12
REMARK                            x       y       z     vdW  Elec       q    Type
REMARK                         _______ _______ _______ _____ _____    ______ ____
ROOT
ATOM      1  N   UNL     1       1.488   9.685  19.346  0.00  0.00    +0.000 NA
ATOM      2  C   UNL     1       1.424  10.986  18.661  0.00  0.00    +0.000 C 
ATOM      3  C   UNL     1       1.302  12.193  19.589  0.00  0.00    +0.000 C 
ATOM      4  C   UNL     1       0.193  12.036  20.633  0.00  0.00    +0.000 C 
ATOM      5  C   UNL     1       0.438  10.731  21.393  0.00  0.00    +0.000 C 
ATOM      6  C   UNL     1       0.545   9.522  20.464  0.00  0.00    +0.000 C 
ENDROOT
BRANCH   4   7
ATOM      7  C   UNL     1      -1.213  12.168  20.067  0.00  0.00    +0.000 A 
ATOM      8  C   UNL     1      -1.600  12.095  18.741  0.00  0.00    +0.000 A 
ATOM      9  N   UNL     1      -2.951  12.279  18.653  0.00  0.00    +0.000 N 
ATOM     10  C   UNL     1      -3.481  12.464  19.901  0.00  0.00    +0.000 A 
ATOM     11  C   UNL     1      -4.813  12.682  20.274  0.00  0.00    +0.000 A 
ATOM     12  C   UNL     1      -5.086  12.831  21.633  0.00  0.00    +0.000 A 
ATOM     13  C   UNL     1      -4.066  12.764  22.575  0.00  0.00    +0.000 A 
ATOM     14  C   UNL     1      -2.737  12.549  22.183  0.00  0.00    +0.000 A 
ATOM     15  C   UNL     1      -2.428  12.395  20.814  0.00  0.00    +0.000 A 
ATOM     16  H   UNL     1      -3.487  12.274  17.796  0.00  0.00    +0.000 HD
ENDBRANCH   4   7
BRANCH   1  17
ATOM     17  C   UNL     1       1.252   8.589  18.366  0.00  0.00    +0.000 C 
BRANCH  17  22
ATOM     18  O   UNL     1       2.271   4.759  21.158  0.00  0.00    +0.000 OA
ATOM     19  C   UNL     1       2.808   5.138  20.119  0.00  0.00    +0.000 C 
ATOM     20  C   UNL     1       2.029   5.809  18.998  0.00  0.00    +0.000 C 
ATOM     21  N   UNL     1       2.850   6.660  18.122  0.00  0.00    +0.000 N 
ATOM     22  C   UNL     1       2.552   7.995  17.791  0.00  0.00    +0.000 C 
ATOM     23  O   UNL     1       3.318   8.713  17.141  0.00  0.00    +0.000 OA
ATOM     24  C   UNL     1       4.107   6.076  17.747  0.00  0.00    +0.000 A 
ATOM     25  C   UNL     1       4.772   6.409  16.562  0.00  0.00    +0.000 A 
ATOM     26  C   UNL     1       6.034   5.878  16.281  0.00  0.00    +0.000 A 
ATOM     27  C   UNL     1       6.652   5.020  17.187  0.00  0.00    +0.000 A 
ATOM     28  C   UNL     1       5.999   4.666  18.367  0.00  0.00    +0.000 A 
ATOM     29  C   UNL     1       4.725   5.172  18.631  0.00  0.00    +0.000 A 
ATOM     30  N   UNL     1       4.101   4.808  19.833  0.00  0.00    +0.000 N 
ATOM     31  H   UNL     1       4.594   4.264  20.527  0.00  0.00    +0.000 HD
ENDBRANCH  17  22
ENDBRANCH   1  17
TORSDOF 3
ENDMDL
