MODEL 1
REMARK VINA RESULT:      -8.2      0.000      0.000
REMARK  Name = 
REMARK  6 active torsions:
REMARK  status: ('A' for Active; 'I' for Inactive)
REMARK    1  A    between atoms: C_1  and  C_2
REMARK    2  A    between atoms: C_2  and  N_3
REMARK    3  A    between atoms: C_7  and  C_8
REMARK    4  A    between atoms: C_12  and  N_13
REMARK    5  A    between atoms: C_18  and  C_19
REMARK    6  A    between atoms: C_23  and  C_24
REMARK                            x       y       z     vdW  Elec       q    Type
REMARK                         _______ _______ _______ _____ _____    ______ ____
ROOT
ATOM      1  N   UNL     1       6.200   5.614  15.581  0.00  0.00    +0.000 N 
ATOM      2  C   UNL     1       5.035   6.508  15.811  0.00  0.00    +0.000 C 
ATOM      3  C   UNL     1       4.211   5.707  16.773  0.00  0.00    +0.000 A 
ATOM      4  C   UNL     1       4.513   4.361  16.573  0.00  0.00    +0.000 A 
ATOM      5  C   UNL     1       4.033   3.345  17.385  0.00  0.00    +0.000 A 
ATOM      6  C   UNL     1       3.222   3.685  18.476  0.00  0.00    +0.000 A 
ATOM      7  C   UNL     1       2.932   5.060  18.682  0.00  0.00    +0.000 A 
ATOM      8  C   UNL     1       3.414   6.091  17.841  0.00  0.00    +0.000 A 
ATOM      9  C   UNL     1       5.688   4.299  15.677  0.00  0.00    +0.000 C 
ATOM     10  O   UNL     1       6.201   3.252  15.308  0.00  0.00    +0.000 OA
ENDROOT
BRANCH   1  15
ATOM     11  C   UNL     1       7.884   7.742  17.999  0.00  0.00    +0.000 A 
ATOM     12  C   UNL     1       7.863   6.835  19.061  0.00  0.00    +0.000 A 
ATOM     13  C   UNL     1       7.774   5.469  18.824  0.00  0.00    +0.000 A 
ATOM     14  C   UNL     1       7.577   5.013  17.528  0.00  0.00    +0.000 A 
ATOM     15  C   UNL     1       7.272   5.939  16.517  0.00  0.00    +0.000 A 
ATOM     16  C   UNL     1       7.593   7.289  16.702  0.00  0.00    +0.000 A 
BRANCH  11  21
ATOM     17  N   UNL     1      10.105  11.259  18.239  0.00  0.00    +0.000 N 
ATOM     18  C   UNL     1       9.032  11.880  17.651  0.00  0.00    +0.000 C 
ATOM     19  N   UNL     1       7.840  11.420  17.452  0.00  0.00    +0.000 NA
ATOM     20  N   UNL     1       7.655  10.039  17.406  0.00  0.00    +0.000 NA
ATOM     21  C   UNL     1       8.165   9.194  18.246  0.00  0.00    +0.000 C 
ATOM     22  C   UNL     1       9.015   9.457  19.473  0.00  0.00    +0.000 C 
ATOM     23  C   UNL     1       9.821  10.727  19.557  0.00  0.00    +0.000 C 
BRANCH  17  25
ATOM     24  C   UNL     1      11.613  12.922  17.172  0.00  0.00    +0.000 C 
ATOM     25  C   UNL     1      11.480  11.602  17.910  0.00  0.00    +0.000 C 
ENDBRANCH  17  25
ENDBRANCH  11  21
ENDBRANCH   1  15
BRANCH   8  26
ATOM     26  C   UNL     1       3.120   7.526  18.190  0.00  0.00    +0.000 C 
ATOM     27  F   UNL     1       4.193   8.355  18.091  0.00  0.00    +0.000 F 
ATOM     28  F   UNL     1       2.164   8.063  17.384  0.00  0.00    +0.000 F 
ATOM     29  F   UNL     1       2.658   7.664  19.464  0.00  0.00    +0.000 F 
ENDBRANCH   8  26
BRANCH   6  30
ATOM     30  C   UNL     1       2.661   2.630  19.400  0.00  0.00    +0.000 C 
ATOM     31  C   UNL     1       1.262   2.091  19.205  0.00  0.00    +0.000 C 
ATOM     32  C   UNL     1       1.563   2.962  20.385  0.00  0.00    +0.000 C 
ENDBRANCH   6  30
TORSDOF 5
ENDMDL
MODEL 2
REMARK VINA RESULT:      -7.8      5.648      9.401
REMARK  Name = 
REMARK  6 active torsions:
REMARK  status: ('A' for Active; 'I' for Inactive)
REMARK    1  A    between atoms: C_1  and  C_2
REMARK    2  A    between atoms: C_2  and  N_3
REMARK    3  A    between atoms: C_7  and  C_8
REMARK    4  A    between atoms: C_12  and  N_13
REMARK    5  A    between atoms: C_18  and  C_19
REMARK    6  A    between atoms: C_23  and  C_24
REMARK                            x       y       z     vdW  Elec       q    Type
REMARK                         _______ _______ _______ _____ _____    ______ ____
ROOT
ATOM      1  N   UNL     1      -0.075   9.297  20.907  0.00  0.00    +0.000 N 
ATOM      2  C   UNL     1      -1.204   9.325  19.941  0.00  0.00    +0.000 C 
ATOM      3  C   UNL     1      -1.263  10.775  19.569  0.00  0.00    +0.000 A 
ATOM      4  C   UNL     1      -0.737  11.508  20.632  0.00  0.00    +0.000 A 
ATOM      5  C   UNL     1      -0.512  12.875  20.576  0.00  0.00    +0.000 A 
ATOM      6  C   UNL     1      -0.806  13.555  19.386  0.00  0.00    +0.000 A 
ATOM      7  C   UNL     1      -1.327  12.799  18.303  0.00  0.00    +0.000 A 
ATOM      8  C   UNL     1      -1.567  11.406  18.372  0.00  0.00    +0.000 A 
ATOM      9  C   UNL     1      -0.119  10.547  21.570  0.00  0.00    +0.000 C 
ATOM     10  O   UNL     1       0.432  10.877  22.611  0.00  0.00    +0.000 OA
ENDROOT
BRANCH   1  15
ATOM     11  C   UNL     1       2.414   7.065  19.484  0.00  0.00    +0.000 A 
ATOM     12  C   UNL     1       2.339   7.547  18.174  0.00  0.00    +0.000 A 
ATOM     13  C   UNL     1       1.892   8.836  17.919  0.00  0.00    +0.000 A 
ATOM     14  C   UNL     1       1.398   9.606  18.962  0.00  0.00    +0.000 A 
ATOM     15  C   UNL     1       1.172   9.002  20.210  0.00  0.00    +0.000 A 
ATOM     16  C   UNL     1       1.830   7.806  20.524  0.00  0.00    +0.000 A 
BRANCH  11  21
ATOM     17  N   UNL     1       2.938   2.932  19.482  0.00  0.00    +0.000 N 
ATOM     18  C   UNL     1       4.259   3.182  19.204  0.00  0.00    +0.000 C 
ATOM     19  N   UNL     1       4.896   4.305  19.247  0.00  0.00    +0.000 NA
ATOM     20  N   UNL     1       4.170   5.490  19.138  0.00  0.00    +0.000 NA
ATOM     21  C   UNL     1       3.068   5.747  19.771  0.00  0.00    +0.000 C 
ATOM     22  C   UNL     1       2.329   4.901  20.789  0.00  0.00    +0.000 C 
ATOM     23  C   UNL     1       2.516   3.407  20.785  0.00  0.00    +0.000 C 
BRANCH  17  25
ATOM     24  C   UNL     1       0.721   2.089  18.737  0.00  0.00    +0.000 C 
ATOM     25  C   UNL     1       2.210   1.827  18.875  0.00  0.00    +0.000 C 
ENDBRANCH  17  25
ENDBRANCH  11  21
ENDBRANCH   1  15
BRANCH   8  26
ATOM     26  C   UNL     1      -2.044  10.677  17.143  0.00  0.00    +0.000 C 
ATOM     27  F   UNL     1      -2.208  11.472  16.052  0.00  0.00    +0.000 F 
ATOM     28  F   UNL     1      -1.177   9.700  16.758  0.00  0.00    +0.000 F 
ATOM     29  F   UNL     1      -3.242  10.060  17.340  0.00  0.00    +0.000 F 
ENDBRANCH   8  26
BRANCH   6  30
ATOM     30  C   UNL     1      -0.589  15.043  19.255  0.00  0.00    +0.000 C 
ATOM     31  C   UNL     1       0.739  15.596  18.789  0.00  0.00    +0.000 C 
ATOM     32  C   UNL     1       0.316  15.785  20.213  0.00  0.00    +0.000 C 
ENDBRANCH   6  30
TORSDOF 5
ENDMDL
MODEL 3
REMARK VINA RESULT:      -7.7      7.325     10.277
REMARK  Name = 
REMARK  6 active torsions:
REMARK  status: ('A' for Active; 'I' for Inactive)
REMARK    1  A    between atoms: C_1  and  C_2
REMARK    2  A    between atoms: C_2  and  N_3
REMARK    3  A    between atoms: C_7  and  C_8
REMARK    4  A    between atoms: C_12  and  N_13
REMARK    5  A    between atoms: C_18  and  C_19
REMARK    6  A    between atoms: C_23  and  C_24
REMARK                            x       y       z     vdW  Elec       q    Type
REMARK                         _______ _______ _______ _____ _____    ______ ____
ROOT
ATOM      1  N   UNL     1      -0.512  11.778  20.144  0.00  0.00    +0.000 N 
ATOM      2  C   UNL     1      -0.972  12.738  21.181  0.00  0.00    +0.000 C 
ATOM      3  C   UNL     1      -2.455  12.743  20.968  0.00  0.00    +0.000 A 
ATOM      4  C   UNL     1      -2.694  12.398  19.638  0.00  0.00    +0.000 A 
ATOM      5  C   UNL     1      -3.963  12.174  19.128  0.00  0.00    +0.000 A 
ATOM      6  C   UNL     1      -5.062  12.276  19.991  0.00  0.00    +0.000 A 
ATOM      7  C   UNL     1      -4.809  12.612  21.347  0.00  0.00    +0.000 A 
ATOM      8  C   UNL     1      -3.512  12.853  21.859  0.00  0.00    +0.000 A 
ATOM      9  C   UNL     1      -1.413  11.934  19.064  0.00  0.00    +0.000 C 
ATOM     10  O   UNL     1      -1.288  11.559  17.907  0.00  0.00    +0.000 OA
ENDROOT
BRANCH   1  15
ATOM     11  C   UNL     1       1.112   8.581  20.735  0.00  0.00    +0.000 A 
ATOM     12  C   UNL     1       1.132   8.662  22.130  0.00  0.00    +0.000 A 
ATOM     13  C   UNL     1       0.217   9.457  22.807  0.00  0.00    +0.000 A 
ATOM     14  C   UNL     1      -0.641  10.275  22.086  0.00  0.00    +0.000 A 
ATOM     15  C   UNL     1      -0.434  10.434  20.706  0.00  0.00    +0.000 A 
ATOM     16  C   UNL     1       0.309   9.475  20.007  0.00  0.00    +0.000 A 
BRANCH  11  21
ATOM     17  N   UNL     1       2.091   5.082  18.697  0.00  0.00    +0.000 N 
ATOM     18  C   UNL     1       2.843   5.874  17.867  0.00  0.00    +0.000 C 
ATOM     19  N   UNL     1       3.179   7.113  18.015  0.00  0.00    +0.000 NA
ATOM     20  N   UNL     1       2.402   7.922  18.843  0.00  0.00    +0.000 NA
ATOM     21  C   UNL     1       1.973   7.585  20.019  0.00  0.00    +0.000 C 
ATOM     22  C   UNL     1       2.223   6.311  20.802  0.00  0.00    +0.000 C 
ATOM     23  C   UNL     1       2.573   5.046  20.063  0.00  0.00    +0.000 C 
BRANCH  17  25
ATOM     24  C   UNL     1       1.000   2.923  19.274  0.00  0.00    +0.000 C 
ATOM     25  C   UNL     1       1.312   3.955  18.205  0.00  0.00    +0.000 C 
ENDBRANCH  17  25
ENDBRANCH  11  21
ENDBRANCH   1  15
BRANCH   8  26
ATOM     26  C   UNL     1      -3.338  13.123  23.331  0.00  0.00    +0.000 C 
ATOM     27  F   UNL     1      -2.597  14.227  23.612  0.00  0.00    +0.000 F 
ATOM     28  F   UNL     1      -4.529  13.310  23.962  0.00  0.00    +0.000 F 
ATOM     29  F   UNL     1      -2.729  12.090  23.977  0.00  0.00    +0.000 F 
ENDBRANCH   8  26
BRANCH   6  30
ATOM     30  C   UNL     1      -6.472  12.048  19.502  0.00  0.00    +0.000 C 
ATOM     31  C   UNL     1      -6.958  10.659  19.153  0.00  0.00    +0.000 C 
ATOM     32  C   UNL     1      -6.746  11.665  18.065  0.00  0.00    +0.000 C 
ENDBRANCH   6  30
TORSDOF 5
ENDMDL
MODEL 4
REMARK VINA RESULT:      -7.7      9.342     12.400
REMARK  Name = 
REMARK  6 active torsions:
REMARK  status: ('A' for Active; 'I' for Inactive)
REMARK    1  A    between atoms: C_1  and  C_2
REMARK    2  A    between atoms: C_2  and  N_3
REMARK    3  A    between atoms: C_7  and  C_8
REMARK    4  A    between atoms: C_12  and  N_13
REMARK    5  A    between atoms: C_18  and  C_19
REMARK    6  A    between atoms: C_23  and  C_24
REMARK                            x       y       z     vdW  Elec       q    Type
REMARK                         _______ _______ _______ _____ _____    ______ ____
ROOT
ATOM      1  N   UNL     1      -0.559  11.725  18.895  0.00  0.00    +0.000 N 
ATOM      2  C   UNL     1       0.251  11.037  19.933  0.00  0.00    +0.000 C 
ATOM      3  C   UNL     1      -0.443  11.447  21.196  0.00  0.00    +0.000 A 
ATOM      4  C   UNL     1      -1.074  12.668  20.957  0.00  0.00    +0.000 A 
ATOM      5  C   UNL     1      -1.923  13.275  21.868  0.00  0.00    +0.000 A 
ATOM      6  C   UNL     1      -2.180  12.626  23.083  0.00  0.00    +0.000 A 
ATOM      7  C   UNL     1      -1.546  11.377  23.313  0.00  0.00    +0.000 A 
ATOM      8  C   UNL     1      -0.669  10.767  22.384  0.00  0.00    +0.000 A 
ATOM      9  C   UNL     1      -1.005  12.923  19.502  0.00  0.00    +0.000 C 
ATOM     10  O   UNL     1      -1.471  13.920  18.969  0.00  0.00    +0.000 OA
ENDROOT
BRANCH   1  15
ATOM     11  C   UNL     1      -3.876  11.008  17.594  0.00  0.00    +0.000 A 
ATOM     12  C   UNL     1      -3.460  10.395  16.410  0.00  0.00    +0.000 A 
ATOM     13  C   UNL     1      -2.204   9.810  16.319  0.00  0.00    +0.000 A 
ATOM     14  C   UNL     1      -1.309   9.948  17.370  0.00  0.00    +0.000 A 
ATOM     15  C   UNL     1      -1.613  10.838  18.413  0.00  0.00    +0.000 A 
ATOM     16  C   UNL     1      -2.942  11.228  18.620  0.00  0.00    +0.000 A 
BRANCH  11  21
ATOM     17  N   UNL     1      -7.202  12.700  19.448  0.00  0.00    +0.000 N 
ATOM     18  C   UNL     1      -7.453  13.318  18.248  0.00  0.00    +0.000 C 
ATOM     19  N   UNL     1      -6.911  13.099  17.095  0.00  0.00    +0.000 NA
ATOM     20  N   UNL     1      -5.651  12.503  17.051  0.00  0.00    +0.000 NA
ATOM     21  C   UNL     1      -5.292  11.473  17.751  0.00  0.00    +0.000 C 
ATOM     22  C   UNL     1      -6.109  10.641  18.721  0.00  0.00    +0.000 C 
ATOM     23  C   UNL     1      -7.309  11.256  19.393  0.00  0.00    +0.000 C 
BRANCH  17  25
ATOM     24  C   UNL     1      -7.067  14.844  20.699  0.00  0.00    +0.000 C 
ATOM     25  C   UNL     1      -7.409  13.365  20.725  0.00  0.00    +0.000 C 
ENDBRANCH  17  25
ENDBRANCH  11  21
ENDBRANCH   1  15
BRANCH   8  26
ATOM     26  C   UNL     1      -0.109   9.401  22.683  0.00  0.00    +0.000 C 
ATOM     27  F   UNL     1      -0.075   9.091  24.006  0.00  0.00    +0.000 F 
ATOM     28  F   UNL     1      -0.832   8.411  22.091  0.00  0.00    +0.000 F 
ATOM     29  F   UNL     1       1.167   9.256  22.231  0.00  0.00    +0.000 F 
ENDBRANCH   8  26
BRANCH   6  30
ATOM     30  C   UNL     1      -3.092  13.232  24.122  0.00  0.00    +0.000 C 
ATOM     31  C   UNL     1      -4.501  12.717  24.314  0.00  0.00    +0.000 C 
ATOM     32  C   UNL     1      -4.282  14.074  23.719  0.00  0.00    +0.000 C 
ENDBRANCH   6  30
TORSDOF 5
ENDMDL
MODEL 5
REMARK VINA RESULT:      -7.7      9.147     12.117
REMARK  Name = 
REMARK  6 active torsions:
REMARK  status: ('A' for Active; 'I' for Inactive)
REMARK    1  A    between atoms: C_1  and  C_2
REMARK    2  A    between atoms: C_2  and  N_3
REMARK    3  A    between atoms: C_7  and  C_8
REMARK    4  A    between atoms: C_12  and  N_13
REMARK    5  A    between atoms: C_18  and  C_19
REMARK    6  A    between atoms: C_23  and  C_24
REMARK                            x       y       z     vdW  Elec       q    Type
REMARK                         _______ _______ _______ _____ _____    ______ ____
ROOT
ATOM      1  N   UNL     1      -0.337  11.107  18.299  0.00  0.00    +0.000 N 
ATOM      2  C   UNL     1       0.364  10.307  19.337  0.00  0.00    +0.000 C 
ATOM      3  C   UNL     1      -0.011  11.029  20.595  0.00  0.00    +0.000 A 
ATOM      4  C   UNL     1      -0.284  12.354  20.259  0.00  0.00    +0.000 A 
ATOM      5  C   UNL     1      -0.794  13.276  21.160  0.00  0.00    +0.000 A 
ATOM      6  C   UNL     1      -1.072  12.856  22.467  0.00  0.00    +0.000 A 
ATOM      7  C   UNL     1      -0.805  11.501  22.797  0.00  0.00    +0.000 A 
ATOM      8  C   UNL     1      -0.271  10.567  21.877  0.00  0.00    +0.000 A 
ATOM      9  C   UNL     1      -0.331  12.436  18.784  0.00  0.00    +0.000 C 
ATOM     10  O   UNL     1      -0.551  13.472  18.171  0.00  0.00    +0.000 OA
ENDROOT
BRANCH   1  15
ATOM     11  C   UNL     1      -3.954  11.275  17.992  0.00  0.00    +0.000 A 
ATOM     12  C   UNL     1      -4.026  10.863  16.659  0.00  0.00    +0.000 A 
ATOM     13  C   UNL     1      -3.011  10.100  16.098  0.00  0.00    +0.000 A 
ATOM     14  C   UNL     1      -1.859   9.852  16.830  0.00  0.00    +0.000 A 
ATOM     15  C   UNL     1      -1.656  10.541  18.038  0.00  0.00    +0.000 A 
ATOM     16  C   UNL     1      -2.753  11.105  18.700  0.00  0.00    +0.000 A 
BRANCH  11  21
ATOM     17  N   UNL     1      -6.465  14.375  19.194  0.00  0.00    +0.000 N 
ATOM     18  C   UNL     1      -7.509  13.554  18.845  0.00  0.00    +0.000 C 
ATOM     19  N   UNL     1      -7.486  12.296  18.552  0.00  0.00    +0.000 NA
ATOM     20  N   UNL     1      -6.290  11.734  18.108  0.00  0.00    +0.000 NA
ATOM     21  C   UNL     1      -5.129  11.937  18.647  0.00  0.00    +0.000 C 
ATOM     22  C   UNL     1      -4.771  12.753  19.874  0.00  0.00    +0.000 C 
ATOM     23  C   UNL     1      -5.679  13.876  20.305  0.00  0.00    +0.000 C 
BRANCH  17  25
ATOM     24  C   UNL     1      -6.881  16.167  17.523  0.00  0.00    +0.000 C 
ATOM     25  C   UNL     1      -6.483  15.808  18.943  0.00  0.00    +0.000 C 
ENDBRANCH  17  25
ENDBRANCH  11  21
ENDBRANCH   1  15
BRANCH   8  26
ATOM     26  C   UNL     1      -0.101   9.131  22.298  0.00  0.00    +0.000 C 
ATOM     27  F   UNL     1       1.137   8.624  22.059  0.00  0.00    +0.000 F 
ATOM     28  F   UNL     1      -0.319   8.959  23.630  0.00  0.00    +0.000 F 
ATOM     29  F   UNL     1      -0.975   8.300  21.665  0.00  0.00    +0.000 F 
ENDBRANCH   8  26
BRANCH   6  30
ATOM     30  C   UNL     1      -1.625  13.808  23.500  0.00  0.00    +0.000 C 
ATOM     31  C   UNL     1      -3.117  14.006  23.653  0.00  0.00    +0.000 C 
ATOM     32  C   UNL     1      -2.276  15.110  23.089  0.00  0.00    +0.000 C 
ENDBRANCH   6  30
TORSDOF 5
ENDMDL
MODEL 6
REMARK VINA RESULT:      -7.6      8.693     11.657
REMARK  Name = 
REMARK  6 active torsions:
REMARK  status: ('A' for Active; 'I' for Inactive)
REMARK    1  A    between atoms: C_1  and  C_2
REMARK    2  A    between atoms: C_2  and  N_3
REMARK    3  A    between atoms: C_7  and  C_8
REMARK    4  A    between atoms: C_12  and  N_13
REMARK    5  A    between atoms: C_18  and  C_19
REMARK    6  A    between atoms: C_23  and  C_24
REMARK                            x       y       z     vdW  Elec       q    Type
REMARK                         _______ _______ _______ _____ _____    ______ ____
ROOT
ATOM      1  N   UNL     1      -0.010  13.785  19.998  0.00  0.00    +0.000 N 
ATOM      2  C   UNL     1      -1.049  13.469  18.984  0.00  0.00    +0.000 C 
ATOM      3  C   UNL     1      -0.626  12.111  18.514  0.00  0.00    +0.000 A 
ATOM      4  C   UNL     1       0.749  12.000  18.716  0.00  0.00    +0.000 A 
ATOM      5  C   UNL     1       1.454  10.824  18.519  0.00  0.00    +0.000 A 
ATOM      6  C   UNL     1       0.752   9.680  18.117  0.00  0.00    +0.000 A 
ATOM      7  C   UNL     1      -0.650   9.797  17.927  0.00  0.00    +0.000 A 
ATOM      8  C   UNL     1      -1.363  11.004  18.118  0.00  0.00    +0.000 A 
ATOM      9  C   UNL     1       1.171  13.161  19.530  0.00  0.00    +0.000 C 
ATOM     10  O   UNL     1       2.326  13.356  19.880  0.00  0.00    +0.000 OA
ENDROOT
BRANCH   1  15
ATOM     11  C   UNL     1      -2.521  12.759  22.416  0.00  0.00    +0.000 A 
ATOM     12  C   UNL     1      -1.955  11.520  22.726  0.00  0.00    +0.000 A 
ATOM     13  C   UNL     1      -0.598  11.295  22.540  0.00  0.00    +0.000 A 
ATOM     14  C   UNL     1       0.177  12.267  21.923  0.00  0.00    +0.000 A 
ATOM     15  C   UNL     1      -0.458  13.366  21.321  0.00  0.00    +0.000 A 
ATOM     16  C   UNL     1      -1.760  13.705  21.709  0.00  0.00    +0.000 A 
BRANCH  11  21
ATOM     17  N   UNL     1      -6.659  12.992  21.990  0.00  0.00    +0.000 N 
ATOM     18  C   UNL     1      -6.735  12.540  23.284  0.00  0.00    +0.000 C 
ATOM     19  N   UNL     1      -5.790  12.425  24.158  0.00  0.00    +0.000 NA
ATOM     20  N   UNL     1      -4.474  12.319  23.709  0.00  0.00    +0.000 NA
ATOM     21  C   UNL     1      -3.941  13.060  22.788  0.00  0.00    +0.000 C 
ATOM     22  C   UNL     1      -4.548  14.218  22.021  0.00  0.00    +0.000 C 
ATOM     23  C   UNL     1      -6.044  14.299  21.865  0.00  0.00    +0.000 C 
BRANCH  17  25
ATOM     24  C   UNL     1      -7.085  11.378  20.148  0.00  0.00    +0.000 C 
ATOM     25  C   UNL     1      -7.589  12.559  20.958  0.00  0.00    +0.000 C 
ENDBRANCH  17  25
ENDBRANCH  11  21
ENDBRANCH   1  15
BRANCH   8  26
ATOM     26  C   UNL     1      -2.862  11.008  17.972  0.00  0.00    +0.000 C 
ATOM     27  F   UNL     1      -3.407   9.777  17.786  0.00  0.00    +0.000 F 
ATOM     28  F   UNL     1      -3.482  11.523  19.069  0.00  0.00    +0.000 F 
ATOM     29  F   UNL     1      -3.277  11.764  16.917  0.00  0.00    +0.000 F 
ENDBRANCH   8  26
BRANCH   6  30
ATOM     30  C   UNL     1       1.457   8.366  17.880  0.00  0.00    +0.000 C 
ATOM     31  C   UNL     1       2.241   7.695  18.985  0.00  0.00    +0.000 C 
ATOM     32  C   UNL     1       2.966   8.291  17.818  0.00  0.00    +0.000 C 
ENDBRANCH   6  30
TORSDOF 5
ENDMDL
MODEL 7
REMARK VINA RESULT:      -7.5      9.188     12.161
REMARK  Name = 
REMARK  6 active torsions:
REMARK  status: ('A' for Active; 'I' for Inactive)
REMARK    1  A    between atoms: C_1  and  C_2
REMARK    2  A    between atoms: C_2  and  N_3
REMARK    3  A    between atoms: C_7  and  C_8
REMARK    4  A    between atoms: C_12  and  N_13
REMARK    5  A    between atoms: C_18  and  C_19
REMARK    6  A    between atoms: C_23  and  C_24
REMARK                            x       y       z     vdW  Elec       q    Type
REMARK                         _______ _______ _______ _____ _____    ______ ____
ROOT
ATOM      1  N   UNL     1      -0.408  11.536  18.596  0.00  0.00    +0.000 N 
ATOM      2  C   UNL     1       0.369  10.786  19.618  0.00  0.00    +0.000 C 
ATOM      3  C   UNL     1      -0.144  11.375  20.896  0.00  0.00    +0.000 A 
ATOM      4  C   UNL     1      -0.594  12.665  20.619  0.00  0.00    +0.000 A 
ATOM      5  C   UNL     1      -1.259  13.453  21.545  0.00  0.00    +0.000 A 
ATOM      6  C   UNL     1      -1.512  12.925  22.818  0.00  0.00    +0.000 A 
ATOM      7  C   UNL     1      -1.064  11.605  23.088  0.00  0.00    +0.000 A 
ATOM      8  C   UNL     1      -0.374  10.810  22.142  0.00  0.00    +0.000 A 
ATOM      9  C   UNL     1      -0.608  12.823  19.149  0.00  0.00    +0.000 C 
ATOM     10  O   UNL     1      -0.956  13.849  18.582  0.00  0.00    +0.000 OA
ENDROOT
BRANCH   1  15
ATOM     11  C   UNL     1      -3.912  11.289  17.665  0.00  0.00    +0.000 A 
ATOM     12  C   UNL     1      -3.716  10.595  16.468  0.00  0.00    +0.000 A 
ATOM     13  C   UNL     1      -2.575   9.829  16.271  0.00  0.00    +0.000 A 
ATOM     14  C   UNL     1      -1.563   9.856  17.221  0.00  0.00    +0.000 A 
ATOM     15  C   UNL     1      -1.623  10.804  18.256  0.00  0.00    +0.000 A 
ATOM     16  C   UNL     1      -2.853  11.389  18.582  0.00  0.00    +0.000 A 
BRANCH  11  21
ATOM     17  N   UNL     1      -6.577  13.973  19.411  0.00  0.00    +0.000 N 
ATOM     18  C   UNL     1      -7.117  14.124  18.158  0.00  0.00    +0.000 C 
ATOM     19  N   UNL     1      -6.906  13.419  17.096  0.00  0.00    +0.000 NA
ATOM     20  N   UNL     1      -5.721  12.690  17.001  0.00  0.00    +0.000 NA
ATOM     21  C   UNL     1      -5.221  11.960  17.949  0.00  0.00    +0.000 C 
ATOM     22  C   UNL     1      -5.778  11.668  19.328  0.00  0.00    +0.000 C 
ATOM     23  C   UNL     1      -6.739  12.641  19.959  0.00  0.00    +0.000 C 
BRANCH  17  25
ATOM     24  C   UNL     1      -5.004  15.636  20.382  0.00  0.00    +0.000 C 
ATOM     25  C   UNL     1      -6.419  15.090  20.331  0.00  0.00    +0.000 C 
ENDBRANCH  17  25
ENDBRANCH  11  21
ENDBRANCH   1  15
BRANCH   8  26
ATOM     26  C   UNL     1      -0.011   9.391  22.494  0.00  0.00    +0.000 C 
ATOM     27  F   UNL     1       1.275   9.057  22.208  0.00  0.00    +0.000 F 
ATOM     28  F   UNL     1      -0.171   9.137  23.822  0.00  0.00    +0.000 F 
ATOM     29  F   UNL     1      -0.788   8.482  21.842  0.00  0.00    +0.000 F 
ENDBRANCH   8  26
BRANCH   6  30
ATOM     30  C   UNL     1      -2.228  13.729  23.876  0.00  0.00    +0.000 C 
ATOM     31  C   UNL     1      -3.670  13.438  24.230  0.00  0.00    +0.000 C 
ATOM     32  C   UNL     1      -3.324  14.703  23.506  0.00  0.00    +0.000 C 
ENDBRANCH   6  30
TORSDOF 5
ENDMDL
MODEL 8
REMARK VINA RESULT:      -7.5      5.665      9.315
REMARK  Name = 
REMARK  6 active torsions:
REMARK  status: ('A' for Active; 'I' for Inactive)
REMARK    1  A    between atoms: C_1  and  C_2
REMARK    2  A    between atoms: C_2  and  N_3
REMARK    3  A    between atoms: C_7  and  C_8
REMARK    4  A    between atoms: C_12  and  N_13
REMARK    5  A    between atoms: C_18  and  C_19
REMARK    6  A    between atoms: C_23  and  C_24
REMARK                            x       y       z     vdW  Elec       q    Type
REMARK                         _______ _______ _______ _____ _____    ______ ____
ROOT
ATOM      1  N   UNL     1       0.158   9.195  20.842  0.00  0.00    +0.000 N 
ATOM      2  C   UNL     1      -1.035   9.218  19.956  0.00  0.00    +0.000 C 
ATOM      3  C   UNL     1      -1.144  10.673  19.615  0.00  0.00    +0.000 A 
ATOM      4  C   UNL     1      -0.559  11.398  20.653  0.00  0.00    +0.000 A 
ATOM      5  C   UNL     1      -0.363  12.769  20.605  0.00  0.00    +0.000 A 
ATOM      6  C   UNL     1      -0.749  13.463  19.452  0.00  0.00    +0.000 A 
ATOM      7  C   UNL     1      -1.330  12.716  18.393  0.00  0.00    +0.000 A 
ATOM      8  C   UNL     1      -1.540  11.318  18.453  0.00  0.00    +0.000 A 
ATOM      9  C   UNL     1       0.138  10.432  21.529  0.00  0.00    +0.000 C 
ATOM     10  O   UNL     1       0.754  10.755  22.535  0.00  0.00    +0.000 OA
ENDROOT
BRANCH   1  15
ATOM     11  C   UNL     1       2.261   7.173  18.675  0.00  0.00    +0.000 A 
ATOM     12  C   UNL     1       2.328   8.080  17.615  0.00  0.00    +0.000 A 
ATOM     13  C   UNL     1       2.131   9.438  17.832  0.00  0.00    +0.000 A 
ATOM     14  C   UNL     1       1.741   9.879  19.088  0.00  0.00    +0.000 A 
ATOM     15  C   UNL     1       1.359   8.934  20.056  0.00  0.00    +0.000 A 
ATOM     16  C   UNL     1       1.778   7.605  19.921  0.00  0.00    +0.000 A 
BRANCH  11  21
ATOM     17  N   UNL     1       3.103   3.220  19.690  0.00  0.00    +0.000 N 
ATOM     18  C   UNL     1       2.401   2.869  18.564  0.00  0.00    +0.000 C 
ATOM     19  N   UNL     1       1.985   3.623  17.601  0.00  0.00    +0.000 NA
ATOM     20  N   UNL     1       1.810   4.984  17.846  0.00  0.00    +0.000 NA
ATOM     21  C   UNL     1       2.655   5.741  18.475  0.00  0.00    +0.000 C 
ATOM     22  C   UNL     1       4.016   5.390  19.043  0.00  0.00    +0.000 C 
ATOM     23  C   UNL     1       4.317   3.961  19.412  0.00  0.00    +0.000 C 
BRANCH  17  25
ATOM     24  C   UNL     1       1.684   2.608  21.637  0.00  0.00    +0.000 C 
ATOM     25  C   UNL     1       3.018   2.462  20.929  0.00  0.00    +0.000 C 
ENDBRANCH  17  25
ENDBRANCH  11  21
ENDBRANCH   1  15
BRANCH   8  26
ATOM     26  C   UNL     1      -2.088  10.602  17.246  0.00  0.00    +0.000 C 
ATOM     27  F   UNL     1      -1.280   9.619  16.767  0.00  0.00    +0.000 F 
ATOM     28  F   UNL     1      -3.282  10.003  17.505  0.00  0.00    +0.000 F 
ATOM     29  F   UNL     1      -2.310  11.446  16.201  0.00  0.00    +0.000 F 
ENDBRANCH   8  26
BRANCH   6  30
ATOM     30  C   UNL     1      -0.567  14.958  19.333  0.00  0.00    +0.000 C 
ATOM     31  C   UNL     1       0.748  15.546  18.873  0.00  0.00    +0.000 C 
ATOM     32  C   UNL     1       0.319  15.713  20.298  0.00  0.00    +0.000 C 
ENDBRANCH   6  30
TORSDOF 5
ENDMDL
MODEL 9
REMARK VINA RESULT:      -7.5      4.184      7.019
REMARK  Name = 
REMARK  6 active torsions:
REMARK  status: ('A' for Active; 'I' for Inactive)
REMARK    1  A    between atoms: C_1  and  C_2
REMARK    2  A    between atoms: C_2  and  N_3
REMARK    3  A    between atoms: C_7  and  C_8
REMARK    4  A    between atoms: C_12  and  N_13
REMARK    5  A    between atoms: C_18  and  C_19
REMARK    6  A    between atoms: C_23  and  C_24
REMARK                            x       y       z     vdW  Elec       q    Type
REMARK                         _______ _______ _______ _____ _____    ______ ____
ROOT
ATOM      1  N   UNL     1       3.617   5.014  19.444  0.00  0.00    +0.000 N 
ATOM      2  C   UNL     1       4.998   5.561  19.480  0.00  0.00    +0.000 C 
ATOM      3  C   UNL     1       5.531   5.155  18.139  0.00  0.00    +0.000 A 
ATOM      4  C   UNL     1       4.832   4.020  17.730  0.00  0.00    +0.000 A 
ATOM      5  C   UNL     1       4.972   3.453  16.473  0.00  0.00    +0.000 A 
ATOM      6  C   UNL     1       5.841   4.059  15.557  0.00  0.00    +0.000 A 
ATOM      7  C   UNL     1       6.538   5.223  15.975  0.00  0.00    +0.000 A 
ATOM      8  C   UNL     1       6.401   5.790  17.265  0.00  0.00    +0.000 A 
ATOM      9  C   UNL     1       3.701   3.837  18.664  0.00  0.00    +0.000 C 
ATOM     10  O   UNL     1       2.893   2.922  18.576  0.00  0.00    +0.000 OA
ENDROOT
BRANCH   1  15
ATOM     11  C   UNL     1       1.894   8.210  19.603  0.00  0.00    +0.000 A 
ATOM     12  C   UNL     1       2.360   8.710  18.384  0.00  0.00    +0.000 A 
ATOM     13  C   UNL     1       2.775   7.848  17.377  0.00  0.00    +0.000 A 
ATOM     14  C   UNL     1       2.845   6.486  17.631  0.00  0.00    +0.000 A 
ATOM     15  C   UNL     1       2.691   6.028  18.950  0.00  0.00    +0.000 A 
ATOM     16  C   UNL     1       2.052   6.845  19.891  0.00  0.00    +0.000 A 
BRANCH  11  21
ATOM     17  N   UNL     1      -0.680  11.116  21.116  0.00  0.00    +0.000 N 
ATOM     18  C   UNL     1      -0.809  10.309  22.219  0.00  0.00    +0.000 C 
ATOM     19  N   UNL     1      -0.114   9.270  22.548  0.00  0.00    +0.000 NA
ATOM     20  N   UNL     1       0.566   8.577  21.548  0.00  0.00    +0.000 NA
ATOM     21  C   UNL     1       1.276   9.128  20.613  0.00  0.00    +0.000 C 
ATOM     22  C   UNL     1       1.591  10.594  20.389  0.00  0.00    +0.000 C 
ATOM     23  C   UNL     1       0.657  11.643  20.933  0.00  0.00    +0.000 C 
BRANCH  17  25
ATOM     24  C   UNL     1      -2.029  11.579  19.080  0.00  0.00    +0.000 C 
ATOM     25  C   UNL     1      -1.801  11.854  20.555  0.00  0.00    +0.000 C 
ENDBRANCH  17  25
ENDBRANCH  11  21
ENDBRANCH   1  15
BRANCH   8  26
ATOM     26  C   UNL     1       7.119   7.074  17.588  0.00  0.00    +0.000 C 
ATOM     27  F   UNL     1       6.300   8.148  17.740  0.00  0.00    +0.000 F 
ATOM     28  F   UNL     1       7.830   6.986  18.745  0.00  0.00    +0.000 F 
ATOM     29  F   UNL     1       8.015   7.421  16.622  0.00  0.00    +0.000 F 
ENDBRANCH   8  26
BRANCH   6  30
ATOM     30  C   UNL     1       6.045   3.493  14.172  0.00  0.00    +0.000 C 
ATOM     31  C   UNL     1       6.738   4.302  13.097  0.00  0.00    +0.000 C 
ATOM     32  C   UNL     1       5.269   4.030  12.990  0.00  0.00    +0.000 C 
ENDBRANCH   6  30
TORSDOF 5
ENDMDL
