MODEL 1
REMARK VINA RESULT:      -8.0      0.000      0.000
REMARK  Name = 
REMARK  5 active torsions:
REMARK  status: ('A' for Active; 'I' for Inactive)
REMARK    1  A    between atoms: C_1  and  C_2
REMARK    2  A    between atoms: C_7  and  N_8
REMARK    3  A    between atoms: C_11  and  C_12
REMARK    4  A    between atoms: N_14  and  C_15
REMARK    5  A    between atoms: C_25  and  C_26
REMARK                            x       y       z     vdW  Elec       q    Type
REMARK                         _______ _______ _______ _____ _____    ______ ____
ROOT
ATOM      1  N   UNL     1       4.322   5.171  18.177  0.00  0.00    +0.000 N 
ATOM      2  N   UNL     1       4.275   4.178  19.107  0.00  0.00    +0.000 NA
ATOM      3  C   UNL     1       3.399   4.577  20.023  0.00  0.00    +0.000 A 
ATOM      4  C   UNL     1       2.834   5.818  19.714  0.00  0.00    +0.000 A 
ATOM      5  C   UNL     1       3.413   6.164  18.490  0.00  0.00    +0.000 A 
ENDROOT
BRANCH   1  12
ATOM      6  C   UNL     1       7.055   6.415  18.287  0.00  0.00    +0.000 C 
ATOM      7  C   UNL     1       6.526   5.615  17.126  0.00  0.00    +0.000 A 
ATOM      8  C   UNL     1       7.413   5.342  16.066  0.00  0.00    +0.000 A 
ATOM      9  C   UNL     1       7.029   4.553  14.982  0.00  0.00    +0.000 A 
ATOM     10  C   UNL     1       5.730   4.072  14.905  0.00  0.00    +0.000 A 
ATOM     11  C   UNL     1       4.822   4.359  15.924  0.00  0.00    +0.000 A 
ATOM     12  C   UNL     1       5.223   5.066  17.072  0.00  0.00    +0.000 A 
ENDBRANCH   1  12
BRANCH   4  13
ATOM     13  C   UNL     1       1.837   6.635  20.392  0.00  0.00    +0.000 C 
ATOM     14  O   UNL     1       0.825   6.088  20.817  0.00  0.00    +0.000 OA
ATOM     15  N   UNL     1       2.060   8.004  20.467  0.00  0.00    +0.000 N 
ATOM     16  H   UNL     1       2.772   8.411  19.882  0.00  0.00    +0.000 HD
BRANCH  15  17
ATOM     17  C   UNL     1       1.193   8.885  21.163  0.00  0.00    +0.000 A 
ATOM     18  C   UNL     1       0.992   8.803  22.544  0.00  0.00    +0.000 A 
ATOM     19  C   UNL     1       0.068   9.621  23.192  0.00  0.00    +0.000 A 
ATOM     20  C   UNL     1      -0.669  10.560  22.497  0.00  0.00    +0.000 A 
ATOM     21  N   UNL     1      -1.557  11.298  23.176  0.00  0.00    +0.000 NA
ATOM     22  C   UNL     1      -2.283  12.200  22.486  0.00  0.00    +0.000 A 
ATOM     23  C   UNL     1      -2.154  12.408  21.129  0.00  0.00    +0.000 A 
ATOM     24  C   UNL     1      -1.218  11.645  20.430  0.00  0.00    +0.000 A 
ATOM     25  C   UNL     1      -0.449  10.686  21.109  0.00  0.00    +0.000 A 
ATOM     26  C   UNL     1       0.495   9.863  20.450  0.00  0.00    +0.000 A 
ENDBRANCH  15  17
ENDBRANCH   4  13
BRANCH   5  27
ATOM     27  C   UNL     1       3.052   7.312  17.622  0.00  0.00    +0.000 C 
ATOM     28  F   UNL     1       3.608   7.306  16.387  0.00  0.00    +0.000 F 
ATOM     29  F   UNL     1       1.716   7.359  17.382  0.00  0.00    +0.000 F 
ATOM     30  F   UNL     1       3.416   8.491  18.190  0.00  0.00    +0.000 F 
ENDBRANCH   5  27
TORSDOF 4
ENDMDL
MODEL 2
REMARK VINA RESULT:      -7.9      2.802      3.961
REMARK  Name = 
REMARK  5 active torsions:
REMARK  status: ('A' for Active; 'I' for Inactive)
REMARK    1  A    between atoms: C_1  and  C_2
REMARK    2  A    between atoms: C_7  and  N_8
REMARK    3  A    between atoms: C_11  and  C_12
REMARK    4  A    between atoms: N_14  and  C_15
REMARK    5  A    between atoms: C_25  and  C_26
REMARK                            x       y       z     vdW  Elec       q    Type
REMARK                         _______ _______ _______ _____ _____    ______ ____
ROOT
ATOM      1  N   UNL     1       2.661   7.210  18.686  0.00  0.00    +0.000 N 
ATOM      2  N   UNL     1       2.949   7.994  17.610  0.00  0.00    +0.000 NA
ATOM      3  C   UNL     1       2.226   9.099  17.761  0.00  0.00    +0.000 A 
ATOM      4  C   UNL     1       1.469   9.085  18.937  0.00  0.00    +0.000 A 
ATOM      5  C   UNL     1       1.802   7.870  19.544  0.00  0.00    +0.000 A 
ENDROOT
BRANCH   1  12
ATOM      6  C   UNL     1       1.233   4.778  17.649  0.00  0.00    +0.000 C 
ATOM      7  C   UNL     1       2.603   4.763  18.276  0.00  0.00    +0.000 A 
ATOM      8  C   UNL     1       3.304   3.541  18.278  0.00  0.00    +0.000 A 
ATOM      9  C   UNL     1       4.603   3.450  18.777  0.00  0.00    +0.000 A 
ATOM     10  C   UNL     1       5.205   4.565  19.341  0.00  0.00    +0.000 A 
ATOM     11  C   UNL     1       4.517   5.778  19.384  0.00  0.00    +0.000 A 
ATOM     12  C   UNL     1       3.247   5.911  18.794  0.00  0.00    +0.000 A 
ENDBRANCH   1  12
BRANCH   4  13
ATOM     13  C   UNL     1       0.559  10.056  19.526  0.00  0.00    +0.000 C 
ATOM     14  O   UNL     1      -0.588  10.117  19.095  0.00  0.00    +0.000 OA
ATOM     15  N   UNL     1       1.058  10.904  20.506  0.00  0.00    +0.000 N 
ATOM     16  H   UNL     1       2.056  10.971  20.626  0.00  0.00    +0.000 HD
BRANCH  15  17
ATOM     17  C   UNL     1       0.245  11.839  21.197  0.00  0.00    +0.000 A 
ATOM     18  C   UNL     1       0.551  13.203  21.252  0.00  0.00    +0.000 A 
ATOM     19  C   UNL     1      -0.213  14.087  22.011  0.00  0.00    +0.000 A 
ATOM     20  C   UNL     1      -1.316  13.654  22.721  0.00  0.00    +0.000 A 
ATOM     21  N   UNL     1      -1.992  14.551  23.450  0.00  0.00    +0.000 NA
ATOM     22  C   UNL     1      -3.057  14.116  24.152  0.00  0.00    +0.000 A 
ATOM     23  C   UNL     1      -3.488  12.806  24.154  0.00  0.00    +0.000 A 
ATOM     24  C   UNL     1      -2.786  11.879  23.383  0.00  0.00    +0.000 A 
ATOM     25  C   UNL     1      -1.664  12.289  22.644  0.00  0.00    +0.000 A 
ATOM     26  C   UNL     1      -0.896  11.390  21.867  0.00  0.00    +0.000 A 
ENDBRANCH  15  17
ENDBRANCH   4  13
BRANCH   5  27
ATOM     27  C   UNL     1       1.410   7.411  20.899  0.00  0.00    +0.000 C 
ATOM     28  F   UNL     1       0.082   7.448  21.167  0.00  0.00    +0.000 F 
ATOM     29  F   UNL     1       1.752   6.113  21.107  0.00  0.00    +0.000 F 
ATOM     30  F   UNL     1       2.007   8.159  21.863  0.00  0.00    +0.000 F 
ENDBRANCH   5  27
TORSDOF 4
ENDMDL
MODEL 3
REMARK VINA RESULT:      -7.8      5.265      7.815
REMARK  Name = 
REMARK  5 active torsions:
REMARK  status: ('A' for Active; 'I' for Inactive)
REMARK    1  A    between atoms: C_1  and  C_2
REMARK    2  A    between atoms: C_7  and  N_8
REMARK    3  A    between atoms: C_11  and  C_12
REMARK    4  A    between atoms: N_14  and  C_15
REMARK    5  A    between atoms: C_25  and  C_26
REMARK                            x       y       z     vdW  Elec       q    Type
REMARK                         _______ _______ _______ _____ _____    ______ ____
ROOT
ATOM      1  N   UNL     1       5.583   4.932  18.565  0.00  0.00    +0.000 N 
ATOM      2  N   UNL     1       6.687   4.504  19.238  0.00  0.00    +0.000 NA
ATOM      3  C   UNL     1       7.589   5.471  19.110  0.00  0.00    +0.000 A 
ATOM      4  C   UNL     1       7.104   6.560  18.380  0.00  0.00    +0.000 A 
ATOM      5  C   UNL     1       5.786   6.208  18.075  0.00  0.00    +0.000 A 
ENDROOT
BRANCH   1  12
ATOM      6  C   UNL     1       4.804   3.675  15.949  0.00  0.00    +0.000 C 
ATOM      7  C   UNL     1       4.081   3.455  17.252  0.00  0.00    +0.000 A 
ATOM      8  C   UNL     1       3.035   2.512  17.264  0.00  0.00    +0.000 A 
ATOM      9  C   UNL     1       2.355   2.196  18.440  0.00  0.00    +0.000 A 
ATOM     10  C   UNL     1       2.666   2.861  19.617  0.00  0.00    +0.000 A 
ATOM     11  C   UNL     1       3.674   3.826  19.622  0.00  0.00    +0.000 A 
ATOM     12  C   UNL     1       4.437   4.082  18.469  0.00  0.00    +0.000 A 
ENDBRANCH   1  12
BRANCH   4  13
ATOM     13  C   UNL     1       7.705   7.831  18.003  0.00  0.00    +0.000 C 
ATOM     14  O   UNL     1       7.714   8.143  16.817  0.00  0.00    +0.000 OA
ATOM     15  N   UNL     1       8.290   8.595  19.003  0.00  0.00    +0.000 N 
ATOM     16  H   UNL     1       8.471   8.167  19.897  0.00  0.00    +0.000 HD
BRANCH  15  17
ATOM     17  C   UNL     1       8.842   9.880  18.763  0.00  0.00    +0.000 A 
ATOM     18  C   UNL     1       8.321  10.752  17.802  0.00  0.00    +0.000 A 
ATOM     19  C   UNL     1       8.935  11.972  17.522  0.00  0.00    +0.000 A 
ATOM     20  C   UNL     1      10.070  12.376  18.198  0.00  0.00    +0.000 A 
ATOM     21  N   UNL     1      10.623  13.548  17.864  0.00  0.00    +0.000 NA
ATOM     22  C   UNL     1      11.740  13.926  18.518  0.00  0.00    +0.000 A 
ATOM     23  C   UNL     1      12.333  13.177  19.513  0.00  0.00    +0.000 A 
ATOM     24  C   UNL     1      11.744  11.962  19.865  0.00  0.00    +0.000 A 
ATOM     25  C   UNL     1      10.586  11.527  19.200  0.00  0.00    +0.000 A 
ATOM     26  C   UNL     1       9.959  10.292  19.494  0.00  0.00    +0.000 A 
ENDBRANCH  15  17
ENDBRANCH   4  13
BRANCH   5  27
ATOM     27  C   UNL     1       4.752   7.069  17.448  0.00  0.00    +0.000 C 
ATOM     28  F   UNL     1       3.469   6.752  17.749  0.00  0.00    +0.000 F 
ATOM     29  F   UNL     1       4.873   8.363  17.839  0.00  0.00    +0.000 F 
ATOM     30  F   UNL     1       4.838   7.032  16.093  0.00  0.00    +0.000 F 
ENDBRANCH   5  27
TORSDOF 4
ENDMDL
MODEL 4
REMARK VINA RESULT:      -7.8      1.061      1.861
REMARK  Name = 
REMARK  5 active torsions:
REMARK  status: ('A' for Active; 'I' for Inactive)
REMARK    1  A    between atoms: C_1  and  C_2
REMARK    2  A    between atoms: C_7  and  N_8
REMARK    3  A    between atoms: C_11  and  C_12
REMARK    4  A    between atoms: N_14  and  C_15
REMARK    5  A    between atoms: C_25  and  C_26
REMARK                            x       y       z     vdW  Elec       q    Type
REMARK                         _______ _______ _______ _____ _____    ______ ____
ROOT
ATOM      1  N   UNL     1       3.800   5.101  19.321  0.00  0.00    +0.000 N 
ATOM      2  N   UNL     1       3.506   4.275  20.363  0.00  0.00    +0.000 NA
ATOM      3  C   UNL     1       2.543   4.882  21.049  0.00  0.00    +0.000 A 
ATOM      4  C   UNL     1       2.162   6.097  20.471  0.00  0.00    +0.000 A 
ATOM      5  C   UNL     1       2.959   6.197  19.327  0.00  0.00    +0.000 A 
ENDROOT
BRANCH   1  12
ATOM      6  C   UNL     1       3.230   3.496  16.845  0.00  0.00    +0.000 C 
ATOM      7  C   UNL     1       4.586   4.029  17.226  0.00  0.00    +0.000 A 
ATOM      8  C   UNL     1       5.636   3.853  16.303  0.00  0.00    +0.000 A 
ATOM      9  C   UNL     1       6.908   4.372  16.542  0.00  0.00    +0.000 A 
ATOM     10  C   UNL     1       7.174   5.024  17.737  0.00  0.00    +0.000 A 
ATOM     11  C   UNL     1       6.160   5.178  18.683  0.00  0.00    +0.000 A 
ATOM     12  C   UNL     1       4.848   4.752  18.413  0.00  0.00    +0.000 A 
ENDBRANCH   1  12
BRANCH   4  13
ATOM     13  C   UNL     1       1.161   7.085  20.843  0.00  0.00    +0.000 C 
ATOM     14  O   UNL     1      -0.024   6.792  20.718  0.00  0.00    +0.000 OA
ATOM     15  N   UNL     1       1.602   8.332  21.264  0.00  0.00    +0.000 N 
ATOM     16  H   UNL     1       2.563   8.586  21.100  0.00  0.00    +0.000 HD
BRANCH  15  17
ATOM     17  C   UNL     1       0.719   9.346  21.716  0.00  0.00    +0.000 A 
ATOM     18  C   UNL     1       0.183   9.353  23.008  0.00  0.00    +0.000 A 
ATOM     19  C   UNL     1      -0.752  10.309  23.399  0.00  0.00    +0.000 A 
ATOM     20  C   UNL     1      -1.168  11.302  22.534  0.00  0.00    +0.000 A 
ATOM     21  N   UNL     1      -2.086  12.175  22.966  0.00  0.00    +0.000 NA
ATOM     22  C   UNL     1      -2.499  13.130  22.108  0.00  0.00    +0.000 A 
ATOM     23  C   UNL     1      -2.021  13.259  20.821  0.00  0.00    +0.000 A 
ATOM     24  C   UNL     1      -1.056  12.353  20.381  0.00  0.00    +0.000 A 
ATOM     25  C   UNL     1      -0.607  11.336  21.240  0.00  0.00    +0.000 A 
ATOM     26  C   UNL     1       0.350  10.372  20.842  0.00  0.00    +0.000 A 
ENDBRANCH  15  17
ENDBRANCH   4  13
BRANCH   5  27
ATOM     27  C   UNL     1       2.857   7.215  18.252  0.00  0.00    +0.000 C 
ATOM     28  F   UNL     1       2.632   8.484  18.671  0.00  0.00    +0.000 F 
ATOM     29  F   UNL     1       4.006   7.303  17.534  0.00  0.00    +0.000 F 
ATOM     30  F   UNL     1       1.848   6.921  17.392  0.00  0.00    +0.000 F 
ENDBRANCH   5  27
TORSDOF 4
ENDMDL
MODEL 5
REMARK VINA RESULT:      -7.8      2.780      9.017
REMARK  Name = 
REMARK  5 active torsions:
REMARK  status: ('A' for Active; 'I' for Inactive)
REMARK    1  A    between atoms: C_1  and  C_2
REMARK    2  A    between atoms: C_7  and  N_8
REMARK    3  A    between atoms: C_11  and  C_12
REMARK    4  A    between atoms: N_14  and  C_15
REMARK    5  A    between atoms: C_25  and  C_26
REMARK                            x       y       z     vdW  Elec       q    Type
REMARK                         _______ _______ _______ _____ _____    ______ ____
ROOT
ATOM      1  N   UNL     1      -0.579  11.828  22.146  0.00  0.00    +0.000 N 
ATOM      2  N   UNL     1      -0.614  11.288  23.395  0.00  0.00    +0.000 NA
ATOM      3  C   UNL     1      -0.376   9.990  23.238  0.00  0.00    +0.000 A 
ATOM      4  C   UNL     1      -0.156   9.647  21.900  0.00  0.00    +0.000 A 
ATOM      5  C   UNL     1      -0.247  10.862  21.215  0.00  0.00    +0.000 A 
ENDROOT
BRANCH   1  12
ATOM      6  C   UNL     1      -3.363  12.795  21.559  0.00  0.00    +0.000 C 
ATOM      7  C   UNL     1      -2.164  13.691  21.728  0.00  0.00    +0.000 A 
ATOM      8  C   UNL     1      -2.386  15.082  21.715  0.00  0.00    +0.000 A 
ATOM      9  C   UNL     1      -1.345  15.986  21.930  0.00  0.00    +0.000 A 
ATOM     10  C   UNL     1      -0.050  15.519  22.100  0.00  0.00    +0.000 A 
ATOM     11  C   UNL     1       0.200  14.147  22.080  0.00  0.00    +0.000 A 
ATOM     12  C   UNL     1      -0.852  13.220  21.967  0.00  0.00    +0.000 A 
ENDBRANCH   1  12
BRANCH   4  13
ATOM     13  C   UNL     1       0.153   8.380  21.254  0.00  0.00    +0.000 C 
ATOM     14  O   UNL     1      -0.755   7.573  21.086  0.00  0.00    +0.000 OA
ATOM     15  N   UNL     1       1.476   8.128  20.915  0.00  0.00    +0.000 N 
ATOM     16  H   UNL     1       2.196   8.714  21.308  0.00  0.00    +0.000 HD
BRANCH  15  17
ATOM     17  C   UNL     1       1.880   6.960  20.220  0.00  0.00    +0.000 A 
ATOM     18  C   UNL     1       2.547   7.011  18.992  0.00  0.00    +0.000 A 
ATOM     19  C   UNL     1       2.854   5.849  18.285  0.00  0.00    +0.000 A 
ATOM     20  C   UNL     1       2.532   4.601  18.782  0.00  0.00    +0.000 A 
ATOM     21  N   UNL     1       2.835   3.527  18.042  0.00  0.00    +0.000 NA
ATOM     22  C   UNL     1       2.501   2.315  18.528  0.00  0.00    +0.000 A 
ATOM     23  C   UNL     1       1.877   2.123  19.743  0.00  0.00    +0.000 A 
ATOM     24  C   UNL     1       1.576   3.246  20.514  0.00  0.00    +0.000 A 
ATOM     25  C   UNL     1       1.897   4.528  20.040  0.00  0.00    +0.000 A 
ATOM     26  C   UNL     1       1.592   5.706  20.764  0.00  0.00    +0.000 A 
ENDBRANCH  15  17
ENDBRANCH   4  13
BRANCH   5  27
ATOM     27  C   UNL     1       0.062  11.108  19.785  0.00  0.00    +0.000 C 
ATOM     28  F   UNL     1      -0.359  12.298  19.294  0.00  0.00    +0.000 F 
ATOM     29  F   UNL     1       1.401  11.110  19.554  0.00  0.00    +0.000 F 
ATOM     30  F   UNL     1      -0.497  10.157  18.991  0.00  0.00    +0.000 F 
ENDBRANCH   5  27
TORSDOF 4
ENDMDL
MODEL 6
REMARK VINA RESULT:      -7.7      3.105      9.444
REMARK  Name = 
REMARK  5 active torsions:
REMARK  status: ('A' for Active; 'I' for Inactive)
REMARK    1  A    between atoms: C_1  and  C_2
REMARK    2  A    between atoms: C_7  and  N_8
REMARK    3  A    between atoms: C_11  and  C_12
REMARK    4  A    between atoms: N_14  and  C_15
REMARK    5  A    between atoms: C_25  and  C_26
REMARK                            x       y       z     vdW  Elec       q    Type
REMARK                         _______ _______ _______ _____ _____    ______ ____
ROOT
ATOM      1  N   UNL     1      -0.646  12.157  21.542  0.00  0.00    +0.000 N 
ATOM      2  N   UNL     1      -0.079  12.569  20.374  0.00  0.00    +0.000 NA
ATOM      3  C   UNL     1       0.741  11.591  20.003  0.00  0.00    +0.000 A 
ATOM      4  C   UNL     1       0.719  10.511  20.891  0.00  0.00    +0.000 A 
ATOM      5  C   UNL     1      -0.222  10.880  21.857  0.00  0.00    +0.000 A 
ENDROOT
BRANCH   1  12
ATOM      6  C   UNL     1      -3.482  12.494  20.608  0.00  0.00    +0.000 C 
ATOM      7  C   UNL     1      -2.899  13.159  21.827  0.00  0.00    +0.000 A 
ATOM      8  C   UNL     1      -3.773  13.905  22.642  0.00  0.00    +0.000 A 
ATOM      9  C   UNL     1      -3.334  14.499  23.825  0.00  0.00    +0.000 A 
ATOM     10  C   UNL     1      -1.997  14.413  24.185  0.00  0.00    +0.000 A 
ATOM     11  C   UNL     1      -1.104  13.712  23.375  0.00  0.00    +0.000 A 
ATOM     12  C   UNL     1      -1.551  13.021  22.234  0.00  0.00    +0.000 A 
ENDBRANCH   1  12
BRANCH   4  13
ATOM     13  C   UNL     1       1.417   9.234  20.895  0.00  0.00    +0.000 C 
ATOM     14  O   UNL     1       1.928   8.851  21.943  0.00  0.00    +0.000 OA
ATOM     15  N   UNL     1       1.520   8.545  19.694  0.00  0.00    +0.000 N 
ATOM     16  H   UNL     1       1.306   9.030  18.838  0.00  0.00    +0.000 HD
BRANCH  15  17
ATOM     17  C   UNL     1       2.116   7.261  19.595  0.00  0.00    +0.000 A 
ATOM     18  C   UNL     1       2.968   6.909  18.544  0.00  0.00    +0.000 A 
ATOM     19  C   UNL     1       3.470   5.615  18.420  0.00  0.00    +0.000 A 
ATOM     20  C   UNL     1       3.163   4.635  19.344  0.00  0.00    +0.000 A 
ATOM     21  N   UNL     1       3.659   3.406  19.154  0.00  0.00    +0.000 NA
ATOM     22  C   UNL     1       3.341   2.453  20.052  0.00  0.00    +0.000 A 
ATOM     23  C   UNL     1       2.543   2.678  21.155  0.00  0.00    +0.000 A 
ATOM     24  C   UNL     1       2.039   3.964  21.354  0.00  0.00    +0.000 A 
ATOM     25  C   UNL     1       2.339   4.983  20.435  0.00  0.00    +0.000 A 
ATOM     26  C   UNL     1       1.835   6.299  20.569  0.00  0.00    +0.000 A 
ENDBRANCH  15  17
ENDBRANCH   4  13
BRANCH   5  27
ATOM     27  C   UNL     1      -0.760  10.034  22.951  0.00  0.00    +0.000 C 
ATOM     28  F   UNL     1       0.075   9.838  24.000  0.00  0.00    +0.000 F 
ATOM     29  F   UNL     1      -1.869  10.583  23.509  0.00  0.00    +0.000 F 
ATOM     30  F   UNL     1      -1.088   8.796  22.498  0.00  0.00    +0.000 F 
ENDBRANCH   5  27
TORSDOF 4
ENDMDL
MODEL 7
REMARK VINA RESULT:      -7.7      4.922      7.761
REMARK  Name = 
REMARK  5 active torsions:
REMARK  status: ('A' for Active; 'I' for Inactive)
REMARK    1  A    between atoms: C_1  and  C_2
REMARK    2  A    between atoms: C_7  and  N_8
REMARK    3  A    between atoms: C_11  and  C_12
REMARK    4  A    between atoms: N_14  and  C_15
REMARK    5  A    between atoms: C_25  and  C_26
REMARK                            x       y       z     vdW  Elec       q    Type
REMARK                         _______ _______ _______ _____ _____    ______ ____
ROOT
ATOM      1  N   UNL     1       5.429   4.829  18.470  0.00  0.00    +0.000 N 
ATOM      2  N   UNL     1       6.501   4.381  19.181  0.00  0.00    +0.000 NA
ATOM      3  C   UNL     1       7.437   5.316  19.057  0.00  0.00    +0.000 A 
ATOM      4  C   UNL     1       7.006   6.404  18.292  0.00  0.00    +0.000 A 
ATOM      5  C   UNL     1       5.685   6.088  17.959  0.00  0.00    +0.000 A 
ENDROOT
BRANCH   1  12
ATOM      6  C   UNL     1       3.191   5.064  20.461  0.00  0.00    +0.000 C 
ATOM      7  C   UNL     1       3.183   4.142  19.270  0.00  0.00    +0.000 A 
ATOM      8  C   UNL     1       2.000   3.419  19.015  0.00  0.00    +0.000 A 
ATOM      9  C   UNL     1       1.880   2.594  17.897  0.00  0.00    +0.000 A 
ATOM     10  C   UNL     1       2.962   2.424  17.046  0.00  0.00    +0.000 A 
ATOM     11  C   UNL     1       4.156   3.100  17.298  0.00  0.00    +0.000 A 
ATOM     12  C   UNL     1       4.259   4.015  18.361  0.00  0.00    +0.000 A 
ENDBRANCH   1  12
BRANCH   4  13
ATOM     13  C   UNL     1       7.657   7.647  17.905  0.00  0.00    +0.000 C 
ATOM     14  O   UNL     1       7.842   7.862  16.711  0.00  0.00    +0.000 OA
ATOM     15  N   UNL     1       8.089   8.497  18.914  0.00  0.00    +0.000 N 
ATOM     16  H   UNL     1       8.135   8.144  19.857  0.00  0.00    +0.000 HD
BRANCH  15  17
ATOM     17  C   UNL     1       8.671   9.764  18.653  0.00  0.00    +0.000 A 
ATOM     18  C   UNL     1       8.116  10.673  17.748  0.00  0.00    +0.000 A 
ATOM     19  C   UNL     1       8.755  11.873  17.442  0.00  0.00    +0.000 A 
ATOM     20  C   UNL     1       9.950  12.221  18.038  0.00  0.00    +0.000 A 
ATOM     21  N   UNL     1      10.523  13.378  17.682  0.00  0.00    +0.000 NA
ATOM     22  C   UNL     1      11.698  13.701  18.258  0.00  0.00    +0.000 A 
ATOM     23  C   UNL     1      12.333  12.913  19.195  0.00  0.00    +0.000 A 
ATOM     24  C   UNL     1      11.725  11.715  19.571  0.00  0.00    +0.000 A 
ATOM     25  C   UNL     1      10.505  11.336  18.987  0.00  0.00    +0.000 A 
ATOM     26  C   UNL     1       9.854  10.120  19.306  0.00  0.00    +0.000 A 
ENDBRANCH  15  17
ENDBRANCH   4  13
BRANCH   5  27
ATOM     27  C   UNL     1       4.696   6.967  17.288  0.00  0.00    +0.000 C 
ATOM     28  F   UNL     1       3.399   6.606  17.437  0.00  0.00    +0.000 F 
ATOM     29  F   UNL     1       4.744   8.235  17.770  0.00  0.00    +0.000 F 
ATOM     30  F   UNL     1       4.917   7.021  15.948  0.00  0.00    +0.000 F 
ENDBRANCH   5  27
TORSDOF 4
ENDMDL
MODEL 8
REMARK VINA RESULT:      -7.7      2.091      3.351
REMARK  Name = 
REMARK  5 active torsions:
REMARK  status: ('A' for Active; 'I' for Inactive)
REMARK    1  A    between atoms: C_1  and  C_2
REMARK    2  A    between atoms: C_7  and  N_8
REMARK    3  A    between atoms: C_11  and  C_12
REMARK    4  A    between atoms: N_14  and  C_15
REMARK    5  A    between atoms: C_25  and  C_26
REMARK                            x       y       z     vdW  Elec       q    Type
REMARK                         _______ _______ _______ _____ _____    ______ ____
ROOT
ATOM      1  N   UNL     1       2.516   6.476  19.560  0.00  0.00    +0.000 N 
ATOM      2  N   UNL     1       1.970   6.070  20.740  0.00  0.00    +0.000 NA
ATOM      3  C   UNL     1       1.244   7.093  21.177  0.00  0.00    +0.000 A 
ATOM      4  C   UNL     1       1.270   8.180  20.297  0.00  0.00    +0.000 A 
ATOM      5  C   UNL     1       2.063   7.741  19.233  0.00  0.00    +0.000 A 
ENDROOT
BRANCH   1  12
ATOM      6  C   UNL     1       1.468   4.439  17.616  0.00  0.00    +0.000 C 
ATOM      7  C   UNL     1       2.927   4.670  17.908  0.00  0.00    +0.000 A 
ATOM      8  C   UNL     1       3.865   3.956  17.138  0.00  0.00    +0.000 A 
ATOM      9  C   UNL     1       5.236   4.157  17.293  0.00  0.00    +0.000 A 
ATOM     10  C   UNL     1       5.700   5.031  18.266  0.00  0.00    +0.000 A 
ATOM     11  C   UNL     1       4.790   5.722  19.067  0.00  0.00    +0.000 A 
ATOM     12  C   UNL     1       3.405   5.608  18.853  0.00  0.00    +0.000 A 
ENDBRANCH   1  12
BRANCH   4  13
ATOM     13  C   UNL     1       0.629   9.486  20.337  0.00  0.00    +0.000 C 
ATOM     14  O   UNL     1      -0.210   9.751  19.483  0.00  0.00    +0.000 OA
ATOM     15  N   UNL     1       1.048  10.387  21.307  0.00  0.00    +0.000 N 
ATOM     16  H   UNL     1       1.905  10.200  21.802  0.00  0.00    +0.000 HD
BRANCH  15  17
ATOM     17  C   UNL     1       0.447  11.659  21.483  0.00  0.00    +0.000 A 
ATOM     18  C   UNL     1       0.932  12.811  20.857  0.00  0.00    +0.000 A 
ATOM     19  C   UNL     1       0.379  14.064  21.116  0.00  0.00    +0.000 A 
ATOM     20  C   UNL     1      -0.684  14.214  21.984  0.00  0.00    +0.000 A 
ATOM     21  N   UNL     1      -1.153  15.448  22.207  0.00  0.00    +0.000 NA
ATOM     22  C   UNL     1      -2.180  15.585  23.069  0.00  0.00    +0.000 A 
ATOM     23  C   UNL     1      -2.776  14.526  23.722  0.00  0.00    +0.000 A 
ATOM     24  C   UNL     1      -2.291  13.242  23.477  0.00  0.00    +0.000 A 
ATOM     25  C   UNL     1      -1.215  13.056  22.593  0.00  0.00    +0.000 A 
ATOM     26  C   UNL     1      -0.662  11.781  22.325  0.00  0.00    +0.000 A 
ENDBRANCH  15  17
ENDBRANCH   4  13
BRANCH   5  27
ATOM     27  C   UNL     1       2.294   8.436  17.943  0.00  0.00    +0.000 C 
ATOM     28  F   UNL     1       3.230   7.877  17.139  0.00  0.00    +0.000 F 
ATOM     29  F   UNL     1       1.172   8.459  17.178  0.00  0.00    +0.000 F 
ATOM     30  F   UNL     1       2.691   9.720  18.141  0.00  0.00    +0.000 F 
ENDBRANCH   5  27
TORSDOF 4
ENDMDL
MODEL 9
REMARK VINA RESULT:      -7.7      2.730      3.867
REMARK  Name = 
REMARK  5 active torsions:
REMARK  status: ('A' for Active; 'I' for Inactive)
REMARK    1  A    between atoms: C_1  and  C_2
REMARK    2  A    between atoms: C_7  and  N_8
REMARK    3  A    between atoms: C_11  and  C_12
REMARK    4  A    between atoms: N_14  and  C_15
REMARK    5  A    between atoms: C_25  and  C_26
REMARK                            x       y       z     vdW  Elec       q    Type
REMARK                         _______ _______ _______ _____ _____    ______ ____
ROOT
ATOM      1  N   UNL     1       2.664   7.230  18.695  0.00  0.00    +0.000 N 
ATOM      2  N   UNL     1       2.917   8.066  17.651  0.00  0.00    +0.000 NA
ATOM      3  C   UNL     1       2.152   9.135  17.847  0.00  0.00    +0.000 A 
ATOM      4  C   UNL     1       1.402   9.045  19.024  0.00  0.00    +0.000 A 
ATOM      5  C   UNL     1       1.784   7.822  19.582  0.00  0.00    +0.000 A 
ENDROOT
BRANCH   1  12
ATOM      6  C   UNL     1       1.297   4.773  17.634  0.00  0.00    +0.000 C 
ATOM      7  C   UNL     1       2.684   4.794  18.220  0.00  0.00    +0.000 A 
ATOM      8  C   UNL     1       3.429   3.599  18.168  0.00  0.00    +0.000 A 
ATOM      9  C   UNL     1       4.745   3.544  18.626  0.00  0.00    +0.000 A 
ATOM     10  C   UNL     1       5.323   4.665  19.203  0.00  0.00    +0.000 A 
ATOM     11  C   UNL     1       4.592   5.850  19.300  0.00  0.00    +0.000 A 
ATOM     12  C   UNL     1       3.301   5.951  18.750  0.00  0.00    +0.000 A 
ENDBRANCH   1  12
BRANCH   4  13
ATOM     13  C   UNL     1       0.458   9.956  19.654  0.00  0.00    +0.000 C 
ATOM     14  O   UNL     1      -0.652  10.087  19.149  0.00  0.00    +0.000 OA
ATOM     15  N   UNL     1       0.887  10.676  20.761  0.00  0.00    +0.000 N 
ATOM     16  H   UNL     1       1.874  10.711  20.962  0.00  0.00    +0.000 HD
BRANCH  15  17
ATOM     17  C   UNL     1       0.032  11.537  21.495  0.00  0.00    +0.000 A 
ATOM     18  C   UNL     1      -0.848  11.066  22.473  0.00  0.00    +0.000 A 
ATOM     19  C   UNL     1      -1.742  11.920  23.116  0.00  0.00    +0.000 A 
ATOM     20  C   UNL     1      -1.777  13.270  22.829  0.00  0.00    +0.000 A 
ATOM     21  N   UNL     1      -2.675  14.031  23.466  0.00  0.00    +0.000 NA
ATOM     22  C   UNL     1      -2.713  15.345  23.166  0.00  0.00    +0.000 A 
ATOM     23  C   UNL     1      -1.873  15.944  22.250  0.00  0.00    +0.000 A 
ATOM     24  C   UNL     1      -0.931  15.148  21.599  0.00  0.00    +0.000 A 
ATOM     25  C   UNL     1      -0.866  13.772  21.875  0.00  0.00    +0.000 A 
ATOM     26  C   UNL     1       0.049  12.908  21.226  0.00  0.00    +0.000 A 
ENDBRANCH  15  17
ENDBRANCH   4  13
BRANCH   5  27
ATOM     27  C   UNL     1       1.417   7.294  20.919  0.00  0.00    +0.000 C 
ATOM     28  F   UNL     1       0.091   7.287  21.199  0.00  0.00    +0.000 F 
ATOM     29  F   UNL     1       1.793   5.998  21.067  0.00  0.00    +0.000 F 
ATOM     30  F   UNL     1       2.004   8.015  21.909  0.00  0.00    +0.000 F 
ENDBRANCH   5  27
TORSDOF 4
ENDMDL
