MODEL 1
REMARK VINA RESULT:      -8.6      0.000      0.000
REMARK  Name = 
REMARK  6 active torsions:
REMARK  status: ('A' for Active; 'I' for Inactive)
REMARK    1  A    between atoms: C_4  and  C_5
REMARK    2  A    between atoms: C_8  and  C_9
REMARK    3  A    between atoms: C_9  and  N_10
REMARK    4  A    between atoms: C_16  and  C_17
REMARK    5  A    between atoms: C_19  and  C_20
REMARK    6  A    between atoms: C_20  and  C_21
REMARK                            x       y       z     vdW  Elec       q    Type
REMARK                         _______ _______ _______ _____ _____    ______ ____
ROOT
ATOM      1  N   UNL     1       4.802   4.397  17.842  0.00  0.00    +0.000 NA
ATOM      2  C   UNL     1       3.729   4.447  16.863  0.00  0.00    +0.000 C 
ATOM      3  C   UNL     1       2.550   4.669  17.822  0.00  0.00    +0.000 C 
ATOM      4  C   UNL     1       2.140   3.328  18.475  0.00  0.00    +0.000 C 
ATOM      5  C   UNL     1       2.684   3.331  19.892  0.00  0.00    +0.000 C 
ATOM      6  C   UNL     1       2.838   4.792  20.262  0.00  0.00    +0.000 C 
ATOM      7  C   UNL     1       3.143   5.562  18.959  0.00  0.00    +0.000 C 
ATOM      8  C   UNL     1       4.651   5.622  18.615  0.00  0.00    +0.000 C 
ENDROOT
BRANCH   7   9
ATOM      9  C   UNL     1       2.560   6.927  19.065  0.00  0.00    +0.000 A 
ATOM     10  N   UNL     1       2.267   7.806  18.133  0.00  0.00    +0.000 NA
ATOM     11  C   UNL     1       1.563   8.753  18.838  0.00  0.00    +0.000 A 
ATOM     12  N   UNL     1       1.449   8.510  20.151  0.00  0.00    +0.000 NA
ATOM     13  O   UNL     1       2.112   7.293  20.306  0.00  0.00    +0.000 OA
BRANCH  11  14
ATOM     14  C   UNL     1       0.933   9.929  18.177  0.00  0.00    +0.000 C 
BRANCH  14  15
ATOM     15  C   UNL     1      -0.502  10.189  18.584  0.00  0.00    +0.000 C 
ATOM     16  C   UNL     1      -1.617  10.153  17.569  0.00  0.00    +0.000 C 
ATOM     17  C   UNL     1      -1.188  11.467  18.154  0.00  0.00    +0.000 C 
ENDBRANCH  14  15
ENDBRANCH  11  14
ENDBRANCH   7   9
BRANCH   1  18
ATOM     18  C   UNL     1       6.126   3.994  17.415  0.00  0.00    +0.000 C 
BRANCH  18  22
ATOM     19  C   UNL     1       6.600   4.451  13.930  0.00  0.00    +0.000 A 
ATOM     20  N   UNL     1       7.503   5.334  14.377  0.00  0.00    +0.000 NA
ATOM     21  O   UNL     1       7.437   5.180  15.762  0.00  0.00    +0.000 OA
ATOM     22  C   UNL     1       6.500   4.214  15.999  0.00  0.00    +0.000 A 
ATOM     23  N   UNL     1       5.968   3.722  14.904  0.00  0.00    +0.000 NA
BRANCH  19  27
ATOM     24  C   UNL     1       6.680   2.043  11.745  0.00  0.00    +0.000 C 
ATOM     25  C   UNL     1       5.205   2.316  11.513  0.00  0.00    +0.000 C 
ATOM     26  C   UNL     1       4.914   3.613  12.266  0.00  0.00    +0.000 C 
ATOM     27  C   UNL     1       6.272   4.307  12.483  0.00  0.00    +0.000 C 
ATOM     28  C   UNL     1       7.295   3.434  11.748  0.00  0.00    +0.000 C 
ENDBRANCH  19  27
ENDBRANCH  18  22
ENDBRANCH   1  18
TORSDOF 6
ENDMDL
MODEL 2
REMARK VINA RESULT:      -8.5      2.433      7.752
REMARK  Name = 
REMARK  6 active torsions:
REMARK  status: ('A' for Active; 'I' for Inactive)
REMARK    1  A    between atoms: C_4  and  C_5
REMARK    2  A    between atoms: C_8  and  C_9
REMARK    3  A    between atoms: C_9  and  N_10
REMARK    4  A    between atoms: C_16  and  C_17
REMARK    5  A    between atoms: C_19  and  C_20
REMARK    6  A    between atoms: C_20  and  C_21
REMARK                            x       y       z     vdW  Elec       q    Type
REMARK                         _______ _______ _______ _____ _____    ______ ____
ROOT
ATOM      1  N   UNL     1       4.871   6.932  17.548  0.00  0.00    +0.000 NA
ATOM      2  C   UNL     1       5.850   7.804  16.920  0.00  0.00    +0.000 C 
ATOM      3  C   UNL     1       6.992   6.790  16.759  0.00  0.00    +0.000 C 
ATOM      4  C   UNL     1       7.737   6.615  18.104  0.00  0.00    +0.000 C 
ATOM      5  C   UNL     1       7.282   5.297  18.704  0.00  0.00    +0.000 C 
ATOM      6  C   UNL     1       6.810   4.461  17.532  0.00  0.00    +0.000 C 
ATOM      7  C   UNL     1       6.267   5.437  16.466  0.00  0.00    +0.000 C 
ATOM      8  C   UNL     1       4.771   5.787  16.654  0.00  0.00    +0.000 C 
ENDROOT
BRANCH   7   9
ATOM      9  C   UNL     1       6.520   4.859  15.118  0.00  0.00    +0.000 A 
ATOM     10  N   UNL     1       5.801   4.030  14.395  0.00  0.00    +0.000 NA
ATOM     11  C   UNL     1       6.453   4.061  13.184  0.00  0.00    +0.000 A 
ATOM     12  N   UNL     1       7.546   4.835  13.151  0.00  0.00    +0.000 NA
ATOM     13  O   UNL     1       7.594   5.369  14.439  0.00  0.00    +0.000 OA
BRANCH  11  14
ATOM     14  C   UNL     1       5.946   3.329  11.991  0.00  0.00    +0.000 C 
BRANCH  14  15
ATOM     15  C   UNL     1       4.442   3.367  11.820  0.00  0.00    +0.000 C 
ATOM     16  C   UNL     1       3.749   2.463  10.831  0.00  0.00    +0.000 C 
ATOM     17  C   UNL     1       3.843   3.935  10.551  0.00  0.00    +0.000 C 
ENDBRANCH  14  15
ENDBRANCH  11  14
ENDBRANCH   7   9
BRANCH   1  18
ATOM     18  C   UNL     1       3.657   7.511  18.087  0.00  0.00    +0.000 C 
BRANCH  18  22
ATOM     19  C   UNL     1       1.956   5.198  20.170  0.00  0.00    +0.000 A 
ATOM     20  N   UNL     1       1.588   6.333  20.779  0.00  0.00    +0.000 NA
ATOM     21  O   UNL     1       2.165   7.322  19.982  0.00  0.00    +0.000 OA
ATOM     22  C   UNL     1       2.816   6.673  18.972  0.00  0.00    +0.000 A 
ATOM     23  N   UNL     1       2.704   5.366  19.033  0.00  0.00    +0.000 NA
BRANCH  19  27
ATOM     24  C   UNL     1       0.943   2.365  18.933  0.00  0.00    +0.000 C 
ATOM     25  C   UNL     1       2.165   1.740  19.581  0.00  0.00    +0.000 C 
ATOM     26  C   UNL     1       2.748   2.833  20.476  0.00  0.00    +0.000 C 
ATOM     27  C   UNL     1       1.618   3.852  20.713  0.00  0.00    +0.000 C 
ATOM     28  C   UNL     1       0.382   3.254  20.033  0.00  0.00    +0.000 C 
ENDBRANCH  19  27
ENDBRANCH  18  22
ENDBRANCH   1  18
TORSDOF 6
ENDMDL
MODEL 3
REMARK VINA RESULT:      -8.5      1.547      8.467
REMARK  Name = 
REMARK  6 active torsions:
REMARK  status: ('A' for Active; 'I' for Inactive)
REMARK    1  A    between atoms: C_4  and  C_5
REMARK    2  A    between atoms: C_8  and  C_9
REMARK    3  A    between atoms: C_9  and  N_10
REMARK    4  A    between atoms: C_16  and  C_17
REMARK    5  A    between atoms: C_19  and  C_20
REMARK    6  A    between atoms: C_20  and  C_21
REMARK                            x       y       z     vdW  Elec       q    Type
REMARK                         _______ _______ _______ _____ _____    ______ ____
ROOT
ATOM      1  N   UNL     1       4.563   5.797  17.885  0.00  0.00    +0.000 NA
ATOM      2  C   UNL     1       4.821   6.987  17.093  0.00  0.00    +0.000 C 
ATOM      3  C   UNL     1       6.253   6.661  16.644  0.00  0.00    +0.000 C 
ATOM      4  C   UNL     1       7.250   6.979  17.784  0.00  0.00    +0.000 C 
ATOM      5  C   UNL     1       7.649   5.659  18.417  0.00  0.00    +0.000 C 
ATOM      6  C   UNL     1       7.422   4.612  17.345  0.00  0.00    +0.000 C 
ATOM      7  C   UNL     1       6.255   5.108  16.464  0.00  0.00    +0.000 C 
ATOM      8  C   UNL     1       4.862   4.687  16.990  0.00  0.00    +0.000 C 
ENDROOT
BRANCH   7   9
ATOM      9  C   UNL     1       6.472   4.630  15.071  0.00  0.00    +0.000 A 
ATOM     10  N   UNL     1       5.729   3.864  14.305  0.00  0.00    +0.000 NA
ATOM     11  C   UNL     1       6.355   3.979  13.086  0.00  0.00    +0.000 A 
ATOM     12  N   UNL     1       7.456   4.743  13.086  0.00  0.00    +0.000 NA
ATOM     13  O   UNL     1       7.537   5.179  14.409  0.00  0.00    +0.000 OA
BRANCH  11  14
ATOM     14  C   UNL     1       5.814   3.343  11.853  0.00  0.00    +0.000 C 
BRANCH  14  15
ATOM     15  C   UNL     1       4.310   3.431  11.706  0.00  0.00    +0.000 C 
ATOM     16  C   UNL     1       3.567   2.530  10.751  0.00  0.00    +0.000 C 
ATOM     17  C   UNL     1       3.708   3.991  10.435  0.00  0.00    +0.000 C 
ENDBRANCH  14  15
ENDBRANCH  11  14
ENDBRANCH   7   9
BRANCH   1  18
ATOM     18  C   UNL     1       3.367   5.740  18.700  0.00  0.00    +0.000 C 
BRANCH  18  22
ATOM     19  C   UNL     1       1.563   8.766  19.110  0.00  0.00    +0.000 A 
ATOM     20  N   UNL     1       1.517   8.327  20.374  0.00  0.00    +0.000 NA
ATOM     21  O   UNL     1       2.268   7.152  20.329  0.00  0.00    +0.000 OA
ATOM     22  C   UNL     1       2.690   7.013  19.037  0.00  0.00    +0.000 A 
ATOM     23  N   UNL     1       2.296   7.988  18.251  0.00  0.00    +0.000 NA
BRANCH  19  27
ATOM     24  C   UNL     1       0.772  11.637  20.419  0.00  0.00    +0.000 C 
ATOM     25  C   UNL     1       1.492  12.276  19.245  0.00  0.00    +0.000 C 
ATOM     26  C   UNL     1       1.789  11.128  18.283  0.00  0.00    +0.000 C 
ATOM     27  C   UNL     1       0.830   9.983  18.659  0.00  0.00    +0.000 C 
ATOM     28  C   UNL     1      -0.069  10.552  19.762  0.00  0.00    +0.000 C 
ENDBRANCH  19  27
ENDBRANCH  18  22
ENDBRANCH   1  18
TORSDOF 6
ENDMDL
MODEL 4
REMARK VINA RESULT:      -8.5      1.667      1.898
REMARK  Name = 
REMARK  6 active torsions:
REMARK  status: ('A' for Active; 'I' for Inactive)
REMARK    1  A    between atoms: C_4  and  C_5
REMARK    2  A    between atoms: C_8  and  C_9
REMARK    3  A    between atoms: C_9  and  N_10
REMARK    4  A    between atoms: C_16  and  C_17
REMARK    5  A    between atoms: C_19  and  C_20
REMARK    6  A    between atoms: C_20  and  C_21
REMARK                            x       y       z     vdW  Elec       q    Type
REMARK                         _______ _______ _______ _____ _____    ______ ____
ROOT
ATOM      1  N   UNL     1       5.349   4.427  17.574  0.00  0.00    +0.000 NA
ATOM      2  C   UNL     1       4.257   4.811  16.695  0.00  0.00    +0.000 C 
ATOM      3  C   UNL     1       3.081   4.368  17.578  0.00  0.00    +0.000 C 
ATOM      4  C   UNL     1       2.881   2.838  17.464  0.00  0.00    +0.000 C 
ATOM      5  C   UNL     1       3.452   2.212  18.723  0.00  0.00    +0.000 C 
ATOM      6  C   UNL     1       3.406   3.304  19.773  0.00  0.00    +0.000 C 
ATOM      7  C   UNL     1       3.569   4.651  19.036  0.00  0.00    +0.000 C 
ATOM      8  C   UNL     1       5.044   5.076  18.843  0.00  0.00    +0.000 C 
ENDROOT
BRANCH   7   9
ATOM      9  C   UNL     1       2.800   5.692  19.772  0.00  0.00    +0.000 A 
ATOM     10  N   UNL     1       2.682   6.983  19.552  0.00  0.00    +0.000 NA
ATOM     11  C   UNL     1       1.678   7.334  20.423  0.00  0.00    +0.000 A 
ATOM     12  N   UNL     1       1.211   6.333  21.181  0.00  0.00    +0.000 NA
ATOM     13  O   UNL     1       1.957   5.236  20.749  0.00  0.00    +0.000 OA
BRANCH  11  14
ATOM     14  C   UNL     1       1.120   8.714  20.476  0.00  0.00    +0.000 C 
BRANCH  14  15
ATOM     15  C   UNL     1       0.948   9.272  21.872  0.00  0.00    +0.000 C 
ATOM     16  C   UNL     1      -0.371   9.163  22.596  0.00  0.00    +0.000 C 
ATOM     17  C   UNL     1       0.091  10.500  22.093  0.00  0.00    +0.000 C 
ENDBRANCH  14  15
ENDBRANCH  11  14
ENDBRANCH   7   9
BRANCH   1  18
ATOM     18  C   UNL     1       6.706   4.472  17.071  0.00  0.00    +0.000 C 
BRANCH  18  22
ATOM     19  C   UNL     1       6.760   4.460  13.525  0.00  0.00    +0.000 A 
ATOM     20  N   UNL     1       7.674   5.415  13.741  0.00  0.00    +0.000 NA
ATOM     21  O   UNL     1       7.773   5.450  15.132  0.00  0.00    +0.000 OA
ATOM     22  C   UNL     1       6.907   4.505  15.605  0.00  0.00    +0.000 A 
ATOM     23  N   UNL     1       6.273   3.856  14.655  0.00  0.00    +0.000 NA
BRANCH  19  27
ATOM     24  C   UNL     1       7.204   2.000  11.443  0.00  0.00    +0.000 C 
ATOM     25  C   UNL     1       5.696   1.830  11.452  0.00  0.00    +0.000 C 
ATOM     26  C   UNL     1       5.158   3.050  12.197  0.00  0.00    +0.000 C 
ATOM     27  C   UNL     1       6.274   4.112  12.160  0.00  0.00    +0.000 C 
ATOM     28  C   UNL     1       7.383   3.504  11.294  0.00  0.00    +0.000 C 
ENDBRANCH  19  27
ENDBRANCH  18  22
ENDBRANCH   1  18
TORSDOF 6
ENDMDL
MODEL 5
REMARK VINA RESULT:      -8.5      1.567      8.494
REMARK  Name = 
REMARK  6 active torsions:
REMARK  status: ('A' for Active; 'I' for Inactive)
REMARK    1  A    between atoms: C_4  and  C_5
REMARK    2  A    between atoms: C_8  and  C_9
REMARK    3  A    between atoms: C_9  and  N_10
REMARK    4  A    between atoms: C_16  and  C_17
REMARK    5  A    between atoms: C_19  and  C_20
REMARK    6  A    between atoms: C_20  and  C_21
REMARK                            x       y       z     vdW  Elec       q    Type
REMARK                         _______ _______ _______ _____ _____    ______ ____
ROOT
ATOM      1  N   UNL     1       4.849   5.957  18.079  0.00  0.00    +0.000 NA
ATOM      2  C   UNL     1       5.304   7.195  17.469  0.00  0.00    +0.000 C 
ATOM      3  C   UNL     1       6.743   6.775  17.137  0.00  0.00    +0.000 C 
ATOM      4  C   UNL     1       7.625   6.860  18.406  0.00  0.00    +0.000 C 
ATOM      5  C   UNL     1       7.827   5.444  18.912  0.00  0.00    +0.000 C 
ATOM      6  C   UNL     1       7.633   4.552  17.702  0.00  0.00    +0.000 C 
ATOM      7  C   UNL     1       6.626   5.260  16.771  0.00  0.00    +0.000 C 
ATOM      8  C   UNL     1       5.149   4.929  17.091  0.00  0.00    +0.000 C 
ENDROOT
BRANCH   7   9
ATOM      9  C   UNL     1       6.961   4.920  15.360  0.00  0.00    +0.000 A 
ATOM     10  N   UNL     1       6.429   4.039  14.544  0.00  0.00    +0.000 NA
ATOM     11  C   UNL     1       7.016   4.363  13.344  0.00  0.00    +0.000 A 
ATOM     12  N   UNL     1       7.902   5.367  13.401  0.00  0.00    +0.000 NA
ATOM     13  O   UNL     1       7.867   5.741  14.745  0.00  0.00    +0.000 OA
BRANCH  11  14
ATOM     14  C   UNL     1       6.652   3.680  12.073  0.00  0.00    +0.000 C 
BRANCH  14  15
ATOM     15  C   UNL     1       5.372   2.874  12.133  0.00  0.00    +0.000 C 
ATOM     16  C   UNL     1       4.970   1.965  10.999  0.00  0.00    +0.000 C 
ATOM     17  C   UNL     1       4.209   3.237  11.235  0.00  0.00    +0.000 C 
ENDBRANCH  14  15
ENDBRANCH  11  14
ENDBRANCH   7   9
BRANCH   1  18
ATOM     18  C   UNL     1       3.566   5.933  18.750  0.00  0.00    +0.000 C 
BRANCH  18  22
ATOM     19  C   UNL     1       1.691   8.939  18.927  0.00  0.00    +0.000 A 
ATOM     20  N   UNL     1       1.867   8.884  17.601  0.00  0.00    +0.000 NA
ATOM     21  O   UNL     1       2.550   7.682  17.421  0.00  0.00    +0.000 OA
ATOM     22  C   UNL     1       2.710   7.138  18.664  0.00  0.00    +0.000 A 
ATOM     23  N   UNL     1       2.184   7.865  19.623  0.00  0.00    +0.000 NA
BRANCH  19  27
ATOM     24  C   UNL     1      -0.840  10.890  18.322  0.00  0.00    +0.000 C 
ATOM     25  C   UNL     1      -1.377  10.478  19.680  0.00  0.00    +0.000 C 
ATOM     26  C   UNL     1      -0.239   9.704  20.343  0.00  0.00    +0.000 C 
ATOM     27  C   UNL     1       1.051  10.103  19.603  0.00  0.00    +0.000 C 
ATOM     28  C   UNL     1       0.627  11.183  18.602  0.00  0.00    +0.000 C 
ENDBRANCH  19  27
ENDBRANCH  18  22
ENDBRANCH   1  18
TORSDOF 6
ENDMDL
MODEL 6
REMARK VINA RESULT:      -8.5      0.919      1.070
REMARK  Name = 
REMARK  6 active torsions:
REMARK  status: ('A' for Active; 'I' for Inactive)
REMARK    1  A    between atoms: C_4  and  C_5
REMARK    2  A    between atoms: C_8  and  C_9
REMARK    3  A    between atoms: C_9  and  N_10
REMARK    4  A    between atoms: C_16  and  C_17
REMARK    5  A    between atoms: C_19  and  C_20
REMARK    6  A    between atoms: C_20  and  C_21
REMARK                            x       y       z     vdW  Elec       q    Type
REMARK                         _______ _______ _______ _____ _____    ______ ____
ROOT
ATOM      1  N   UNL     1       4.444   4.682  18.059  0.00  0.00    +0.000 NA
ATOM      2  C   UNL     1       3.294   4.426  17.207  0.00  0.00    +0.000 C 
ATOM      3  C   UNL     1       2.198   4.990  18.123  0.00  0.00    +0.000 C 
ATOM      4  C   UNL     1       1.846   3.960  19.223  0.00  0.00    +0.000 C 
ATOM      5  C   UNL     1       2.504   4.427  20.507  0.00  0.00    +0.000 C 
ATOM      6  C   UNL     1       2.686   5.923  20.347  0.00  0.00    +0.000 C 
ATOM      7  C   UNL     1       2.881   6.199  18.840  0.00  0.00    +0.000 C 
ATOM      8  C   UNL     1       4.355   6.100  18.380  0.00  0.00    +0.000 C 
ENDROOT
BRANCH   7   9
ATOM      9  C   UNL     1       2.306   7.534  18.522  0.00  0.00    +0.000 A 
ATOM     10  N   UNL     1       1.516   8.314  19.225  0.00  0.00    +0.000 NA
ATOM     11  C   UNL     1       1.530   9.478  18.493  0.00  0.00    +0.000 A 
ATOM     12  N   UNL     1       2.256   9.428  17.368  0.00  0.00    +0.000 NA
ATOM     13  O   UNL     1       2.775   8.134  17.384  0.00  0.00    +0.000 OA
BRANCH  11  14
ATOM     14  C   UNL     1       0.833  10.711  18.950  0.00  0.00    +0.000 C 
BRANCH  14  15
ATOM     15  C   UNL     1      -0.672  10.585  19.052  0.00  0.00    +0.000 C 
ATOM     16  C   UNL     1      -1.510  10.259  17.841  0.00  0.00    +0.000 C 
ATOM     17  C   UNL     1      -1.561  11.639  18.429  0.00  0.00    +0.000 C 
ENDBRANCH  14  15
ENDBRANCH  11  14
ENDBRANCH   7   9
BRANCH   1  18
ATOM     18  C   UNL     1       5.729   4.124  17.692  0.00  0.00    +0.000 C 
BRANCH  18  22
ATOM     19  C   UNL     1       6.362   4.477  14.219  0.00  0.00    +0.000 A 
ATOM     20  N   UNL     1       7.456   5.088  14.691  0.00  0.00    +0.000 NA
ATOM     21  O   UNL     1       7.330   4.943  16.072  0.00  0.00    +0.000 OA
ATOM     22  C   UNL     1       6.170   4.253  16.284  0.00  0.00    +0.000 A 
ATOM     23  N   UNL     1       5.546   3.928  15.175  0.00  0.00    +0.000 NA
BRANCH  19  27
ATOM     24  C   UNL     1       6.982   2.472  11.734  0.00  0.00    +0.000 C 
ATOM     25  C   UNL     1       5.479   2.379  11.542  0.00  0.00    +0.000 C 
ATOM     26  C   UNL     1       4.890   3.448  12.461  0.00  0.00    +0.000 C 
ATOM     27  C   UNL     1       6.030   4.438  12.767  0.00  0.00    +0.000 C 
ATOM     28  C   UNL     1       7.216   3.964  11.921  0.00  0.00    +0.000 C 
ENDBRANCH  19  27
ENDBRANCH  18  22
ENDBRANCH   1  18
TORSDOF 6
ENDMDL
MODEL 7
REMARK VINA RESULT:      -8.5      1.629      1.901
REMARK  Name = 
REMARK  6 active torsions:
REMARK  status: ('A' for Active; 'I' for Inactive)
REMARK    1  A    between atoms: C_4  and  C_5
REMARK    2  A    between atoms: C_8  and  C_9
REMARK    3  A    between atoms: C_9  and  N_10
REMARK    4  A    between atoms: C_16  and  C_17
REMARK    5  A    between atoms: C_19  and  C_20
REMARK    6  A    between atoms: C_20  and  C_21
REMARK                            x       y       z     vdW  Elec       q    Type
REMARK                         _______ _______ _______ _____ _____    ______ ____
ROOT
ATOM      1  N   UNL     1       4.623   4.612  18.209  0.00  0.00    +0.000 NA
ATOM      2  C   UNL     1       3.603   4.689  17.176  0.00  0.00    +0.000 C 
ATOM      3  C   UNL     1       2.364   4.761  18.080  0.00  0.00    +0.000 C 
ATOM      4  C   UNL     1       2.000   3.347  18.593  0.00  0.00    +0.000 C 
ATOM      5  C   UNL     1       2.466   3.256  20.034  0.00  0.00    +0.000 C 
ATOM      6  C   UNL     1       2.514   4.685  20.534  0.00  0.00    +0.000 C 
ATOM      7  C   UNL     1       2.841   5.582  19.321  0.00  0.00    +0.000 C 
ATOM      8  C   UNL     1       4.359   5.754  19.073  0.00  0.00    +0.000 C 
ENDROOT
BRANCH   7   9
ATOM      9  C   UNL     1       2.172   6.899  19.508  0.00  0.00    +0.000 A 
ATOM     10  N   UNL     1       1.748   7.495  20.600  0.00  0.00    +0.000 NA
ATOM     11  C   UNL     1       1.439   8.754  20.142  0.00  0.00    +0.000 A 
ATOM     12  N   UNL     1       1.619   8.936  18.826  0.00  0.00    +0.000 NA
ATOM     13  O   UNL     1       2.109   7.701  18.401  0.00  0.00    +0.000 OA
BRANCH  11  14
ATOM     14  C   UNL     1       0.990   9.841  21.053  0.00  0.00    +0.000 C 
BRANCH  14  15
ATOM     15  C   UNL     1      -0.164   9.470  21.959  0.00  0.00    +0.000 C 
ATOM     16  C   UNL     1      -0.821  10.499  22.845  0.00  0.00    +0.000 C 
ATOM     17  C   UNL     1       0.037   9.430  23.458  0.00  0.00    +0.000 C 
ENDBRANCH  14  15
ENDBRANCH  11  14
ENDBRANCH   7   9
BRANCH   1  18
ATOM     18  C   UNL     1       5.990   4.322  17.827  0.00  0.00    +0.000 C 
BRANCH  18  22
ATOM     19  C   UNL     1       6.412   4.550  14.312  0.00  0.00    +0.000 A 
ATOM     20  N   UNL     1       7.552   5.140  14.695  0.00  0.00    +0.000 NA
ATOM     21  O   UNL     1       7.509   5.040  16.086  0.00  0.00    +0.000 OA
ATOM     22  C   UNL     1       6.345   4.394  16.391  0.00  0.00    +0.000 A 
ATOM     23  N   UNL     1       5.642   4.056  15.334  0.00  0.00    +0.000 NA
BRANCH  19  27
ATOM     24  C   UNL     1       7.037   2.600  11.785  0.00  0.00    +0.000 C 
ATOM     25  C   UNL     1       5.538   2.375  11.694  0.00  0.00    +0.000 C 
ATOM     26  C   UNL     1       4.921   3.391  12.654  0.00  0.00    +0.000 C 
ATOM     27  C   UNL     1       5.988   4.478  12.886  0.00  0.00    +0.000 C 
ATOM     28  C   UNL     1       7.152   4.107  11.960  0.00  0.00    +0.000 C 
ENDBRANCH  19  27
ENDBRANCH  18  22
ENDBRANCH   1  18
TORSDOF 6
ENDMDL
MODEL 8
REMARK VINA RESULT:      -8.5      4.544      7.144
REMARK  Name = 
REMARK  6 active torsions:
REMARK  status: ('A' for Active; 'I' for Inactive)
REMARK    1  A    between atoms: C_4  and  C_5
REMARK    2  A    between atoms: C_8  and  C_9
REMARK    3  A    between atoms: C_9  and  N_10
REMARK    4  A    between atoms: C_16  and  C_17
REMARK    5  A    between atoms: C_19  and  C_20
REMARK    6  A    between atoms: C_20  and  C_21
REMARK                            x       y       z     vdW  Elec       q    Type
REMARK                         _______ _______ _______ _____ _____    ______ ____
ROOT
ATOM      1  N   UNL     1       6.831   5.940  17.721  0.00  0.00    +0.000 NA
ATOM      2  C   UNL     1       5.647   6.755  17.508  0.00  0.00    +0.000 C 
ATOM      3  C   UNL     1       4.910   5.839  16.519  0.00  0.00    +0.000 C 
ATOM      4  C   UNL     1       5.507   6.006  15.100  0.00  0.00    +0.000 C 
ATOM      5  C   UNL     1       6.387   4.799  14.836  0.00  0.00    +0.000 C 
ATOM      6  C   UNL     1       5.856   3.705  15.741  0.00  0.00    +0.000 C 
ATOM      7  C   UNL     1       5.271   4.394  16.992  0.00  0.00    +0.000 C 
ATOM      8  C   UNL     1       6.314   4.635  18.110  0.00  0.00    +0.000 C 
ENDROOT
BRANCH   7   9
ATOM      9  C   UNL     1       4.124   3.585  17.490  0.00  0.00    +0.000 A 
ATOM     10  N   UNL     1       3.960   2.943  18.625  0.00  0.00    +0.000 NA
ATOM     11  C   UNL     1       2.632   2.592  18.570  0.00  0.00    +0.000 A 
ATOM     12  N   UNL     1       1.997   2.956  17.447  0.00  0.00    +0.000 NA
ATOM     13  O   UNL     1       2.990   3.618  16.724  0.00  0.00    +0.000 OA
BRANCH  11  14
ATOM     14  C   UNL     1       1.945   1.908  19.699  0.00  0.00    +0.000 C 
BRANCH  14  15
ATOM     15  C   UNL     1       1.238   2.836  20.664  0.00  0.00    +0.000 C 
ATOM     16  C   UNL     1       1.496   4.322  20.644  0.00  0.00    +0.000 C 
ATOM     17  C   UNL     1       2.016   3.495  21.783  0.00  0.00    +0.000 C 
ENDBRANCH  14  15
ENDBRANCH  11  14
ENDBRANCH   7   9
BRANCH   1  18
ATOM     18  C   UNL     1       7.947   6.499  18.455  0.00  0.00    +0.000 C 
BRANCH  18  22
ATOM     19  C   UNL     1       8.793   9.942  18.575  0.00  0.00    +0.000 A 
ATOM     20  N   UNL     1       8.171   9.925  17.389  0.00  0.00    +0.000 NA
ATOM     21  O   UNL     1       7.737   8.604  17.279  0.00  0.00    +0.000 OA
ATOM     22  C   UNL     1       8.143   7.967  18.417  0.00  0.00    +0.000 A 
ATOM     23  N   UNL     1       8.783   8.750  19.254  0.00  0.00    +0.000 NA
BRANCH  19  27
ATOM     24  C   UNL     1      11.184  11.891  17.543  0.00  0.00    +0.000 C 
ATOM     25  C   UNL     1      10.199  13.038  17.688  0.00  0.00    +0.000 C 
ATOM     26  C   UNL     1       8.994  12.442  18.413  0.00  0.00    +0.000 C 
ATOM     27  C   UNL     1       9.488  11.153  19.097  0.00  0.00    +0.000 C 
ATOM     28  C   UNL     1      10.997  11.106  18.832  0.00  0.00    +0.000 C 
ENDBRANCH  19  27
ENDBRANCH  18  22
ENDBRANCH   1  18
TORSDOF 6
ENDMDL
MODEL 9
REMARK VINA RESULT:      -8.4      1.193      1.401
REMARK  Name = 
REMARK  6 active torsions:
REMARK  status: ('A' for Active; 'I' for Inactive)
REMARK    1  A    between atoms: C_4  and  C_5
REMARK    2  A    between atoms: C_8  and  C_9
REMARK    3  A    between atoms: C_9  and  N_10
REMARK    4  A    between atoms: C_16  and  C_17
REMARK    5  A    between atoms: C_19  and  C_20
REMARK    6  A    between atoms: C_20  and  C_21
REMARK                            x       y       z     vdW  Elec       q    Type
REMARK                         _______ _______ _______ _____ _____    ______ ____
ROOT
ATOM      1  N   UNL     1       5.268   4.295  17.677  0.00  0.00    +0.000 NA
ATOM      2  C   UNL     1       4.213   4.731  16.778  0.00  0.00    +0.000 C 
ATOM      3  C   UNL     1       3.001   4.358  17.645  0.00  0.00    +0.000 C 
ATOM      4  C   UNL     1       2.720   2.840  17.536  0.00  0.00    +0.000 C 
ATOM      5  C   UNL     1       3.237   2.193  18.808  0.00  0.00    +0.000 C 
ATOM      6  C   UNL     1       3.234   3.292  19.850  0.00  0.00    +0.000 C 
ATOM      7  C   UNL     1       3.480   4.624  19.109  0.00  0.00    +0.000 C 
ATOM      8  C   UNL     1       4.979   4.967  18.937  0.00  0.00    +0.000 C 
ENDROOT
BRANCH   7   9
ATOM      9  C   UNL     1       2.757   5.710  19.827  0.00  0.00    +0.000 A 
ATOM     10  N   UNL     1       2.834   7.016  19.702  0.00  0.00    +0.000 NA
ATOM     11  C   UNL     1       1.775   7.443  20.467  0.00  0.00    +0.000 A 
ATOM     12  N   UNL     1       1.087   6.467  21.075  0.00  0.00    +0.000 NA
ATOM     13  O   UNL     1       1.739   5.310  20.650  0.00  0.00    +0.000 OA
BRANCH  11  14
ATOM     14  C   UNL     1       1.395   8.879  20.563  0.00  0.00    +0.000 C 
BRANCH  14  15
ATOM     15  C   UNL     1       0.644   9.415  19.363  0.00  0.00    +0.000 C 
ATOM     16  C   UNL     1       1.322   9.568  18.025  0.00  0.00    +0.000 C 
ATOM     17  C   UNL     1       0.971  10.790  18.822  0.00  0.00    +0.000 C 
ENDBRANCH  14  15
ENDBRANCH  11  14
ENDBRANCH   7   9
BRANCH   1  18
ATOM     18  C   UNL     1       6.634   4.263  17.196  0.00  0.00    +0.000 C 
BRANCH  18  22
ATOM     19  C   UNL     1       6.763   4.468  13.657  0.00  0.00    +0.000 A 
ATOM     20  N   UNL     1       7.634   5.443  13.951  0.00  0.00    +0.000 NA
ATOM     21  O   UNL     1       7.702   5.396  15.344  0.00  0.00    +0.000 OA
ATOM     22  C   UNL     1       6.864   4.392  15.739  0.00  0.00    +0.000 A 
ATOM     23  N   UNL     1       6.275   3.779  14.738  0.00  0.00    +0.000 NA
BRANCH  19  27
ATOM     24  C   UNL     1       7.056   1.993  11.568  0.00  0.00    +0.000 C 
ATOM     25  C   UNL     1       5.540   1.986  11.492  0.00  0.00    +0.000 C 
ATOM     26  C   UNL     1       5.096   3.251  12.224  0.00  0.00    +0.000 C 
ATOM     27  C   UNL     1       6.320   4.186  12.262  0.00  0.00    +0.000 C 
ATOM     28  C   UNL     1       7.404   3.469  11.451  0.00  0.00    +0.000 C 
ENDBRANCH  19  27
ENDBRANCH  18  22
ENDBRANCH   1  18
TORSDOF 6
ENDMDL
