MODEL 1
REMARK VINA RESULT:      -9.1      0.000      0.000
REMARK  Name = 
REMARK  5 active torsions:
REMARK  status: ('A' for Active; 'I' for Inactive)
REMARK    1  A    between atoms: C_2  and  C_3
REMARK    2  A    between atoms: C_3  and  N_4
REMARK    3  A    between atoms: C_5  and  C_7
REMARK    4  A    between atoms: N_10  and  C_11
REMARK    5  A    between atoms: C_11  and  C_12
REMARK                            x       y       z     vdW  Elec       q    Type
REMARK                         _______ _______ _______ _____ _____    ______ ____
ROOT
ATOM      1  C   UNL     1       2.272   6.644  18.651  0.00  0.00    +0.000 C 
ATOM      2  C   UNL     1       1.677   5.690  17.546  0.00  0.00    +0.000 C 
ATOM      3  C   UNL     1       2.321   4.280  17.640  0.00  0.00    +0.000 C 
ATOM      4  C   UNL     1       2.051   3.788  19.058  0.00  0.00    +0.000 A 
ATOM      5  C   UNL     1       1.370   2.625  19.395  0.00  0.00    +0.000 A 
ATOM      6  C   UNL     1       1.240   2.292  20.745  0.00  0.00    +0.000 A 
ATOM      7  C   UNL     1       1.793   3.114  21.740  0.00  0.00    +0.000 A 
ATOM      8  C   UNL     1       2.477   4.286  21.405  0.00  0.00    +0.000 A 
ATOM      9  C   UNL     1       2.598   4.627  20.065  0.00  0.00    +0.000 A 
ATOM     10  C   UNL     1       3.332   5.852  19.503  0.00  0.00    +0.000 C 
ATOM     11  C   UNL     1       4.377   5.327  18.517  0.00  0.00    +0.000 A 
ATOM     12  C   UNL     1       5.737   5.600  18.547  0.00  0.00    +0.000 A 
ATOM     13  C   UNL     1       6.547   5.068  17.542  0.00  0.00    +0.000 A 
ATOM     14  C   UNL     1       6.000   4.271  16.524  0.00  0.00    +0.000 A 
ATOM     15  C   UNL     1       4.634   3.980  16.501  0.00  0.00    +0.000 A 
ATOM     16  C   UNL     1       3.826   4.503  17.500  0.00  0.00    +0.000 A 
ENDROOT
BRANCH   1  17
ATOM     17  C   UNL     1       2.861   7.931  18.038  0.00  0.00    +0.000 C 
BRANCH  17  20
ATOM     18  O   UNL     1       1.301   9.168  20.090  0.00  0.00    +0.000 OA
ATOM     19  C   UNL     1       1.147   9.510  18.920  0.00  0.00    +0.000 C 
ATOM     20  N   UNL     1       1.872   8.986  17.872  0.00  0.00    +0.000 N 
ATOM     21  H   UNL     1       1.841   9.486  16.985  0.00  0.00    +0.000 HD
BRANCH  19  22
ATOM     22  C   UNL     1       0.173  10.623  18.517  0.00  0.00    +0.000 C 
BRANCH  22  23
ATOM     23  N   UNL     1      -0.798  10.161  17.545  0.00  0.00    +0.000 N 
ATOM     24  C   UNL     1      -2.129  10.453  17.679  0.00  0.00    +0.000 C 
ATOM     25  O   UNL     1      -2.573  11.115  18.613  0.00  0.00    +0.000 OA
ATOM     26  H   UNL     1      -0.485   9.527  16.823  0.00  0.00    +0.000 HD
BRANCH  24  27
ATOM     27  C   UNL     1      -3.063   9.932  16.643  0.00  0.00    +0.000 C 
ATOM     28  C   UNL     1      -2.853  10.028  15.150  0.00  0.00    +0.000 C 
ATOM     29  C   UNL     1      -3.891  10.886  15.811  0.00  0.00    +0.000 C 
ENDBRANCH  24  27
ENDBRANCH  22  23
ENDBRANCH  19  22
ENDBRANCH  17  20
ENDBRANCH   1  17
TORSDOF 5
ENDMDL
MODEL 2
REMARK VINA RESULT:      -8.9      3.972      7.084
REMARK  Name = 
REMARK  5 active torsions:
REMARK  status: ('A' for Active; 'I' for Inactive)
REMARK    1  A    between atoms: C_2  and  C_3
REMARK    2  A    between atoms: C_3  and  N_4
REMARK    3  A    between atoms: C_5  and  C_7
REMARK    4  A    between atoms: N_10  and  C_11
REMARK    5  A    between atoms: C_11  and  C_12
REMARK                            x       y       z     vdW  Elec       q    Type
REMARK                         _______ _______ _______ _____ _____    ______ ____
ROOT
ATOM      1  C   UNL     1       4.311   5.431  18.210  0.00  0.00    +0.000 C 
ATOM      2  C   UNL     1       4.345   5.558  19.781  0.00  0.00    +0.000 C 
ATOM      3  C   UNL     1       2.910   5.741  20.344  0.00  0.00    +0.000 C 
ATOM      4  C   UNL     1       2.112   4.533  19.862  0.00  0.00    +0.000 A 
ATOM      5  C   UNL     1       1.457   3.619  20.677  0.00  0.00    +0.000 A 
ATOM      6  C   UNL     1       0.734   2.586  20.077  0.00  0.00    +0.000 A 
ATOM      7  C   UNL     1       0.666   2.478  18.680  0.00  0.00    +0.000 A 
ATOM      8  C   UNL     1       1.326   3.395  17.856  0.00  0.00    +0.000 A 
ATOM      9  C   UNL     1       2.056   4.417  18.448  0.00  0.00    +0.000 A 
ATOM     10  C   UNL     1       2.820   5.528  17.715  0.00  0.00    +0.000 C 
ATOM     11  C   UNL     1       2.274   6.858  18.237  0.00  0.00    +0.000 A 
ATOM     12  C   UNL     1       1.758   7.888  17.463  0.00  0.00    +0.000 A 
ATOM     13  C   UNL     1       1.336   9.056  18.101  0.00  0.00    +0.000 A 
ATOM     14  C   UNL     1       1.429   9.186  19.497  0.00  0.00    +0.000 A 
ATOM     15  C   UNL     1       1.932   8.144  20.279  0.00  0.00    +0.000 A 
ATOM     16  C   UNL     1       2.348   6.981  19.650  0.00  0.00    +0.000 A 
ENDROOT
BRANCH   1  17
ATOM     17  C   UNL     1       5.218   6.480  17.533  0.00  0.00    +0.000 C 
BRANCH  17  20
ATOM     18  O   UNL     1       7.630   5.029  17.023  0.00  0.00    +0.000 OA
ATOM     19  C   UNL     1       6.912   5.365  16.084  0.00  0.00    +0.000 C 
ATOM     20  N   UNL     1       5.722   6.044  16.239  0.00  0.00    +0.000 N 
ATOM     21  H   UNL     1       5.093   6.074  15.439  0.00  0.00    +0.000 HD
BRANCH  19  22
ATOM     22  C   UNL     1       7.238   4.990  14.634  0.00  0.00    +0.000 C 
BRANCH  22  23
ATOM     23  N   UNL     1       6.260   4.073  14.083  0.00  0.00    +0.000 N 
ATOM     24  C   UNL     1       6.301   3.700  12.766  0.00  0.00    +0.000 C 
ATOM     25  O   UNL     1       7.156   4.110  11.986  0.00  0.00    +0.000 OA
ATOM     26  H   UNL     1       5.482   3.799  14.667  0.00  0.00    +0.000 HD
BRANCH  24  27
ATOM     27  C   UNL     1       5.254   2.762  12.276  0.00  0.00    +0.000 C 
ATOM     28  C   UNL     1       5.193   2.168  10.888  0.00  0.00    +0.000 C 
ATOM     29  C   UNL     1       4.211   3.232  11.284  0.00  0.00    +0.000 C 
ENDBRANCH  24  27
ENDBRANCH  22  23
ENDBRANCH  19  22
ENDBRANCH  17  20
ENDBRANCH   1  17
TORSDOF 5
ENDMDL
MODEL 3
REMARK VINA RESULT:      -8.9      1.321      3.850
REMARK  Name = 
REMARK  5 active torsions:
REMARK  status: ('A' for Active; 'I' for Inactive)
REMARK    1  A    between atoms: C_2  and  C_3
REMARK    2  A    between atoms: C_3  and  N_4
REMARK    3  A    between atoms: C_5  and  C_7
REMARK    4  A    between atoms: N_10  and  C_11
REMARK    5  A    between atoms: C_11  and  C_12
REMARK                            x       y       z     vdW  Elec       q    Type
REMARK                         _______ _______ _______ _____ _____    ______ ____
ROOT
ATOM      1  C   UNL     1       3.811   6.589  18.367  0.00  0.00    +0.000 C 
ATOM      2  C   UNL     1       4.853   5.951  19.362  0.00  0.00    +0.000 C 
ATOM      3  C   UNL     1       5.261   4.530  18.887  0.00  0.00    +0.000 C 
ATOM      4  C   UNL     1       5.814   4.703  17.476  0.00  0.00    +0.000 A 
ATOM      5  C   UNL     1       7.089   4.341  17.057  0.00  0.00    +0.000 A 
ATOM      6  C   UNL     1       7.431   4.528  15.717  0.00  0.00    +0.000 A 
ATOM      7  C   UNL     1       6.504   5.064  14.810  0.00  0.00    +0.000 A 
ATOM      8  C   UNL     1       5.221   5.432  15.228  0.00  0.00    +0.000 A 
ATOM      9  C   UNL     1       4.880   5.258  16.563  0.00  0.00    +0.000 A 
ATOM     10  C   UNL     1       3.520   5.574  17.200  0.00  0.00    +0.000 C 
ATOM     11  C   UNL     1       3.031   4.284  17.859  0.00  0.00    +0.000 A 
ATOM     12  C   UNL     1       1.811   3.663  17.630  0.00  0.00    +0.000 A 
ATOM     13  C   UNL     1       1.506   2.505  18.348  0.00  0.00    +0.000 A 
ATOM     14  C   UNL     1       2.414   1.978  19.281  0.00  0.00    +0.000 A 
ATOM     15  C   UNL     1       3.649   2.591  19.501  0.00  0.00    +0.000 A 
ATOM     16  C   UNL     1       3.958   3.738  18.786  0.00  0.00    +0.000 A 
ENDROOT
BRANCH   1  17
ATOM     17  C   UNL     1       2.521   7.026  19.093  0.00  0.00    +0.000 C 
BRANCH  17  20
ATOM     18  O   UNL     1       1.196   9.111  20.534  0.00  0.00    +0.000 OA
ATOM     19  C   UNL     1       1.301   9.188  19.313  0.00  0.00    +0.000 C 
ATOM     20  N   UNL     1       1.944   8.244  18.542  0.00  0.00    +0.000 N 
ATOM     21  H   UNL     1       2.180   8.502  17.585  0.00  0.00    +0.000 HD
BRANCH  19  22
ATOM     22  C   UNL     1       0.784  10.398  18.525  0.00  0.00    +0.000 C 
BRANCH  22  23
ATOM     23  N   UNL     1      -0.360  10.055  17.705  0.00  0.00    +0.000 N 
ATOM     24  C   UNL     1      -1.634  10.372  18.098  0.00  0.00    +0.000 C 
ATOM     25  O   UNL     1      -1.878  10.957  19.149  0.00  0.00    +0.000 OA
ATOM     26  H   UNL     1      -0.207   9.482  16.887  0.00  0.00    +0.000 HD
BRANCH  24  27
ATOM     27  C   UNL     1      -2.756   9.975  17.204  0.00  0.00    +0.000 C 
ATOM     28  C   UNL     1      -2.682   9.882  15.697  0.00  0.00    +0.000 C 
ATOM     29  C   UNL     1      -3.443  11.007  16.336  0.00  0.00    +0.000 C 
ENDBRANCH  24  27
ENDBRANCH  22  23
ENDBRANCH  19  22
ENDBRANCH  17  20
ENDBRANCH   1  17
TORSDOF 5
ENDMDL
MODEL 4
REMARK VINA RESULT:      -8.8      4.982      7.135
REMARK  Name = 
REMARK  5 active torsions:
REMARK  status: ('A' for Active; 'I' for Inactive)
REMARK    1  A    between atoms: C_2  and  C_3
REMARK    2  A    between atoms: C_3  and  N_4
REMARK    3  A    between atoms: C_5  and  C_7
REMARK    4  A    between atoms: N_10  and  C_11
REMARK    5  A    between atoms: C_11  and  C_12
REMARK                            x       y       z     vdW  Elec       q    Type
REMARK                         _______ _______ _______ _____ _____    ______ ____
ROOT
ATOM      1  C   UNL     1       5.802   5.024  19.024  0.00  0.00    +0.000 C 
ATOM      2  C   UNL     1       4.870   6.223  18.604  0.00  0.00    +0.000 C 
ATOM      3  C   UNL     1       3.931   5.801  17.441  0.00  0.00    +0.000 C 
ATOM      4  C   UNL     1       3.152   4.591  17.949  0.00  0.00    +0.000 A 
ATOM      5  C   UNL     1       1.769   4.500  18.040  0.00  0.00    +0.000 A 
ATOM      6  C   UNL     1       1.205   3.304  18.489  0.00  0.00    +0.000 A 
ATOM      7  C   UNL     1       2.020   2.215  18.836  0.00  0.00    +0.000 A 
ATOM      8  C   UNL     1       3.413   2.304  18.748  0.00  0.00    +0.000 A 
ATOM      9  C   UNL     1       3.978   3.495  18.313  0.00  0.00    +0.000 A 
ATOM     10  C   UNL     1       5.476   3.773  18.126  0.00  0.00    +0.000 C 
ATOM     11  C   UNL     1       5.664   4.220  16.675  0.00  0.00    +0.000 A 
ATOM     12  C   UNL     1       6.533   3.654  15.753  0.00  0.00    +0.000 A 
ATOM     13  C   UNL     1       6.608   4.212  14.476  0.00  0.00    +0.000 A 
ATOM     14  C   UNL     1       5.820   5.321  14.129  0.00  0.00    +0.000 A 
ATOM     15  C   UNL     1       4.932   5.882  15.048  0.00  0.00    +0.000 A 
ATOM     16  C   UNL     1       4.850   5.328  16.317  0.00  0.00    +0.000 A 
ENDROOT
BRANCH   1  17
ATOM     17  C   UNL     1       7.294   5.412  18.961  0.00  0.00    +0.000 C 
BRANCH  17  20
ATOM     18  O   UNL     1       7.856   6.863  16.561  0.00  0.00    +0.000 OA
ATOM     19  C   UNL     1       7.792   7.461  17.632  0.00  0.00    +0.000 C 
ATOM     20  N   UNL     1       7.503   6.847  18.832  0.00  0.00    +0.000 N 
ATOM     21  H   UNL     1       7.246   7.446  19.615  0.00  0.00    +0.000 HD
BRANCH  19  22
ATOM     22  C   UNL     1       7.956   8.983  17.728  0.00  0.00    +0.000 C 
BRANCH  22  23
ATOM     23  N   UNL     1       8.808   9.362  18.837  0.00  0.00    +0.000 N 
ATOM     24  C   UNL     1       9.254  10.649  18.980  0.00  0.00    +0.000 C 
ATOM     25  O   UNL     1       8.962  11.544  18.193  0.00  0.00    +0.000 OA
ATOM     26  H   UNL     1       9.154   8.632  19.444  0.00  0.00    +0.000 HD
BRANCH  24  27
ATOM     27  C   UNL     1      10.134  10.954  20.142  0.00  0.00    +0.000 C 
ATOM     28  C   UNL     1      10.250  12.298  20.822  0.00  0.00    +0.000 C 
ATOM     29  C   UNL     1      11.373  11.804  19.959  0.00  0.00    +0.000 C 
ENDBRANCH  24  27
ENDBRANCH  22  23
ENDBRANCH  19  22
ENDBRANCH  17  20
ENDBRANCH   1  17
TORSDOF 5
ENDMDL
MODEL 5
REMARK VINA RESULT:      -8.5      3.905      7.035
REMARK  Name = 
REMARK  5 active torsions:
REMARK  status: ('A' for Active; 'I' for Inactive)
REMARK    1  A    between atoms: C_2  and  C_3
REMARK    2  A    between atoms: C_3  and  N_4
REMARK    3  A    between atoms: C_5  and  C_7
REMARK    4  A    between atoms: N_10  and  C_11
REMARK    5  A    between atoms: C_11  and  C_12
REMARK                            x       y       z     vdW  Elec       q    Type
REMARK                         _______ _______ _______ _____ _____    ______ ____
ROOT
ATOM      1  C   UNL     1       4.289   5.973  19.418  0.00  0.00    +0.000 C 
ATOM      2  C   UNL     1       4.010   5.995  17.868  0.00  0.00    +0.000 C 
ATOM      3  C   UNL     1       2.484   6.067  17.589  0.00  0.00    +0.000 C 
ATOM      4  C   UNL     1       1.986   7.322  18.301  0.00  0.00    +0.000 A 
ATOM      5  C   UNL     1       1.340   8.392  17.696  0.00  0.00    +0.000 A 
ATOM      6  C   UNL     1       0.909   9.453  18.496  0.00  0.00    +0.000 A 
ATOM      7  C   UNL     1       1.120   9.433  19.884  0.00  0.00    +0.000 A 
ATOM      8  C   UNL     1       1.772   8.359  20.496  0.00  0.00    +0.000 A 
ATOM      9  C   UNL     1       2.213   7.307  19.703  0.00  0.00    +0.000 A 
ATOM     10  C   UNL     1       2.920   6.036  20.192  0.00  0.00    +0.000 C 
ATOM     11  C   UNL     1       2.088   4.851  19.699  0.00  0.00    +0.000 A 
ATOM     12  C   UNL     1       1.572   3.832  20.488  0.00  0.00    +0.000 A 
ATOM     13  C   UNL     1       0.864   2.801  19.869  0.00  0.00    +0.000 A 
ATOM     14  C   UNL     1       0.674   2.795  18.477  0.00  0.00    +0.000 A 
ATOM     15  C   UNL     1       1.177   3.828  17.683  0.00  0.00    +0.000 A 
ATOM     16  C   UNL     1       1.877   4.856  18.295  0.00  0.00    +0.000 A 
ENDROOT
BRANCH   1  17
ATOM     17  C   UNL     1       5.133   4.749  19.829  0.00  0.00    +0.000 C 
BRANCH  17  20
ATOM     18  O   UNL     1       7.445   6.120  18.849  0.00  0.00    +0.000 OA
ATOM     19  C   UNL     1       7.120   5.044  18.353  0.00  0.00    +0.000 C 
ATOM     20  N   UNL     1       6.038   4.304  18.778  0.00  0.00    +0.000 N 
ATOM     21  H   UNL     1       5.983   3.335  18.471  0.00  0.00    +0.000 HD
BRANCH  19  22
ATOM     22  C   UNL     1       7.943   4.375  17.246  0.00  0.00    +0.000 C 
BRANCH  22  23
ATOM     23  N   UNL     1       7.475   4.752  15.927  0.00  0.00    +0.000 N 
ATOM     24  C   UNL     1       6.407   4.120  15.347  0.00  0.00    +0.000 C 
ATOM     25  O   UNL     1       5.791   3.214  15.901  0.00  0.00    +0.000 OA
ATOM     26  H   UNL     1       8.021   5.418  15.399  0.00  0.00    +0.000 HD
BRANCH  24  27
ATOM     27  C   UNL     1       5.995   4.559  13.985  0.00  0.00    +0.000 C 
ATOM     28  C   UNL     1       5.282   3.698  12.968  0.00  0.00    +0.000 C 
ATOM     29  C   UNL     1       6.728   4.047  12.764  0.00  0.00    +0.000 C 
ENDBRANCH  24  27
ENDBRANCH  22  23
ENDBRANCH  19  22
ENDBRANCH  17  20
ENDBRANCH   1  17
TORSDOF 5
ENDMDL
MODEL 6
REMARK VINA RESULT:      -8.5      1.635      4.039
REMARK  Name = 
REMARK  5 active torsions:
REMARK  status: ('A' for Active; 'I' for Inactive)
REMARK    1  A    between atoms: C_2  and  C_3
REMARK    2  A    between atoms: C_3  and  N_4
REMARK    3  A    between atoms: C_5  and  C_7
REMARK    4  A    between atoms: N_10  and  C_11
REMARK    5  A    between atoms: C_11  and  C_12
REMARK                            x       y       z     vdW  Elec       q    Type
REMARK                         _______ _______ _______ _____ _____    ______ ____
ROOT
ATOM      1  C   UNL     1       3.741   6.364  18.523  0.00  0.00    +0.000 C 
ATOM      2  C   UNL     1       4.857   5.761  19.458  0.00  0.00    +0.000 C 
ATOM      3  C   UNL     1       5.367   4.406  18.894  0.00  0.00    +0.000 C 
ATOM      4  C   UNL     1       5.867   4.700  17.483  0.00  0.00    +0.000 A 
ATOM      5  C   UNL     1       7.155   4.469  17.017  0.00  0.00    +0.000 A 
ATOM      6  C   UNL     1       7.446   4.756  15.682  0.00  0.00    +0.000 A 
ATOM      7  C   UNL     1       6.454   5.262  14.828  0.00  0.00    +0.000 A 
ATOM      8  C   UNL     1       5.157   5.499  15.293  0.00  0.00    +0.000 A 
ATOM      9  C   UNL     1       4.867   5.226  16.623  0.00  0.00    +0.000 A 
ATOM     10  C   UNL     1       3.503   5.393  17.307  0.00  0.00    +0.000 C 
ATOM     11  C   UNL     1       3.138   4.032  17.903  0.00  0.00    +0.000 A 
ATOM     12  C   UNL     1       1.967   3.326  17.666  0.00  0.00    +0.000 A 
ATOM     13  C   UNL     1       1.776   2.110  18.324  0.00  0.00    +0.000 A 
ATOM     14  C   UNL     1       2.749   1.610  19.206  0.00  0.00    +0.000 A 
ATOM     15  C   UNL     1       3.935   2.310  19.433  0.00  0.00    +0.000 A 
ATOM     16  C   UNL     1       4.131   3.516  18.777  0.00  0.00    +0.000 A 
ENDROOT
BRANCH   1  17
ATOM     17  C   UNL     1       2.440   6.652  19.300  0.00  0.00    +0.000 C 
BRANCH  17  20
ATOM     18  O   UNL     1       2.307   8.486  17.109  0.00  0.00    +0.000 OA
ATOM     19  C   UNL     1       2.098   8.887  18.251  0.00  0.00    +0.000 C 
ATOM     20  N   UNL     1       2.117   8.071  19.361  0.00  0.00    +0.000 N 
ATOM     21  H   UNL     1       1.711   8.438  20.220  0.00  0.00    +0.000 HD
BRANCH  19  22
ATOM     22  C   UNL     1       1.716  10.343  18.547  0.00  0.00    +0.000 C 
BRANCH  22  23
ATOM     23  N   UNL     1       0.458  10.705  17.926  0.00  0.00    +0.000 N 
ATOM     24  C   UNL     1      -0.738  10.331  18.480  0.00  0.00    +0.000 C 
ATOM     25  O   UNL     1      -0.815   9.681  19.518  0.00  0.00    +0.000 OA
ATOM     26  H   UNL     1       0.483  11.147  17.018  0.00  0.00    +0.000 HD
BRANCH  24  27
ATOM     27  C   UNL     1      -1.986  10.734  17.774  0.00  0.00    +0.000 C 
ATOM     28  C   UNL     1      -3.276   9.947  17.762  0.00  0.00    +0.000 C 
ATOM     29  C   UNL     1      -2.427  10.003  16.525  0.00  0.00    +0.000 C 
ENDBRANCH  24  27
ENDBRANCH  22  23
ENDBRANCH  19  22
ENDBRANCH  17  20
ENDBRANCH   1  17
TORSDOF 5
ENDMDL
MODEL 7
REMARK VINA RESULT:      -8.4      2.652      4.796
REMARK  Name = 
REMARK  5 active torsions:
REMARK  status: ('A' for Active; 'I' for Inactive)
REMARK    1  A    between atoms: C_2  and  C_3
REMARK    2  A    between atoms: C_3  and  N_4
REMARK    3  A    between atoms: C_5  and  C_7
REMARK    4  A    between atoms: N_10  and  C_11
REMARK    5  A    between atoms: C_11  and  C_12
REMARK                            x       y       z     vdW  Elec       q    Type
REMARK                         _______ _______ _______ _____ _____    ______ ____
ROOT
ATOM      1  C   UNL     1       3.871   6.401  18.549  0.00  0.00    +0.000 C 
ATOM      2  C   UNL     1       4.979   5.705  19.427  0.00  0.00    +0.000 C 
ATOM      3  C   UNL     1       5.380   4.336  18.814  0.00  0.00    +0.000 C 
ATOM      4  C   UNL     1       5.848   4.634  17.393  0.00  0.00    +0.000 A 
ATOM      5  C   UNL     1       7.102   4.334  16.874  0.00  0.00    +0.000 A 
ATOM      6  C   UNL     1       7.362   4.636  15.536  0.00  0.00    +0.000 A 
ATOM      7  C   UNL     1       6.375   5.225  14.731  0.00  0.00    +0.000 A 
ATOM      8  C   UNL     1       5.113   5.532  15.250  0.00  0.00    +0.000 A 
ATOM      9  C   UNL     1       4.854   5.243  16.583  0.00  0.00    +0.000 A 
ATOM     10  C   UNL     1       3.529   5.479  17.320  0.00  0.00    +0.000 C 
ATOM     11  C   UNL     1       3.099   4.129  17.897  0.00  0.00    +0.000 A 
ATOM     12  C   UNL     1       1.877   3.504  17.688  0.00  0.00    +0.000 A 
ATOM     13  C   UNL     1       1.633   2.286  18.325  0.00  0.00    +0.000 A 
ATOM     14  C   UNL     1       2.602   1.703  19.157  0.00  0.00    +0.000 A 
ATOM     15  C   UNL     1       3.838   2.321  19.356  0.00  0.00    +0.000 A 
ATOM     16  C   UNL     1       4.087   3.528  18.722  0.00  0.00    +0.000 A 
ENDROOT
BRANCH   1  17
ATOM     17  C   UNL     1       2.619   6.751  19.381  0.00  0.00    +0.000 C 
BRANCH  17  20
ATOM     18  O   UNL     1       1.147   8.462  21.137  0.00  0.00    +0.000 OA
ATOM     19  C   UNL     1       1.366   8.819  19.983  0.00  0.00    +0.000 C 
ATOM     20  N   UNL     1       2.086   8.071  19.077  0.00  0.00    +0.000 N 
ATOM     21  H   UNL     1       2.409   8.541  18.233  0.00  0.00    +0.000 HD
BRANCH  19  22
ATOM     22  C   UNL     1       0.916  10.186  19.453  0.00  0.00    +0.000 C 
BRANCH  22  23
ATOM     23  N   UNL     1      -0.238  10.687  20.172  0.00  0.00    +0.000 N 
ATOM     24  C   UNL     1      -0.108  11.651  21.137  0.00  0.00    +0.000 C 
ATOM     25  O   UNL     1       0.974  12.141  21.444  0.00  0.00    +0.000 OA
ATOM     26  H   UNL     1      -1.128  10.233  20.022  0.00  0.00    +0.000 HD
BRANCH  24  27
ATOM     27  C   UNL     1      -1.342  12.104  21.837  0.00  0.00    +0.000 C 
ATOM     28  C   UNL     1      -1.375  12.933  23.100  0.00  0.00    +0.000 C 
ATOM     29  C   UNL     1      -1.745  11.479  23.155  0.00  0.00    +0.000 C 
ENDBRANCH  24  27
ENDBRANCH  22  23
ENDBRANCH  19  22
ENDBRANCH  17  20
ENDBRANCH   1  17
TORSDOF 5
ENDMDL
MODEL 8
REMARK VINA RESULT:      -8.4      0.992      1.153
REMARK  Name = 
REMARK  5 active torsions:
REMARK  status: ('A' for Active; 'I' for Inactive)
REMARK    1  A    between atoms: C_2  and  C_3
REMARK    2  A    between atoms: C_3  and  N_4
REMARK    3  A    between atoms: C_5  and  C_7
REMARK    4  A    between atoms: N_10  and  C_11
REMARK    5  A    between atoms: C_11  and  C_12
REMARK                            x       y       z     vdW  Elec       q    Type
REMARK                         _______ _______ _______ _____ _____    ______ ____
ROOT
ATOM      1  C   UNL     1       2.090   6.630  18.749  0.00  0.00    +0.000 C 
ATOM      2  C   UNL     1       1.555   5.675  17.615  0.00  0.00    +0.000 C 
ATOM      3  C   UNL     1       2.293   4.310  17.660  0.00  0.00    +0.000 C 
ATOM      4  C   UNL     1       2.064   3.755  19.063  0.00  0.00    +0.000 A 
ATOM      5  C   UNL     1       1.464   2.538  19.363  0.00  0.00    +0.000 A 
ATOM      6  C   UNL     1       1.364   2.154  20.702  0.00  0.00    +0.000 A 
ATOM      7  C   UNL     1       1.865   2.977  21.721  0.00  0.00    +0.000 A 
ATOM      8  C   UNL     1       2.467   4.204  21.424  0.00  0.00    +0.000 A 
ATOM      9  C   UNL     1       2.559   4.595  20.095  0.00  0.00    +0.000 A 
ATOM     10  C   UNL     1       3.206   5.885  19.572  0.00  0.00    +0.000 C 
ATOM     11  C   UNL     1       4.278   5.463  18.565  0.00  0.00    +0.000 A 
ATOM     12  C   UNL     1       5.617   5.827  18.600  0.00  0.00    +0.000 A 
ATOM     13  C   UNL     1       6.456   5.384  17.576  0.00  0.00    +0.000 A 
ATOM     14  C   UNL     1       5.958   4.585  16.534  0.00  0.00    +0.000 A 
ATOM     15  C   UNL     1       4.615   4.203  16.506  0.00  0.00    +0.000 A 
ATOM     16  C   UNL     1       3.779   4.638  17.523  0.00  0.00    +0.000 A 
ENDROOT
BRANCH   1  17
ATOM     17  C   UNL     1       2.588   7.973  18.176  0.00  0.00    +0.000 C 
BRANCH  17  20
ATOM     18  O   UNL     1       2.876  10.702  17.368  0.00  0.00    +0.000 OA
ATOM     19  C   UNL     1       2.033  10.403  18.210  0.00  0.00    +0.000 C 
ATOM     20  N   UNL     1       1.809   9.113  18.640  0.00  0.00    +0.000 N 
ATOM     21  H   UNL     1       0.951   8.934  19.157  0.00  0.00    +0.000 HD
BRANCH  19  22
ATOM     22  C   UNL     1       1.084  11.442  18.818  0.00  0.00    +0.000 C 
BRANCH  22  23
ATOM     23  N   UNL     1      -0.149  11.549  18.063  0.00  0.00    +0.000 N 
ATOM     24  C   UNL     1      -1.231  10.764  18.360  0.00  0.00    +0.000 C 
ATOM     25  O   UNL     1      -1.224   9.938  19.268  0.00  0.00    +0.000 OA
ATOM     26  H   UNL     1      -0.157  12.141  17.244  0.00  0.00    +0.000 HD
BRANCH  24  27
ATOM     27  C   UNL     1      -2.457  10.928  17.530  0.00  0.00    +0.000 C 
ATOM     28  C   UNL     1      -3.661  10.016  17.560  0.00  0.00    +0.000 C 
ATOM     29  C   UNL     1      -2.734   9.983  16.381  0.00  0.00    +0.000 C 
ENDBRANCH  24  27
ENDBRANCH  22  23
ENDBRANCH  19  22
ENDBRANCH  17  20
ENDBRANCH   1  17
TORSDOF 5
ENDMDL
MODEL 9
REMARK VINA RESULT:      -8.3      1.818      2.694
REMARK  Name = 
REMARK  5 active torsions:
REMARK  status: ('A' for Active; 'I' for Inactive)
REMARK    1  A    between atoms: C_2  and  C_3
REMARK    2  A    between atoms: C_3  and  N_4
REMARK    3  A    between atoms: C_5  and  C_7
REMARK    4  A    between atoms: N_10  and  C_11
REMARK    5  A    between atoms: C_11  and  C_12
REMARK                            x       y       z     vdW  Elec       q    Type
REMARK                         _______ _______ _______ _____ _____    ______ ____
ROOT
ATOM      1  C   UNL     1       2.345   6.581  18.632  0.00  0.00    +0.000 C 
ATOM      2  C   UNL     1       1.792   5.603  17.527  0.00  0.00    +0.000 C 
ATOM      3  C   UNL     1       2.460   4.207  17.651  0.00  0.00    +0.000 C 
ATOM      4  C   UNL     1       2.169   3.728  19.070  0.00  0.00    +0.000 A 
ATOM      5  C   UNL     1       1.502   2.556  19.408  0.00  0.00    +0.000 A 
ATOM      6  C   UNL     1       1.349   2.238  20.759  0.00  0.00    +0.000 A 
ATOM      7  C   UNL     1       1.865   3.082  21.754  0.00  0.00    +0.000 A 
ATOM      8  C   UNL     1       2.534   4.263  21.419  0.00  0.00    +0.000 A 
ATOM      9  C   UNL     1       2.678   4.589  20.077  0.00  0.00    +0.000 A 
ATOM     10  C   UNL     1       3.401   5.821  19.516  0.00  0.00    +0.000 C 
ATOM     11  C   UNL     1       4.476   5.303  18.558  0.00  0.00    +0.000 A 
ATOM     12  C   UNL     1       5.830   5.602  18.614  0.00  0.00    +0.000 A 
ATOM     13  C   UNL     1       6.672   5.073  17.634  0.00  0.00    +0.000 A 
ATOM     14  C   UNL     1       6.161   4.253  16.614  0.00  0.00    +0.000 A 
ATOM     15  C   UNL     1       4.802   3.936  16.566  0.00  0.00    +0.000 A 
ATOM     16  C   UNL     1       3.963   4.456  17.540  0.00  0.00    +0.000 A 
ENDROOT
BRANCH   1  17
ATOM     17  C   UNL     1       2.924   7.871  18.014  0.00  0.00    +0.000 C 
BRANCH  17  20
ATOM     18  O   UNL     1       1.315   8.957  20.115  0.00  0.00    +0.000 OA
ATOM     19  C   UNL     1       1.191   9.386  18.971  0.00  0.00    +0.000 C 
ATOM     20  N   UNL     1       1.940   8.939  17.903  0.00  0.00    +0.000 N 
ATOM     21  H   UNL     1       1.932   9.504  17.056  0.00  0.00    +0.000 HD
BRANCH  19  22
ATOM     22  C   UNL     1       0.228  10.530  18.629  0.00  0.00    +0.000 C 
BRANCH  22  23
ATOM     23  N   UNL     1      -0.701  10.791  19.710  0.00  0.00    +0.000 N 
ATOM     24  C   UNL     1      -0.474  11.796  20.612  0.00  0.00    +0.000 C 
ATOM     25  O   UNL     1       0.513  12.526  20.558  0.00  0.00    +0.000 OA
ATOM     26  H   UNL     1      -1.466  10.146  19.848  0.00  0.00    +0.000 HD
BRANCH  24  27
ATOM     27  C   UNL     1      -1.471  11.993  21.699  0.00  0.00    +0.000 C 
ATOM     28  C   UNL     1      -1.209  12.702  23.008  0.00  0.00    +0.000 C 
ATOM     29  C   UNL     1      -1.360  11.208  22.989  0.00  0.00    +0.000 C 
ENDBRANCH  24  27
ENDBRANCH  22  23
ENDBRANCH  19  22
ENDBRANCH  17  20
ENDBRANCH   1  17
TORSDOF 5
ENDMDL
