MODEL 1
REMARK VINA RESULT:      -8.1      0.000      0.000
REMARK  Name = 
REMARK  7 active torsions:
REMARK  status: ('A' for Active; 'I' for Inactive)
REMARK    1  A    between atoms: C_1  and  C_2
REMARK    2  A    between atoms: C_5  and  C_6
REMARK    3  A    between atoms: C_7  and  N_8
REMARK    4  A    between atoms: C_11  and  N_12
REMARK    5  A    between atoms: N_12  and  C_13
REMARK    6  A    between atoms: C_13  and  C_14
REMARK    7  A    between atoms: C_24  and  C_25
REMARK                            x       y       z     vdW  Elec       q    Type
REMARK                         _______ _______ _______ _____ _____    ______ ____
ROOT
ATOM      1  N   UNL     1       0.837   9.813  19.815  0.00  0.00    +0.000 N 
ATOM      2  N   UNL     1       0.519   9.592  21.120  0.00  0.00    +0.000 NA
ATOM      3  C   UNL     1       1.057   8.410  21.414  0.00  0.00    +0.000 A 
ATOM      4  C   UNL     1       1.760   7.859  20.335  0.00  0.00    +0.000 A 
ATOM      5  C   UNL     1       1.571   8.743  19.294  0.00  0.00    +0.000 A 
ATOM      6  C   UNL     1       2.156   8.695  17.924  0.00  0.00    +0.000 C 
ENDROOT
BRANCH   1  13
ATOM      7  C   UNL     1       1.772  14.606  19.178  0.00  0.00    +0.000 C 
ATOM      8  C   UNL     1       0.903  13.426  18.854  0.00  0.00    +0.000 A 
ATOM      9  C   UNL     1      -0.339  13.574  18.256  0.00  0.00    +0.000 A 
ATOM     10  C   UNL     1      -1.161  12.461  18.051  0.00  0.00    +0.000 A 
ATOM     11  C   UNL     1      -0.784  11.179  18.500  0.00  0.00    +0.000 A 
ATOM     12  C   UNL     1      -1.790  10.071  18.335  0.00  0.00    +0.000 C 
ATOM     13  C   UNL     1       0.461  11.035  19.147  0.00  0.00    +0.000 A 
ATOM     14  C   UNL     1       1.318  12.144  19.244  0.00  0.00    +0.000 A 
ENDBRANCH   1  13
BRANCH   4  15
ATOM     15  N   UNL     1       2.522   6.736  20.266  0.00  0.00    +0.000 N 
ATOM     16  H   UNL     1       3.329   6.694  20.886  0.00  0.00    +0.000 HD
BRANCH  15  17
ATOM     17  C   UNL     1       1.890   5.418  20.152  0.00  0.00    +0.000 C 
BRANCH  17  18
ATOM     18  C   UNL     1       2.292   4.638  18.938  0.00  0.00    +0.000 A 
ATOM     19  N   UNL     1       1.488   4.076  18.058  0.00  0.00    +0.000 NA
ATOM     20  N   UNL     1       2.258   3.571  17.044  0.00  0.00    +0.000 NA
ATOM     21  C   UNL     1       3.519   3.812  17.326  0.00  0.00    +0.000 A 
ATOM     22  N   UNL     1       3.596   4.410  18.556  0.00  0.00    +0.000 N 
ATOM     23  C   UNL     1       4.752   4.542  19.406  0.00  0.00    +0.000 C 
ATOM     24  C   UNL     1       6.065   5.148  18.912  0.00  0.00    +0.000 C 
ATOM     25  C   UNL     1       6.624   4.751  17.556  0.00  0.00    +0.000 C 
ATOM     26  C   UNL     1       5.618   4.774  16.413  0.00  0.00    +0.000 C 
ATOM     27  C   UNL     1       4.680   3.565  16.436  0.00  0.00    +0.000 C 
ENDBRANCH  17  18
ENDBRANCH  15  17
ENDBRANCH   4  15
TORSDOF 4
ENDMDL
MODEL 2
REMARK VINA RESULT:      -8.0      0.918      2.288
REMARK  Name = 
REMARK  7 active torsions:
REMARK  status: ('A' for Active; 'I' for Inactive)
REMARK    1  A    between atoms: C_1  and  C_2
REMARK    2  A    between atoms: C_5  and  C_6
REMARK    3  A    between atoms: C_7  and  N_8
REMARK    4  A    between atoms: C_11  and  N_12
REMARK    5  A    between atoms: N_12  and  C_13
REMARK    6  A    between atoms: C_13  and  C_14
REMARK    7  A    between atoms: C_24  and  C_25
REMARK                            x       y       z     vdW  Elec       q    Type
REMARK                         _______ _______ _______ _____ _____    ______ ____
ROOT
ATOM      1  N   UNL     1       1.048   9.334  18.906  0.00  0.00    +0.000 N 
ATOM      2  N   UNL     1       1.858   8.940  17.885  0.00  0.00    +0.000 NA
ATOM      3  C   UNL     1       2.536   7.898  18.361  0.00  0.00    +0.000 A 
ATOM      4  C   UNL     1       2.164   7.570  19.671  0.00  0.00    +0.000 A 
ATOM      5  C   UNL     1       1.242   8.530  20.034  0.00  0.00    +0.000 A 
ATOM      6  C   UNL     1       0.459   8.625  21.298  0.00  0.00    +0.000 C 
ENDROOT
BRANCH   1  13
ATOM      7  C   UNL     1      -3.144  10.887  16.842  0.00  0.00    +0.000 C 
ATOM      8  C   UNL     1      -1.953  11.208  17.696  0.00  0.00    +0.000 A 
ATOM      9  C   UNL     1      -1.605  12.514  18.006  0.00  0.00    +0.000 A 
ATOM     10  C   UNL     1      -0.437  12.781  18.728  0.00  0.00    +0.000 A 
ATOM     11  C   UNL     1       0.446  11.747  19.101  0.00  0.00    +0.000 A 
ATOM     12  C   UNL     1       1.732  12.152  19.772  0.00  0.00    +0.000 C 
ATOM     13  C   UNL     1       0.115  10.422  18.748  0.00  0.00    +0.000 A 
ATOM     14  C   UNL     1      -1.115  10.166  18.121  0.00  0.00    +0.000 A 
ENDBRANCH   1  13
BRANCH   4  15
ATOM     15  N   UNL     1       2.542   6.527  20.455  0.00  0.00    +0.000 N 
ATOM     16  H   UNL     1       2.688   6.728  21.443  0.00  0.00    +0.000 HD
BRANCH  15  17
ATOM     17  C   UNL     1       1.921   5.209  20.285  0.00  0.00    +0.000 C 
BRANCH  17  18
ATOM     18  C   UNL     1       2.298   4.503  19.019  0.00  0.00    +0.000 A 
ATOM     19  N   UNL     1       1.480   3.929  18.160  0.00  0.00    +0.000 NA
ATOM     20  N   UNL     1       2.219   3.511  17.085  0.00  0.00    +0.000 NA
ATOM     21  C   UNL     1       3.479   3.816  17.309  0.00  0.00    +0.000 A 
ATOM     22  N   UNL     1       3.589   4.368  18.558  0.00  0.00    +0.000 N 
ATOM     23  C   UNL     1       4.782   4.535  19.349  0.00  0.00    +0.000 C 
ATOM     24  C   UNL     1       6.028   5.237  18.812  0.00  0.00    +0.000 C 
ATOM     25  C   UNL     1       6.533   4.927  17.412  0.00  0.00    +0.000 C 
ATOM     26  C   UNL     1       5.464   4.936  16.327  0.00  0.00    +0.000 C 
ATOM     27  C   UNL     1       4.600   3.674  16.349  0.00  0.00    +0.000 C 
ENDBRANCH  17  18
ENDBRANCH  15  17
ENDBRANCH   4  15
TORSDOF 4
ENDMDL
MODEL 3
REMARK VINA RESULT:      -8.0      1.656      2.524
REMARK  Name = 
REMARK  7 active torsions:
REMARK  status: ('A' for Active; 'I' for Inactive)
REMARK    1  A    between atoms: C_1  and  C_2
REMARK    2  A    between atoms: C_5  and  C_6
REMARK    3  A    between atoms: C_7  and  N_8
REMARK    4  A    between atoms: C_11  and  N_12
REMARK    5  A    between atoms: N_12  and  C_13
REMARK    6  A    between atoms: C_13  and  C_14
REMARK    7  A    between atoms: C_24  and  C_25
REMARK                            x       y       z     vdW  Elec       q    Type
REMARK                         _______ _______ _______ _____ _____    ______ ____
ROOT
ATOM      1  N   UNL     1       1.160   9.887  18.939  0.00  0.00    +0.000 N 
ATOM      2  N   UNL     1       1.832   9.660  17.777  0.00  0.00    +0.000 NA
ATOM      3  C   UNL     1       2.433   8.484  17.947  0.00  0.00    +0.000 A 
ATOM      4  C   UNL     1       2.142   7.908  19.190  0.00  0.00    +0.000 A 
ATOM      5  C   UNL     1       1.363   8.840  19.844  0.00  0.00    +0.000 A 
ATOM      6  C   UNL     1       0.706   8.721  21.176  0.00  0.00    +0.000 C 
ENDROOT
BRANCH   1  13
ATOM      7  C   UNL     1       0.521  14.138  21.340  0.00  0.00    +0.000 C 
ATOM      8  C   UNL     1      -0.000  13.158  20.331  0.00  0.00    +0.000 A 
ATOM      9  C   UNL     1      -1.310  13.200  19.878  0.00  0.00    +0.000 A 
ATOM     10  C   UNL     1      -1.788  12.215  19.007  0.00  0.00    +0.000 A 
ATOM     11  C   UNL     1      -0.981  11.125  18.620  0.00  0.00    +0.000 A 
ATOM     12  C   UNL     1      -1.628  10.060  17.775  0.00  0.00    +0.000 C 
ATOM     13  C   UNL     1       0.338  11.058  19.115  0.00  0.00    +0.000 A 
ATOM     14  C   UNL     1       0.832  12.114  19.899  0.00  0.00    +0.000 A 
ENDBRANCH   1  13
BRANCH   4  15
ATOM     15  N   UNL     1       2.472   6.690  19.692  0.00  0.00    +0.000 N 
ATOM     16  H   UNL     1       1.885   6.330  20.442  0.00  0.00    +0.000 HD
BRANCH  15  17
ATOM     17  C   UNL     1       2.881   5.605  18.793  0.00  0.00    +0.000 C 
BRANCH  17  18
ATOM     18  C   UNL     1       4.347   5.298  18.815  0.00  0.00    +0.000 A 
ATOM     19  N   UNL     1       5.044   4.842  19.836  0.00  0.00    +0.000 NA
ATOM     20  N   UNL     1       6.316   4.583  19.398  0.00  0.00    +0.000 NA
ATOM     21  C   UNL     1       6.385   4.902  18.125  0.00  0.00    +0.000 A 
ATOM     22  N   UNL     1       5.187   5.440  17.733  0.00  0.00    +0.000 N 
ATOM     23  C   UNL     1       4.912   6.224  16.556  0.00  0.00    +0.000 C 
ATOM     24  C   UNL     1       5.279   5.749  15.151  0.00  0.00    +0.000 C 
ATOM     25  C   UNL     1       6.641   5.124  14.891  0.00  0.00    +0.000 C 
ATOM     26  C   UNL     1       7.060   4.056  15.891  0.00  0.00    +0.000 C 
ATOM     27  C   UNL     1       7.532   4.652  17.219  0.00  0.00    +0.000 C 
ENDBRANCH  17  18
ENDBRANCH  15  17
ENDBRANCH   4  15
TORSDOF 4
ENDMDL
MODEL 4
REMARK VINA RESULT:      -8.0      0.716      1.321
REMARK  Name = 
REMARK  7 active torsions:
REMARK  status: ('A' for Active; 'I' for Inactive)
REMARK    1  A    between atoms: C_1  and  C_2
REMARK    2  A    between atoms: C_5  and  C_6
REMARK    3  A    between atoms: C_7  and  N_8
REMARK    4  A    between atoms: C_11  and  N_12
REMARK    5  A    between atoms: N_12  and  C_13
REMARK    6  A    between atoms: C_13  and  C_14
REMARK    7  A    between atoms: C_24  and  C_25
REMARK                            x       y       z     vdW  Elec       q    Type
REMARK                         _______ _______ _______ _____ _____    ______ ____
ROOT
ATOM      1  N   UNL     1       1.400   9.615  18.715  0.00  0.00    +0.000 N 
ATOM      2  N   UNL     1       2.017   9.029  17.653  0.00  0.00    +0.000 NA
ATOM      3  C   UNL     1       2.469   7.864  18.113  0.00  0.00    +0.000 A 
ATOM      4  C   UNL     1       2.128   7.650  19.455  0.00  0.00    +0.000 A 
ATOM      5  C   UNL     1       1.485   8.803  19.850  0.00  0.00    +0.000 A 
ATOM      6  C   UNL     1       0.841   9.097  21.162  0.00  0.00    +0.000 C 
ENDROOT
BRANCH   1  13
ATOM      7  C   UNL     1       1.581  14.454  19.612  0.00  0.00    +0.000 C 
ATOM      8  C   UNL     1       0.807  13.291  19.063  0.00  0.00    +0.000 A 
ATOM      9  C   UNL     1      -0.549  13.378  18.787  0.00  0.00    +0.000 A 
ATOM     10  C   UNL     1      -1.257  12.248  18.363  0.00  0.00    +0.000 A 
ATOM     11  C   UNL     1      -0.634  10.987  18.267  0.00  0.00    +0.000 A 
ATOM     12  C   UNL     1      -1.511   9.815  17.914  0.00  0.00    +0.000 C 
ATOM     13  C   UNL     1       0.735  10.889  18.588  0.00  0.00    +0.000 A 
ATOM     14  C   UNL     1       1.452  12.055  18.905  0.00  0.00    +0.000 A 
ENDBRANCH   1  13
BRANCH   4  15
ATOM     15  N   UNL     1       2.311   6.558  20.243  0.00  0.00    +0.000 N 
ATOM     16  H   UNL     1       2.354   6.722  21.247  0.00  0.00    +0.000 HD
BRANCH  15  17
ATOM     17  C   UNL     1       1.599   5.310  19.955  0.00  0.00    +0.000 C 
BRANCH  17  18
ATOM     18  C   UNL     1       2.128   4.548  18.778  0.00  0.00    +0.000 A 
ATOM     19  N   UNL     1       1.420   3.947  17.842  0.00  0.00    +0.000 NA
ATOM     20  N   UNL     1       2.288   3.479  16.892  0.00  0.00    +0.000 NA
ATOM     21  C   UNL     1       3.511   3.780  17.267  0.00  0.00    +0.000 A 
ATOM     22  N   UNL     1       3.466   4.382  18.497  0.00  0.00    +0.000 N 
ATOM     23  C   UNL     1       4.547   4.570  19.431  0.00  0.00    +0.000 C 
ATOM     24  C   UNL     1       5.863   5.237  19.035  0.00  0.00    +0.000 C 
ATOM     25  C   UNL     1       6.542   4.865  17.726  0.00  0.00    +0.000 C 
ATOM     26  C   UNL     1       5.624   4.840  16.511  0.00  0.00    +0.000 C 
ATOM     27  C   UNL     1       4.746   3.588  16.469  0.00  0.00    +0.000 C 
ENDBRANCH  17  18
ENDBRANCH  15  17
ENDBRANCH   4  15
TORSDOF 4
ENDMDL
MODEL 5
REMARK VINA RESULT:      -8.0      1.759      3.108
REMARK  Name = 
REMARK  7 active torsions:
REMARK  status: ('A' for Active; 'I' for Inactive)
REMARK    1  A    between atoms: C_1  and  C_2
REMARK    2  A    between atoms: C_5  and  C_6
REMARK    3  A    between atoms: C_7  and  N_8
REMARK    4  A    between atoms: C_11  and  N_12
REMARK    5  A    between atoms: N_12  and  C_13
REMARK    6  A    between atoms: C_13  and  C_14
REMARK    7  A    between atoms: C_24  and  C_25
REMARK                            x       y       z     vdW  Elec       q    Type
REMARK                         _______ _______ _______ _____ _____    ______ ____
ROOT
ATOM      1  N   UNL     1       0.731   9.759  19.143  0.00  0.00    +0.000 N 
ATOM      2  N   UNL     1       1.371   9.654  17.946  0.00  0.00    +0.000 NA
ATOM      3  C   UNL     1       2.188   8.610  18.079  0.00  0.00    +0.000 A 
ATOM      4  C   UNL     1       2.073   7.997  19.333  0.00  0.00    +0.000 A 
ATOM      5  C   UNL     1       1.171   8.772  20.031  0.00  0.00    +0.000 A 
ATOM      6  C   UNL     1       0.617   8.540  21.395  0.00  0.00    +0.000 C 
ENDROOT
BRANCH   1  13
ATOM      7  C   UNL     1      -3.752  11.409  17.949  0.00  0.00    +0.000 C 
ATOM      8  C   UNL     1      -2.499  11.602  18.751  0.00  0.00    +0.000 A 
ATOM      9  C   UNL     1      -2.206  12.806  19.373  0.00  0.00    +0.000 A 
ATOM     10  C   UNL     1      -0.986  12.979  20.036  0.00  0.00    +0.000 A 
ATOM     11  C   UNL     1      -0.003  11.969  20.036  0.00  0.00    +0.000 A 
ATOM     12  C   UNL     1       1.319  12.299  20.678  0.00  0.00    +0.000 C 
ATOM     13  C   UNL     1      -0.283  10.759  19.367  0.00  0.00    +0.000 A 
ATOM     14  C   UNL     1      -1.555  10.566  18.803  0.00  0.00    +0.000 A 
ENDBRANCH   1  13
BRANCH   4  15
ATOM     15  N   UNL     1       2.648   6.863  19.810  0.00  0.00    +0.000 N 
ATOM     16  H   UNL     1       2.293   6.508  20.697  0.00  0.00    +0.000 HD
BRANCH  15  17
ATOM     17  C   UNL     1       2.965   5.755  18.904  0.00  0.00    +0.000 C 
BRANCH  17  18
ATOM     18  C   UNL     1       4.416   5.383  18.859  0.00  0.00    +0.000 A 
ATOM     19  N   UNL     1       5.133   4.878  19.843  0.00  0.00    +0.000 NA
ATOM     20  N   UNL     1       6.373   4.571  19.348  0.00  0.00    +0.000 NA
ATOM     21  C   UNL     1       6.404   4.909  18.078  0.00  0.00    +0.000 A 
ATOM     22  N   UNL     1       5.217   5.506  17.745  0.00  0.00    +0.000 N 
ATOM     23  C   UNL     1       4.929   6.324  16.594  0.00  0.00    +0.000 C 
ATOM     24  C   UNL     1       5.217   5.858  15.168  0.00  0.00    +0.000 C 
ATOM     25  C   UNL     1       6.537   5.178  14.840  0.00  0.00    +0.000 C 
ATOM     26  C   UNL     1       6.948   4.074  15.805  0.00  0.00    +0.000 C 
ATOM     27  C   UNL     1       7.501   4.625  17.121  0.00  0.00    +0.000 C 
ENDBRANCH  17  18
ENDBRANCH  15  17
ENDBRANCH   4  15
TORSDOF 4
ENDMDL
MODEL 6
REMARK VINA RESULT:      -7.9      1.647      8.032
REMARK  Name = 
REMARK  7 active torsions:
REMARK  status: ('A' for Active; 'I' for Inactive)
REMARK    1  A    between atoms: C_1  and  C_2
REMARK    2  A    between atoms: C_5  and  C_6
REMARK    3  A    between atoms: C_7  and  N_8
REMARK    4  A    between atoms: C_11  and  N_12
REMARK    5  A    between atoms: N_12  and  C_13
REMARK    6  A    between atoms: C_13  and  C_14
REMARK    7  A    between atoms: C_24  and  C_25
REMARK                            x       y       z     vdW  Elec       q    Type
REMARK                         _______ _______ _______ _____ _____    ______ ____
ROOT
ATOM      1  N   UNL     1       2.795   6.647  18.792  0.00  0.00    +0.000 N 
ATOM      2  N   UNL     1       2.568   7.870  18.238  0.00  0.00    +0.000 NA
ATOM      3  C   UNL     1       1.901   8.554  19.166  0.00  0.00    +0.000 A 
ATOM      4  C   UNL     1       1.713   7.818  20.342  0.00  0.00    +0.000 A 
ATOM      5  C   UNL     1       2.246   6.574  20.076  0.00  0.00    +0.000 A 
ATOM      6  C   UNL     1       2.385   5.413  21.001  0.00  0.00    +0.000 C 
ENDROOT
BRANCH   1  13
ATOM      7  C   UNL     1       7.041   5.453  16.604  0.00  0.00    +0.000 C 
ATOM      8  C   UNL     1       5.645   5.048  16.975  0.00  0.00    +0.000 A 
ATOM      9  C   UNL     1       5.022   3.952  16.398  0.00  0.00    +0.000 A 
ATOM     10  C   UNL     1       3.688   3.658  16.700  0.00  0.00    +0.000 A 
ATOM     11  C   UNL     1       2.926   4.494  17.540  0.00  0.00    +0.000 A 
ATOM     12  C   UNL     1       1.468   4.153  17.708  0.00  0.00    +0.000 C 
ATOM     13  C   UNL     1       3.546   5.634  18.094  0.00  0.00    +0.000 A 
ATOM     14  C   UNL     1       4.915   5.849  17.866  0.00  0.00    +0.000 A 
ENDBRANCH   1  13
BRANCH   4  15
ATOM     15  N   UNL     1       1.180   8.191  21.535  0.00  0.00    +0.000 N 
ATOM     16  H   UNL     1       1.766   8.769  22.135  0.00  0.00    +0.000 HD
BRANCH  15  17
ATOM     17  C   UNL     1      -0.221   8.614  21.621  0.00  0.00    +0.000 C 
BRANCH  17  18
ATOM     18  C   UNL     1      -0.414  10.066  21.933  0.00  0.00    +0.000 A 
ATOM     19  N   UNL     1      -0.370  10.631  23.123  0.00  0.00    +0.000 NA
ATOM     20  N   UNL     1      -0.475  11.986  22.951  0.00  0.00    +0.000 NA
ATOM     21  C   UNL     1      -0.603  12.229  21.665  0.00  0.00    +0.000 A 
ATOM     22  N   UNL     1      -0.656  11.039  20.989  0.00  0.00    +0.000 N 
ATOM     23  C   UNL     1      -1.120  10.805  19.645  0.00  0.00    +0.000 C 
ATOM     24  C   UNL     1      -0.583  11.585  18.446  0.00  0.00    +0.000 C 
ATOM     25  C   UNL     1      -0.403  13.092  18.537  0.00  0.00    +0.000 C 
ATOM     26  C   UNL     1       0.307  13.580  19.792  0.00  0.00    +0.000 C 
ATOM     27  C   UNL     1      -0.605  13.565  21.021  0.00  0.00    +0.000 C 
ENDBRANCH  17  18
ENDBRANCH  15  17
ENDBRANCH   4  15
TORSDOF 4
ENDMDL
MODEL 7
REMARK VINA RESULT:      -7.8      5.571      8.992
REMARK  Name = 
REMARK  7 active torsions:
REMARK  status: ('A' for Active; 'I' for Inactive)
REMARK    1  A    between atoms: C_1  and  C_2
REMARK    2  A    between atoms: C_5  and  C_6
REMARK    3  A    between atoms: C_7  and  N_8
REMARK    4  A    between atoms: C_11  and  N_12
REMARK    5  A    between atoms: N_12  and  C_13
REMARK    6  A    between atoms: C_13  and  C_14
REMARK    7  A    between atoms: C_24  and  C_25
REMARK                            x       y       z     vdW  Elec       q    Type
REMARK                         _______ _______ _______ _____ _____    ______ ____
ROOT
ATOM      1  N   UNL     1       5.975   5.621  18.401  0.00  0.00    +0.000 N 
ATOM      2  N   UNL     1       7.030   5.283  19.192  0.00  0.00    +0.000 NA
ATOM      3  C   UNL     1       7.959   6.205  18.946  0.00  0.00    +0.000 A 
ATOM      4  C   UNL     1       7.523   7.173  18.032  0.00  0.00    +0.000 A 
ATOM      5  C   UNL     1       6.264   6.762  17.646  0.00  0.00    +0.000 A 
ATOM      6  C   UNL     1       5.304   7.458  16.744  0.00  0.00    +0.000 C 
ENDROOT
BRANCH   1  13
ATOM      7  C   UNL     1       2.113   4.161  21.085  0.00  0.00    +0.000 C 
ATOM      8  C   UNL     1       2.838   4.116  19.772  0.00  0.00    +0.000 A 
ATOM      9  C   UNL     1       2.543   3.168  18.804  0.00  0.00    +0.000 A 
ATOM     10  C   UNL     1       3.300   3.098  17.630  0.00  0.00    +0.000 A 
ATOM     11  C   UNL     1       4.416   3.936  17.427  0.00  0.00    +0.000 A 
ATOM     12  C   UNL     1       5.233   3.701  16.184  0.00  0.00    +0.000 C 
ATOM     13  C   UNL     1       4.743   4.872  18.430  0.00  0.00    +0.000 A 
ATOM     14  C   UNL     1       3.905   5.000  19.550  0.00  0.00    +0.000 A 
ENDBRANCH   1  13
BRANCH   4  15
ATOM     15  N   UNL     1       8.127   8.314  17.608  0.00  0.00    +0.000 N 
ATOM     16  H   UNL     1       7.674   8.814  16.845  0.00  0.00    +0.000 HD
BRANCH  15  17
ATOM     17  C   UNL     1       8.691   9.257  18.578  0.00  0.00    +0.000 C 
BRANCH  17  18
ATOM     18  C   UNL     1       8.718  10.682  18.117  0.00  0.00    +0.000 A 
ATOM     19  N   UNL     1       7.791  11.304  17.416  0.00  0.00    +0.000 NA
ATOM     20  N   UNL     1       8.151  12.622  17.315  0.00  0.00    +0.000 NA
ATOM     21  C   UNL     1       9.299  12.784  17.934  0.00  0.00    +0.000 A 
ATOM     22  N   UNL     1       9.739  11.567  18.384  0.00  0.00    +0.000 N 
ATOM     23  C   UNL     1      11.070  11.207  18.805  0.00  0.00    +0.000 C 
ATOM     24  C   UNL     1      11.833  11.996  19.867  0.00  0.00    +0.000 C 
ATOM     25  C   UNL     1      11.835  13.516  19.832  0.00  0.00    +0.000 C 
ATOM     26  C   UNL     1      10.467  14.157  19.640  0.00  0.00    +0.000 C 
ATOM     27  C   UNL     1       9.982  14.074  18.192  0.00  0.00    +0.000 C 
ENDBRANCH  17  18
ENDBRANCH  15  17
ENDBRANCH   4  15
TORSDOF 4
ENDMDL
MODEL 8
REMARK VINA RESULT:      -7.8      2.222      8.349
REMARK  Name = 
REMARK  7 active torsions:
REMARK  status: ('A' for Active; 'I' for Inactive)
REMARK    1  A    between atoms: C_1  and  C_2
REMARK    2  A    between atoms: C_5  and  C_6
REMARK    3  A    between atoms: C_7  and  N_8
REMARK    4  A    between atoms: C_11  and  N_12
REMARK    5  A    between atoms: N_12  and  C_13
REMARK    6  A    between atoms: C_13  and  C_14
REMARK    7  A    between atoms: C_24  and  C_25
REMARK                            x       y       z     vdW  Elec       q    Type
REMARK                         _______ _______ _______ _____ _____    ______ ____
ROOT
ATOM      1  N   UNL     1       2.539   6.757  19.409  0.00  0.00    +0.000 N 
ATOM      2  N   UNL     1       1.929   6.616  20.618  0.00  0.00    +0.000 NA
ATOM      3  C   UNL     1       1.280   7.762  20.816  0.00  0.00    +0.000 A 
ATOM      4  C   UNL     1       1.418   8.648  19.740  0.00  0.00    +0.000 A 
ATOM      5  C   UNL     1       2.271   8.015  18.861  0.00  0.00    +0.000 A 
ATOM      6  C   UNL     1       2.707   8.469  17.510  0.00  0.00    +0.000 C 
ENDROOT
BRANCH   1  13
ATOM      7  C   UNL     1       7.021   5.032  18.321  0.00  0.00    +0.000 C 
ATOM      8  C   UNL     1       5.534   4.839  18.254  0.00  0.00    +0.000 A 
ATOM      9  C   UNL     1       4.954   3.907  17.408  0.00  0.00    +0.000 A 
ATOM     10  C   UNL     1       3.562   3.818  17.304  0.00  0.00    +0.000 A 
ATOM     11  C   UNL     1       2.717   4.708  17.999  0.00  0.00    +0.000 A 
ATOM     12  C   UNL     1       1.239   4.604  17.727  0.00  0.00    +0.000 C 
ATOM     13  C   UNL     1       3.308   5.685  18.826  0.00  0.00    +0.000 A 
ATOM     14  C   UNL     1       4.701   5.685  19.001  0.00  0.00    +0.000 A 
ENDBRANCH   1  13
BRANCH   4  15
ATOM     15  N   UNL     1       0.834   9.854  19.516  0.00  0.00    +0.000 N 
ATOM     16  H   UNL     1       1.111  10.345  18.668  0.00  0.00    +0.000 HD
BRANCH  15  17
ATOM     17  C   UNL     1      -0.596  10.044  19.778  0.00  0.00    +0.000 C 
BRANCH  17  18
ATOM     18  C   UNL     1      -1.422  10.310  18.557  0.00  0.00    +0.000 A 
ATOM     19  N   UNL     1      -1.257   9.782  17.361  0.00  0.00    +0.000 NA
ATOM     20  N   UNL     1      -2.295  10.196  16.569  0.00  0.00    +0.000 NA
ATOM     21  C   UNL     1      -3.068  10.985  17.283  0.00  0.00    +0.000 A 
ATOM     22  N   UNL     1      -2.509  11.155  18.522  0.00  0.00    +0.000 N 
ATOM     23  C   UNL     1      -2.807  12.176  19.495  0.00  0.00    +0.000 C 
ATOM     24  C   UNL     1      -4.229  12.451  19.981  0.00  0.00    +0.000 C 
ATOM     25  C   UNL     1      -5.375  12.519  18.983  0.00  0.00    +0.000 C 
ATOM     26  C   UNL     1      -5.418  11.379  17.975  0.00  0.00    +0.000 C 
ATOM     27  C   UNL     1      -4.377  11.541  16.866  0.00  0.00    +0.000 C 
ENDBRANCH  17  18
ENDBRANCH  15  17
ENDBRANCH   4  15
TORSDOF 4
ENDMDL
MODEL 9
REMARK VINA RESULT:      -7.8      1.413      2.036
REMARK  Name = 
REMARK  7 active torsions:
REMARK  status: ('A' for Active; 'I' for Inactive)
REMARK    1  A    between atoms: C_1  and  C_2
REMARK    2  A    between atoms: C_5  and  C_6
REMARK    3  A    between atoms: C_7  and  N_8
REMARK    4  A    between atoms: C_11  and  N_12
REMARK    5  A    between atoms: N_12  and  C_13
REMARK    6  A    between atoms: C_13  and  C_14
REMARK    7  A    between atoms: C_24  and  C_25
REMARK                            x       y       z     vdW  Elec       q    Type
REMARK                         _______ _______ _______ _____ _____    ______ ____
ROOT
ATOM      1  N   UNL     1       0.801   9.693  19.715  0.00  0.00    +0.000 N 
ATOM      2  N   UNL     1       0.360   9.380  20.964  0.00  0.00    +0.000 NA
ATOM      3  C   UNL     1       0.926   8.209  21.250  0.00  0.00    +0.000 A 
ATOM      4  C   UNL     1       1.766   7.756  20.224  0.00  0.00    +0.000 A 
ATOM      5  C   UNL     1       1.641   8.691  19.218  0.00  0.00    +0.000 A 
ATOM      6  C   UNL     1       2.368   8.752  17.919  0.00  0.00    +0.000 C 
ENDROOT
BRANCH   1  13
ATOM      7  C   UNL     1       1.764  14.494  19.202  0.00  0.00    +0.000 C 
ATOM      8  C   UNL     1       0.889  13.329  18.846  0.00  0.00    +0.000 A 
ATOM      9  C   UNL     1      -0.352  13.499  18.250  0.00  0.00    +0.000 A 
ATOM     10  C   UNL     1      -1.179  12.396  18.016  0.00  0.00    +0.000 A 
ATOM     11  C   UNL     1      -0.810  11.101  18.433  0.00  0.00    +0.000 A 
ATOM     12  C   UNL     1      -1.822  10.003  18.238  0.00  0.00    +0.000 C 
ATOM     13  C   UNL     1       0.433  10.933  19.078  0.00  0.00    +0.000 A 
ATOM     14  C   UNL     1       1.295  12.034  19.204  0.00  0.00    +0.000 A 
ENDBRANCH   1  13
BRANCH   4  15
ATOM     15  N   UNL     1       2.590   6.677  20.177  0.00  0.00    +0.000 N 
ATOM     16  H   UNL     1       2.426   5.947  20.868  0.00  0.00    +0.000 HD
BRANCH  15  17
ATOM     17  C   UNL     1       2.967   6.090  18.887  0.00  0.00    +0.000 C 
BRANCH  17  18
ATOM     18  C   UNL     1       4.374   5.578  18.825  0.00  0.00    +0.000 A 
ATOM     19  N   UNL     1       5.047   4.996  19.798  0.00  0.00    +0.000 NA
ATOM     20  N   UNL     1       6.246   4.574  19.287  0.00  0.00    +0.000 NA
ATOM     21  C   UNL     1       6.299   4.919  18.020  0.00  0.00    +0.000 A 
ATOM     22  N   UNL     1       5.173   5.632  17.704  0.00  0.00    +0.000 N 
ATOM     23  C   UNL     1       4.955   6.484  16.562  0.00  0.00    +0.000 C 
ATOM     24  C   UNL     1       5.183   6.005  15.129  0.00  0.00    +0.000 C 
ATOM     25  C   UNL     1       6.427   5.202  14.783  0.00  0.00    +0.000 C 
ATOM     26  C   UNL     1       6.737   4.054  15.735  0.00  0.00    +0.000 C 
ATOM     27  C   UNL     1       7.353   4.537  17.049  0.00  0.00    +0.000 C 
ENDBRANCH  17  18
ENDBRANCH  15  17
ENDBRANCH   4  15
TORSDOF 4
ENDMDL
