MODEL 1
REMARK VINA RESULT:      -9.2      0.000      0.000
REMARK  Name = 
REMARK  5 active torsions:
REMARK  status: ('A' for Active; 'I' for Inactive)
REMARK    1  A    between atoms: C_1  and  C_2
REMARK    2  A    between atoms: C_2  and  C_3
REMARK    3  A    between atoms: C_8  and  C_9
REMARK    4  A    between atoms: N_13  and  C_14
REMARK    5  A    between atoms: C_14  and  C_15
REMARK                            x       y       z     vdW  Elec       q    Type
REMARK                         _______ _______ _______ _____ _____    ______ ____
ROOT
ATOM      1  C   UNL     1       5.914   5.039  16.058  0.00  0.00    +0.000 A 
ATOM      2  C   UNL     1       6.549   4.516  17.173  0.00  0.00    +0.000 A 
ATOM      3  C   UNL     1       6.021   4.772  18.438  0.00  0.00    +0.000 A 
ATOM      4  C   UNL     1       4.866   5.569  18.550  0.00  0.00    +0.000 A 
ATOM      5  N   UNL     1       4.312   5.769  19.794  0.00  0.00    +0.000 N 
ATOM      6  N   UNL     1       4.244   6.057  17.469  0.00  0.00    +0.000 NA
ATOM      7  C   UNL     1       4.771   5.802  16.258  0.00  0.00    +0.000 A 
ATOM      8  H   UNL     1       4.937   5.909  20.562  0.00  0.00    +0.000 HD
ENDROOT
BRANCH   1  14
ATOM      9  C   UNL     1       6.358   3.735  12.675  0.00  0.00    +0.000 A 
ATOM     10  C   UNL     1       7.423   4.406  12.202  0.00  0.00    +0.000 A 
ATOM     11  C   UNL     1       8.090   5.362  13.093  0.00  0.00    +0.000 A 
ATOM     12  O   UNL     1       9.091   5.975  12.747  0.00  0.00    +0.000 OA
ATOM     13  N   UNL     1       7.534   5.493  14.321  0.00  0.00    +0.000 N 
ATOM     14  C   UNL     1       6.428   4.784  14.708  0.00  0.00    +0.000 A 
ATOM     15  N   UNL     1       5.830   3.933  13.926  0.00  0.00    +0.000 NA
ATOM     16  H   UNL     1       8.001   6.148  14.935  0.00  0.00    +0.000 HD
BRANCH   9  18
ATOM     17  C   UNL     1       4.273   3.202  11.323  0.00  0.00    +0.000 C 
ATOM     18  C   UNL     1       5.640   2.729  11.801  0.00  0.00    +0.000 C 
ENDBRANCH   9  18
ENDBRANCH   1  14
BRANCH   5  19
ATOM     19  C   UNL     1       2.895   6.059  19.948  0.00  0.00    +0.000 C 
BRANCH  19  20
ATOM     20  C   UNL     1       2.159   4.744  20.093  0.00  0.00    +0.000 A 
ATOM     21  C   UNL     1       2.096   4.086  21.330  0.00  0.00    +0.000 A 
ATOM     22  C   UNL     1       1.424   2.870  21.446  0.00  0.00    +0.000 A 
ATOM     23  F   UNL     1       1.375   2.259  22.636  0.00  0.00    +0.000 F 
ATOM     24  C   UNL     1       0.811   2.282  20.349  0.00  0.00    +0.000 A 
ATOM     25  C   UNL     1       0.876   2.927  19.123  0.00  0.00    +0.000 A 
ATOM     26  F   UNL     1       0.296   2.368  18.053  0.00  0.00    +0.000 F 
ATOM     27  C   UNL     1       1.538   4.146  18.982  0.00  0.00    +0.000 A 
ENDBRANCH  19  20
ENDBRANCH   5  19
TORSDOF 4
ENDMDL
MODEL 2
REMARK VINA RESULT:      -8.9      0.369      1.749
REMARK  Name = 
REMARK  5 active torsions:
REMARK  status: ('A' for Active; 'I' for Inactive)
REMARK    1  A    between atoms: C_1  and  C_2
REMARK    2  A    between atoms: C_2  and  C_3
REMARK    3  A    between atoms: C_8  and  C_9
REMARK    4  A    between atoms: N_13  and  C_14
REMARK    5  A    between atoms: C_14  and  C_15
REMARK                            x       y       z     vdW  Elec       q    Type
REMARK                         _______ _______ _______ _____ _____    ______ ____
ROOT
ATOM      1  C   UNL     1       5.955   4.981  15.951  0.00  0.00    +0.000 A 
ATOM      2  C   UNL     1       6.597   4.443  17.054  0.00  0.00    +0.000 A 
ATOM      3  C   UNL     1       6.091   4.699  18.328  0.00  0.00    +0.000 A 
ATOM      4  C   UNL     1       4.950   5.513  18.461  0.00  0.00    +0.000 A 
ATOM      5  N   UNL     1       4.417   5.715  19.713  0.00  0.00    +0.000 N 
ATOM      6  N   UNL     1       4.320   6.017  17.391  0.00  0.00    +0.000 NA
ATOM      7  C   UNL     1       4.826   5.760  16.171  0.00  0.00    +0.000 A 
ATOM      8  H   UNL     1       5.054   5.842  20.473  0.00  0.00    +0.000 HD
ENDROOT
BRANCH   1  14
ATOM      9  C   UNL     1       6.390   3.617  12.591  0.00  0.00    +0.000 A 
ATOM     10  C   UNL     1       7.391   4.349  12.067  0.00  0.00    +0.000 A 
ATOM     11  C   UNL     1       8.013   5.374  12.911  0.00  0.00    +0.000 A 
ATOM     12  O   UNL     1       8.957   6.047  12.519  0.00  0.00    +0.000 OA
ATOM     13  N   UNL     1       7.485   5.500  14.153  0.00  0.00    +0.000 N 
ATOM     14  C   UNL     1       6.446   4.726  14.593  0.00  0.00    +0.000 A 
ATOM     15  N   UNL     1       5.887   3.812  13.852  0.00  0.00    +0.000 NA
ATOM     16  H   UNL     1       7.923   6.203  14.735  0.00  0.00    +0.000 HD
BRANCH   9  18
ATOM     17  C   UNL     1       6.701   1.570  11.118  0.00  0.00    +0.000 C 
ATOM     18  C   UNL     1       5.721   2.539  11.766  0.00  0.00    +0.000 C 
ENDBRANCH   9  18
ENDBRANCH   1  14
BRANCH   5  19
ATOM     19  C   UNL     1       3.006   6.026  19.888  0.00  0.00    +0.000 C 
BRANCH  19  20
ATOM     20  C   UNL     1       2.253   4.721  20.041  0.00  0.00    +0.000 A 
ATOM     21  C   UNL     1       1.631   4.115  18.941  0.00  0.00    +0.000 A 
ATOM     22  C   UNL     1       0.931   2.920  19.100  0.00  0.00    +0.000 A 
ATOM     23  F   UNL     1       0.344   2.358  18.036  0.00  0.00    +0.000 F 
ATOM     24  C   UNL     1       0.829   2.307  20.341  0.00  0.00    +0.000 A 
ATOM     25  C   UNL     1       1.440   2.906  21.432  0.00  0.00    +0.000 A 
ATOM     26  F   UNL     1       1.344   2.332  22.638  0.00  0.00    +0.000 F 
ATOM     27  C   UNL     1       2.148   4.100  21.299  0.00  0.00    +0.000 A 
ENDBRANCH  19  20
ENDBRANCH   5  19
TORSDOF 4
ENDMDL
MODEL 3
REMARK VINA RESULT:      -8.4      2.519      3.228
REMARK  Name = 
REMARK  5 active torsions:
REMARK  status: ('A' for Active; 'I' for Inactive)
REMARK    1  A    between atoms: C_1  and  C_2
REMARK    2  A    between atoms: C_2  and  C_3
REMARK    3  A    between atoms: C_8  and  C_9
REMARK    4  A    between atoms: N_13  and  C_14
REMARK    5  A    between atoms: C_14  and  C_15
REMARK                            x       y       z     vdW  Elec       q    Type
REMARK                         _______ _______ _______ _____ _____    ______ ____
ROOT
ATOM      1  C   UNL     1       5.794   4.996  16.118  0.00  0.00    +0.000 A 
ATOM      2  C   UNL     1       6.557   4.805  17.258  0.00  0.00    +0.000 A 
ATOM      3  C   UNL     1       5.980   5.030  18.508  0.00  0.00    +0.000 A 
ATOM      4  C   UNL     1       4.642   5.463  18.576  0.00  0.00    +0.000 A 
ATOM      5  N   UNL     1       4.056   5.627  19.811  0.00  0.00    +0.000 N 
ATOM      6  N   UNL     1       3.902   5.630  17.472  0.00  0.00    +0.000 NA
ATOM      7  C   UNL     1       4.478   5.410  16.277  0.00  0.00    +0.000 A 
ATOM      8  H   UNL     1       4.614   6.025  20.539  0.00  0.00    +0.000 HD
ENDROOT
BRANCH   1  14
ATOM      9  C   UNL     1       6.368   3.726  12.741  0.00  0.00    +0.000 A 
ATOM     10  C   UNL     1       7.443   4.411  12.312  0.00  0.00    +0.000 A 
ATOM     11  C   UNL     1       8.068   5.365  13.233  0.00  0.00    +0.000 A 
ATOM     12  O   UNL     1       9.075   5.990  12.928  0.00  0.00    +0.000 OA
ATOM     13  N   UNL     1       7.469   5.481  14.442  0.00  0.00    +0.000 N 
ATOM     14  C   UNL     1       6.358   4.758  14.784  0.00  0.00    +0.000 A 
ATOM     15  N   UNL     1       5.795   3.908  13.975  0.00  0.00    +0.000 NA
ATOM     16  H   UNL     1       7.908   6.134  15.078  0.00  0.00    +0.000 HD
BRANCH   9  18
ATOM     17  C   UNL     1       4.319   3.167  11.346  0.00  0.00    +0.000 C 
ATOM     18  C   UNL     1       5.691   2.720  11.834  0.00  0.00    +0.000 C 
ENDBRANCH   9  18
ENDBRANCH   1  14
BRANCH   5  19
ATOM     19  C   UNL     1       2.617   5.506  19.982  0.00  0.00    +0.000 C 
BRANCH  19  20
ATOM     20  C   UNL     1       2.030   6.901  20.023  0.00  0.00    +0.000 A 
ATOM     21  C   UNL     1       1.330   7.355  21.150  0.00  0.00    +0.000 A 
ATOM     22  C   UNL     1       0.786   8.639  21.169  0.00  0.00    +0.000 A 
ATOM     23  F   UNL     1       0.121   9.053  22.255  0.00  0.00    +0.000 F 
ATOM     24  C   UNL     1       0.916   9.490  20.081  0.00  0.00    +0.000 A 
ATOM     25  C   UNL     1       1.604   9.042  18.963  0.00  0.00    +0.000 A 
ATOM     26  F   UNL     1       1.732   9.849  17.902  0.00  0.00    +0.000 F 
ATOM     27  C   UNL     1       2.161   7.764  18.921  0.00  0.00    +0.000 A 
ENDBRANCH  19  20
ENDBRANCH   5  19
TORSDOF 4
ENDMDL
MODEL 4
REMARK VINA RESULT:      -8.3      2.508      3.549
REMARK  Name = 
REMARK  5 active torsions:
REMARK  status: ('A' for Active; 'I' for Inactive)
REMARK    1  A    between atoms: C_1  and  C_2
REMARK    2  A    between atoms: C_2  and  C_3
REMARK    3  A    between atoms: C_8  and  C_9
REMARK    4  A    between atoms: N_13  and  C_14
REMARK    5  A    between atoms: C_14  and  C_15
REMARK                            x       y       z     vdW  Elec       q    Type
REMARK                         _______ _______ _______ _____ _____    ______ ____
ROOT
ATOM      1  C   UNL     1       5.790   4.979  16.114  0.00  0.00    +0.000 A 
ATOM      2  C   UNL     1       6.555   4.777  17.251  0.00  0.00    +0.000 A 
ATOM      3  C   UNL     1       5.982   4.996  18.503  0.00  0.00    +0.000 A 
ATOM      4  C   UNL     1       4.646   5.433  18.578  0.00  0.00    +0.000 A 
ATOM      5  N   UNL     1       4.064   5.590  19.815  0.00  0.00    +0.000 N 
ATOM      6  N   UNL     1       3.904   5.610  17.477  0.00  0.00    +0.000 NA
ATOM      7  C   UNL     1       4.476   5.396  16.279  0.00  0.00    +0.000 A 
ATOM      8  H   UNL     1       4.625   5.981  20.545  0.00  0.00    +0.000 HD
ENDROOT
BRANCH   1  14
ATOM      9  C   UNL     1       6.361   3.717  12.734  0.00  0.00    +0.000 A 
ATOM     10  C   UNL     1       7.426   4.416  12.298  0.00  0.00    +0.000 A 
ATOM     11  C   UNL     1       8.044   5.378  13.217  0.00  0.00    +0.000 A 
ATOM     12  O   UNL     1       9.041   6.016  12.906  0.00  0.00    +0.000 OA
ATOM     13  N   UNL     1       7.449   5.485  14.429  0.00  0.00    +0.000 N 
ATOM     14  C   UNL     1       6.349   4.749  14.777  0.00  0.00    +0.000 A 
ATOM     15  N   UNL     1       5.793   3.892  13.971  0.00  0.00    +0.000 NA
ATOM     16  H   UNL     1       7.884   6.144  15.062  0.00  0.00    +0.000 HD
BRANCH   9  18
ATOM     17  C   UNL     1       4.330   3.152  11.315  0.00  0.00    +0.000 C 
ATOM     18  C   UNL     1       5.692   2.704  11.830  0.00  0.00    +0.000 C 
ENDBRANCH   9  18
ENDBRANCH   1  14
BRANCH   5  19
ATOM     19  C   UNL     1       2.625   5.473  19.989  0.00  0.00    +0.000 C 
BRANCH  19  20
ATOM     20  C   UNL     1       2.038   6.869  20.000  0.00  0.00    +0.000 A 
ATOM     21  C   UNL     1       2.181   7.719  18.895  0.00  0.00    +0.000 A 
ATOM     22  C   UNL     1       1.645   9.006  18.924  0.00  0.00    +0.000 A 
ATOM     23  F   UNL     1       1.793   9.802  17.858  0.00  0.00    +0.000 F 
ATOM     24  C   UNL     1       0.967   9.476  20.040  0.00  0.00    +0.000 A 
ATOM     25  C   UNL     1       0.828   8.638  21.137  0.00  0.00    +0.000 A 
ATOM     26  F   UNL     1       0.183   9.080  22.225  0.00  0.00    +0.000 F 
ATOM     27  C   UNL     1       1.352   7.346  21.131  0.00  0.00    +0.000 A 
ENDBRANCH  19  20
ENDBRANCH   5  19
TORSDOF 4
ENDMDL
MODEL 5
REMARK VINA RESULT:      -8.3      1.464      2.043
REMARK  Name = 
REMARK  5 active torsions:
REMARK  status: ('A' for Active; 'I' for Inactive)
REMARK    1  A    between atoms: C_1  and  C_2
REMARK    2  A    between atoms: C_2  and  C_3
REMARK    3  A    between atoms: C_8  and  C_9
REMARK    4  A    between atoms: N_13  and  C_14
REMARK    5  A    between atoms: C_14  and  C_15
REMARK                            x       y       z     vdW  Elec       q    Type
REMARK                         _______ _______ _______ _____ _____    ______ ____
ROOT
ATOM      1  C   UNL     1       6.381   4.308  15.887  0.00  0.00    +0.000 A 
ATOM      2  C   UNL     1       7.224   4.863  16.836  0.00  0.00    +0.000 A 
ATOM      3  C   UNL     1       6.899   4.743  18.187  0.00  0.00    +0.000 A 
ATOM      4  C   UNL     1       5.713   4.076  18.550  0.00  0.00    +0.000 A 
ATOM      5  N   UNL     1       5.426   3.907  19.884  0.00  0.00    +0.000 N 
ATOM      6  N   UNL     1       4.910   3.525  17.630  0.00  0.00    +0.000 NA
ATOM      7  C   UNL     1       5.240   3.653  16.333  0.00  0.00    +0.000 A 
ATOM      8  H   UNL     1       5.629   4.666  20.502  0.00  0.00    +0.000 HD
ENDROOT
BRANCH   1  14
ATOM      9  C   UNL     1       6.405   3.770  12.274  0.00  0.00    +0.000 A 
ATOM     10  C   UNL     1       7.298   4.666  11.815  0.00  0.00    +0.000 A 
ATOM     11  C   UNL     1       7.991   5.513  12.791  0.00  0.00    +0.000 A 
ATOM     12  O   UNL     1       8.849   6.318  12.451  0.00  0.00    +0.000 OA
ATOM     13  N   UNL     1       7.634   5.320  14.083  0.00  0.00    +0.000 N 
ATOM     14  C   UNL     1       6.692   4.399  14.456  0.00  0.00    +0.000 A 
ATOM     15  N   UNL     1       6.071   3.641  13.599  0.00  0.00    +0.000 NA
ATOM     16  H   UNL     1       8.120   5.901  14.754  0.00  0.00    +0.000 HD
BRANCH   9  18
ATOM     17  C   UNL     1       4.168   3.116  11.262  0.00  0.00    +0.000 C 
ATOM     18  C   UNL     1       5.669   2.863  11.311  0.00  0.00    +0.000 C 
ENDBRANCH   9  18
ENDBRANCH   1  14
BRANCH   5  19
ATOM     19  C   UNL     1       4.597   2.802  20.340  0.00  0.00    +0.000 C 
BRANCH  19  20
ATOM     20  C   UNL     1       3.146   3.204  20.177  0.00  0.00    +0.000 A 
ATOM     21  C   UNL     1       2.243   2.381  19.489  0.00  0.00    +0.000 A 
ATOM     22  C   UNL     1       0.913   2.771  19.337  0.00  0.00    +0.000 A 
ATOM     23  F   UNL     1       0.067   1.970  18.676  0.00  0.00    +0.000 F 
ATOM     24  C   UNL     1       0.454   3.974  19.853  0.00  0.00    +0.000 A 
ATOM     25  C   UNL     1       1.346   4.792  20.531  0.00  0.00    +0.000 A 
ATOM     26  F   UNL     1       0.920   5.961  21.028  0.00  0.00    +0.000 F 
ATOM     27  C   UNL     1       2.680   4.424  20.699  0.00  0.00    +0.000 A 
ENDBRANCH  19  20
ENDBRANCH   5  19
TORSDOF 4
ENDMDL
MODEL 6
REMARK VINA RESULT:      -8.3      1.460      1.671
REMARK  Name = 
REMARK  5 active torsions:
REMARK  status: ('A' for Active; 'I' for Inactive)
REMARK    1  A    between atoms: C_1  and  C_2
REMARK    2  A    between atoms: C_2  and  C_3
REMARK    3  A    between atoms: C_8  and  C_9
REMARK    4  A    between atoms: N_13  and  C_14
REMARK    5  A    between atoms: C_14  and  C_15
REMARK                            x       y       z     vdW  Elec       q    Type
REMARK                         _______ _______ _______ _____ _____    ______ ____
ROOT
ATOM      1  C   UNL     1       6.362   4.282  15.921  0.00  0.00    +0.000 A 
ATOM      2  C   UNL     1       7.221   4.828  16.861  0.00  0.00    +0.000 A 
ATOM      3  C   UNL     1       6.904   4.719  18.215  0.00  0.00    +0.000 A 
ATOM      4  C   UNL     1       5.711   4.072  18.590  0.00  0.00    +0.000 A 
ATOM      5  N   UNL     1       5.431   3.912  19.927  0.00  0.00    +0.000 N 
ATOM      6  N   UNL     1       4.892   3.530  17.678  0.00  0.00    +0.000 NA
ATOM      7  C   UNL     1       5.214   3.648  16.378  0.00  0.00    +0.000 A 
ATOM      8  H   UNL     1       5.651   4.671  20.540  0.00  0.00    +0.000 HD
ENDROOT
BRANCH   1  14
ATOM      9  C   UNL     1       6.372   3.708  12.313  0.00  0.00    +0.000 A 
ATOM     10  C   UNL     1       7.250   4.611  11.840  0.00  0.00    +0.000 A 
ATOM     11  C   UNL     1       7.937   5.478  12.803  0.00  0.00    +0.000 A 
ATOM     12  O   UNL     1       8.781   6.291  12.450  0.00  0.00    +0.000 OA
ATOM     13  N   UNL     1       7.589   5.293  14.099  0.00  0.00    +0.000 N 
ATOM     14  C   UNL     1       6.663   4.363  14.487  0.00  0.00    +0.000 A 
ATOM     15  N   UNL     1       6.048   3.588  13.642  0.00  0.00    +0.000 NA
ATOM     16  H   UNL     1       8.072   5.888  14.761  0.00  0.00    +0.000 HD
BRANCH   9  18
ATOM     17  C   UNL     1       4.169   3.121  11.191  0.00  0.00    +0.000 C 
ATOM     18  C   UNL     1       5.643   2.781  11.364  0.00  0.00    +0.000 C 
ENDBRANCH   9  18
ENDBRANCH   1  14
BRANCH   5  19
ATOM     19  C   UNL     1       4.587   2.823  20.394  0.00  0.00    +0.000 C 
BRANCH  19  20
ATOM     20  C   UNL     1       3.142   3.226  20.190  0.00  0.00    +0.000 A 
ATOM     21  C   UNL     1       2.654   4.438  20.700  0.00  0.00    +0.000 A 
ATOM     22  C   UNL     1       1.318   4.790  20.514  0.00  0.00    +0.000 A 
ATOM     23  F   UNL     1       0.872   5.952  21.008  0.00  0.00    +0.000 F 
ATOM     24  C   UNL     1       0.444   3.956  19.832  0.00  0.00    +0.000 A 
ATOM     25  C   UNL     1       0.922   2.755  19.330  0.00  0.00    +0.000 A 
ATOM     26  F   UNL     1       0.089   1.936  18.676  0.00  0.00    +0.000 F 
ATOM     27  C   UNL     1       2.255   2.382  19.500  0.00  0.00    +0.000 A 
ENDBRANCH  19  20
ENDBRANCH   5  19
TORSDOF 4
ENDMDL
MODEL 7
REMARK VINA RESULT:      -8.1      6.423      8.717
REMARK  Name = 
REMARK  5 active torsions:
REMARK  status: ('A' for Active; 'I' for Inactive)
REMARK    1  A    between atoms: C_1  and  C_2
REMARK    2  A    between atoms: C_2  and  C_3
REMARK    3  A    between atoms: C_8  and  C_9
REMARK    4  A    between atoms: N_13  and  C_14
REMARK    5  A    between atoms: C_14  and  C_15
REMARK                            x       y       z     vdW  Elec       q    Type
REMARK                         _______ _______ _______ _____ _____    ______ ____
ROOT
ATOM      1  C   UNL     1       5.944   5.500  18.542  0.00  0.00    +0.000 A 
ATOM      2  C   UNL     1       7.180   5.515  19.169  0.00  0.00    +0.000 A 
ATOM      3  C   UNL     1       8.050   6.579  18.929  0.00  0.00    +0.000 A 
ATOM      4  C   UNL     1       7.656   7.601  18.044  0.00  0.00    +0.000 A 
ATOM      5  N   UNL     1       8.490   8.679  17.857  0.00  0.00    +0.000 N 
ATOM      6  N   UNL     1       6.454   7.591  17.455  0.00  0.00    +0.000 NA
ATOM      7  C   UNL     1       5.630   6.556  17.696  0.00  0.00    +0.000 A 
ATOM      8  H   UNL     1       9.473   8.501  17.806  0.00  0.00    +0.000 HD
ENDROOT
BRANCH   1  14
ATOM      9  C   UNL     1       2.936   3.429  18.561  0.00  0.00    +0.000 A 
ATOM     10  C   UNL     1       3.309   2.314  19.216  0.00  0.00    +0.000 A 
ATOM     11  C   UNL     1       4.678   2.244  19.737  0.00  0.00    +0.000 A 
ATOM     12  O   UNL     1       5.074   1.282  20.381  0.00  0.00    +0.000 OA
ATOM     13  N   UNL     1       5.453   3.324  19.475  0.00  0.00    +0.000 N 
ATOM     14  C   UNL     1       4.994   4.407  18.776  0.00  0.00    +0.000 A 
ATOM     15  N   UNL     1       3.781   4.481  18.310  0.00  0.00    +0.000 NA
ATOM     16  H   UNL     1       6.395   3.275  19.843  0.00  0.00    +0.000 HD
BRANCH   9  18
ATOM     17  C   UNL     1       0.508   2.704  18.750  0.00  0.00    +0.000 C 
ATOM     18  C   UNL     1       1.531   3.557  18.012  0.00  0.00    +0.000 C 
ENDBRANCH   9  18
ENDBRANCH   1  14
BRANCH   5  19
ATOM     19  C   UNL     1       7.965   9.975  17.456  0.00  0.00    +0.000 C 
BRANCH  19  20
ATOM     20  C   UNL     1       8.836  11.047  18.077  0.00  0.00    +0.000 A 
ATOM     21  C   UNL     1       9.694  10.749  19.145  0.00  0.00    +0.000 A 
ATOM     22  C   UNL     1      10.481  11.750  19.714  0.00  0.00    +0.000 A 
ATOM     23  F   UNL     1      11.294  11.445  20.733  0.00  0.00    +0.000 F 
ATOM     24  C   UNL     1      10.432  13.055  19.245  0.00  0.00    +0.000 A 
ATOM     25  C   UNL     1       9.581  13.353  18.191  0.00  0.00    +0.000 A 
ATOM     26  F   UNL     1       9.516  14.610  17.733  0.00  0.00    +0.000 F 
ATOM     27  C   UNL     1       8.786  12.370  17.604  0.00  0.00    +0.000 A 
ENDBRANCH  19  20
ENDBRANCH   5  19
TORSDOF 4
ENDMDL
MODEL 8
REMARK VINA RESULT:      -8.1      5.451      7.433
REMARK  Name = 
REMARK  5 active torsions:
REMARK  status: ('A' for Active; 'I' for Inactive)
REMARK    1  A    between atoms: C_1  and  C_2
REMARK    2  A    between atoms: C_2  and  C_3
REMARK    3  A    between atoms: C_8  and  C_9
REMARK    4  A    between atoms: N_13  and  C_14
REMARK    5  A    between atoms: C_14  and  C_15
REMARK                            x       y       z     vdW  Elec       q    Type
REMARK                         _______ _______ _______ _____ _____    ______ ____
ROOT
ATOM      1  C   UNL     1       2.335   6.963  19.513  0.00  0.00    +0.000 A 
ATOM      2  C   UNL     1       1.562   7.220  20.634  0.00  0.00    +0.000 A 
ATOM      3  C   UNL     1       0.941   8.462  20.762  0.00  0.00    +0.000 A 
ATOM      4  C   UNL     1       1.129   9.429  19.756  0.00  0.00    +0.000 A 
ATOM      5  N   UNL     1       0.467  10.631  19.854  0.00  0.00    +0.000 N 
ATOM      6  N   UNL     1       1.863   9.171  18.665  0.00  0.00    +0.000 NA
ATOM      7  C   UNL     1       2.455   7.968  18.562  0.00  0.00    +0.000 A 
ATOM      8  H   UNL     1       0.394  11.046  20.761  0.00  0.00    +0.000 HD
ENDROOT
BRANCH   1  14
ATOM      9  C   UNL     1       2.962   3.405  18.975  0.00  0.00    +0.000 A 
ATOM     10  C   UNL     1       4.303   3.307  18.961  0.00  0.00    +0.000 A 
ATOM     11  C   UNL     1       5.088   4.526  19.185  0.00  0.00    +0.000 A 
ATOM     12  O   UNL     1       6.311   4.505  19.231  0.00  0.00    +0.000 OA
ATOM     13  N   UNL     1       4.364   5.657  19.360  0.00  0.00    +0.000 N 
ATOM     14  C   UNL     1       2.995   5.666  19.332  0.00  0.00    +0.000 A 
ATOM     15  N   UNL     1       2.289   4.590  19.136  0.00  0.00    +0.000 NA
ATOM     16  H   UNL     1       4.909   6.494  19.522  0.00  0.00    +0.000 HD
BRANCH   9  18
ATOM     17  C   UNL     1       0.609   2.452  18.856  0.00  0.00    +0.000 C 
ATOM     18  C   UNL     1       2.104   2.176  18.760  0.00  0.00    +0.000 C 
ENDBRANCH   9  18
ENDBRANCH   1  14
BRANCH   5  19
ATOM     19  C   UNL     1       0.146  11.411  18.669  0.00  0.00    +0.000 C 
BRANCH  19  20
ATOM     20  C   UNL     1      -1.302  11.150  18.313  0.00  0.00    +0.000 A 
ATOM     21  C   UNL     1      -2.341  11.805  18.990  0.00  0.00    +0.000 A 
ATOM     22  C   UNL     1      -3.669  11.545  18.658  0.00  0.00    +0.000 A 
ATOM     23  F   UNL     1      -4.646  12.182  19.316  0.00  0.00    +0.000 F 
ATOM     24  C   UNL     1      -3.996  10.635  17.662  0.00  0.00    +0.000 A 
ATOM     25  C   UNL     1      -2.971   9.982  16.994  0.00  0.00    +0.000 A 
ATOM     26  F   UNL     1      -3.270   9.095  16.036  0.00  0.00    +0.000 F 
ATOM     27  C   UNL     1      -1.634  10.227  17.305  0.00  0.00    +0.000 A 
ENDBRANCH  19  20
ENDBRANCH   5  19
TORSDOF 4
ENDMDL
MODEL 9
REMARK VINA RESULT:      -8.1      5.497      7.694
REMARK  Name = 
REMARK  5 active torsions:
REMARK  status: ('A' for Active; 'I' for Inactive)
REMARK    1  A    between atoms: C_1  and  C_2
REMARK    2  A    between atoms: C_2  and  C_3
REMARK    3  A    between atoms: C_8  and  C_9
REMARK    4  A    between atoms: N_13  and  C_14
REMARK    5  A    between atoms: C_14  and  C_15
REMARK                            x       y       z     vdW  Elec       q    Type
REMARK                         _______ _______ _______ _____ _____    ______ ____
ROOT
ATOM      1  C   UNL     1       2.232   7.036  19.691  0.00  0.00    +0.000 A 
ATOM      2  C   UNL     1       1.471   7.362  20.802  0.00  0.00    +0.000 A 
ATOM      3  C   UNL     1       0.870   8.619  20.869  0.00  0.00    +0.000 A 
ATOM      4  C   UNL     1       1.065   9.529  19.813  0.00  0.00    +0.000 A 
ATOM      5  N   UNL     1       0.422  10.745  19.852  0.00  0.00    +0.000 N 
ATOM      6  N   UNL     1       1.786   9.203  18.732  0.00  0.00    +0.000 NA
ATOM      7  C   UNL     1       2.360   7.988  18.687  0.00  0.00    +0.000 A 
ATOM      8  H   UNL     1       0.362  11.208  20.737  0.00  0.00    +0.000 HD
ENDROOT
BRANCH   1  14
ATOM      9  C   UNL     1       2.810   3.433  19.521  0.00  0.00    +0.000 A 
ATOM     10  C   UNL     1       4.133   3.324  19.301  0.00  0.00    +0.000 A 
ATOM     11  C   UNL     1       4.927   4.555  19.235  0.00  0.00    +0.000 A 
ATOM     12  O   UNL     1       6.142   4.531  19.084  0.00  0.00    +0.000 OA
ATOM     13  N   UNL     1       4.226   5.705  19.379  0.00  0.00    +0.000 N 
ATOM     14  C   UNL     1       2.871   5.721  19.574  0.00  0.00    +0.000 A 
ATOM     15  N   UNL     1       2.156   4.635  19.635  0.00  0.00    +0.000 NA
ATOM     16  H   UNL     1       4.779   6.552  19.341  0.00  0.00    +0.000 HD
BRANCH   9  18
ATOM     17  C   UNL     1       0.689   2.265  18.750  0.00  0.00    +0.000 C 
ATOM     18  C   UNL     1       1.945   2.194  19.608  0.00  0.00    +0.000 C 
ENDBRANCH   9  18
ENDBRANCH   1  14
BRANCH   5  19
ATOM     19  C   UNL     1       0.103  11.467  18.631  0.00  0.00    +0.000 C 
BRANCH  19  20
ATOM     20  C   UNL     1      -1.340  11.178  18.277  0.00  0.00    +0.000 A 
ATOM     21  C   UNL     1      -1.665  10.252  17.275  0.00  0.00    +0.000 A 
ATOM     22  C   UNL     1      -2.999  10.005  16.953  0.00  0.00    +0.000 A 
ATOM     23  F   UNL     1      -3.288   9.117  15.994  0.00  0.00    +0.000 F 
ATOM     24  C   UNL     1      -4.029  10.667  17.605  0.00  0.00    +0.000 A 
ATOM     25  C   UNL     1      -3.711  11.587  18.593  0.00  0.00    +0.000 A 
ATOM     26  F   UNL     1      -4.694  12.241  19.226  0.00  0.00    +0.000 F 
ATOM     27  C   UNL     1      -2.385  11.849  18.936  0.00  0.00    +0.000 A 
ENDBRANCH  19  20
ENDBRANCH   5  19
TORSDOF 4
ENDMDL
