MODEL 1
REMARK VINA RESULT:      -9.2      0.000      0.000
REMARK  Name = 
REMARK  7 active torsions:
REMARK  status: ('A' for Active; 'I' for Inactive)
REMARK    1  A    between atoms: C_2  and  C_3
REMARK    2  A    between atoms: C_2  and  C_10
REMARK    3  A    between atoms: C_3  and  C_4
REMARK    4  A    between atoms: N_8  and  C_9
REMARK    5  A    between atoms: C_14  and  N_15
REMARK    6  A    between atoms: C_20  and  N_21
REMARK    7  A    between atoms: C_26  and  C_27
REMARK                            x       y       z     vdW  Elec       q    Type
REMARK                         _______ _______ _______ _____ _____    ______ ____
ROOT
ATOM      1  N   UNL     1       2.573   7.946  19.295  0.00  0.00    +0.000 N 
ATOM      2  C   UNL     1       2.178   8.706  20.505  0.00  0.00    +0.000 C 
ATOM      3  C   UNL     1       0.924   9.387  20.055  0.00  0.00    +0.000 A 
ATOM      4  C   UNL     1       0.994   9.531  18.667  0.00  0.00    +0.000 A 
ATOM      5  C   UNL     1      -0.047  10.022  17.902  0.00  0.00    +0.000 A 
ATOM      6  C   UNL     1      -1.235  10.374  18.554  0.00  0.00    +0.000 A 
ATOM      7  C   UNL     1      -1.306  10.227  19.962  0.00  0.00    +0.000 A 
ATOM      8  C   UNL     1      -0.242   9.711  20.735  0.00  0.00    +0.000 A 
ATOM      9  C   UNL     1       2.143   8.726  18.186  0.00  0.00    +0.000 C 
ATOM     10  O   UNL     1       2.476   8.624  17.020  0.00  0.00    +0.000 OA
ENDROOT
BRANCH   1  15
ATOM     11  C   UNL     1       2.601   4.317  18.749  0.00  0.00    +0.000 A 
ATOM     12  C   UNL     1       2.279   3.905  20.047  0.00  0.00    +0.000 A 
ATOM     13  C   UNL     1       1.683   4.793  20.936  0.00  0.00    +0.000 A 
ATOM     14  C   UNL     1       1.508   6.123  20.569  0.00  0.00    +0.000 A 
ATOM     15  C   UNL     1       2.050   6.591  19.362  0.00  0.00    +0.000 A 
ATOM     16  C   UNL     1       2.473   5.665  18.401  0.00  0.00    +0.000 A 
BRANCH  11  18
ATOM     17  C   UNL     1       2.777   2.056  17.862  0.00  0.00    +0.000 C 
ATOM     18  C   UNL     1       3.160   3.342  17.805  0.00  0.00    +0.000 C 
BRANCH  18  19
ATOM     19  C   UNL     1       4.118   3.888  16.768  0.00  0.00    +0.000 C 
BRANCH  19  20
ATOM     20  C   UNL     1       5.484   4.190  17.294  0.00  0.00    +0.000 A 
ATOM     21  N   UNL     1       5.827   4.260  18.567  0.00  0.00    +0.000 NA
ATOM     22  N   UNL     1       7.178   4.495  18.639  0.00  0.00    +0.000 NA
ATOM     23  C   UNL     1       7.629   4.579  17.412  0.00  0.00    +0.000 A 
ATOM     24  N   UNL     1       6.603   4.408  16.535  0.00  0.00    +0.000 N 
ATOM     25  C   UNL     1       6.700   4.466  15.101  0.00  0.00    +0.000 C 
ENDBRANCH  19  20
ENDBRANCH  18  19
ENDBRANCH  11  18
ENDBRANCH   1  15
BRANCH   6  26
ATOM     26  N   UNL     1      -2.345  10.882  17.845  0.00  0.00    +0.000 N 
ATOM     27  C   UNL     1      -3.486  10.145  17.350  0.00  0.00    +0.000 C 
ATOM     28  C   UNL     1      -3.586  11.234  16.266  0.00  0.00    +0.000 C 
ATOM     29  N   UNL     1      -2.187  11.527  16.603  0.00  0.00    +0.000 NA
ATOM     30  H   UNL     1      -1.984  12.520  16.740  0.00  0.00    +0.000 HD
ENDBRANCH   6  26
BRANCH   8  31
ATOM     31  C   UNL     1      -0.469   9.453  22.201  0.00  0.00    +0.000 C 
ATOM     32  F   UNL     1      -0.962   8.217  22.483  0.00  0.00    +0.000 F 
ATOM     33  F   UNL     1       0.677   9.566  22.927  0.00  0.00    +0.000 F 
ATOM     34  F   UNL     1      -1.347  10.336  22.751  0.00  0.00    +0.000 F 
ENDBRANCH   8  31
TORSDOF 6
ENDMDL
MODEL 2
REMARK VINA RESULT:      -9.1      4.595      7.564
REMARK  Name = 
REMARK  7 active torsions:
REMARK  status: ('A' for Active; 'I' for Inactive)
REMARK    1  A    between atoms: C_2  and  C_3
REMARK    2  A    between atoms: C_2  and  C_10
REMARK    3  A    between atoms: C_3  and  C_4
REMARK    4  A    between atoms: N_8  and  C_9
REMARK    5  A    between atoms: C_14  and  N_15
REMARK    6  A    between atoms: C_20  and  N_21
REMARK    7  A    between atoms: C_26  and  C_27
REMARK                            x       y       z     vdW  Elec       q    Type
REMARK                         _______ _______ _______ _____ _____    ______ ____
ROOT
ATOM      1  N   UNL     1       6.063   5.414  15.799  0.00  0.00    +0.000 N 
ATOM      2  C   UNL     1       4.941   6.380  15.888  0.00  0.00    +0.000 C 
ATOM      3  C   UNL     1       4.057   5.743  16.913  0.00  0.00    +0.000 A 
ATOM      4  C   UNL     1       4.293   4.367  16.882  0.00  0.00    +0.000 A 
ATOM      5  C   UNL     1       3.725   3.479  17.776  0.00  0.00    +0.000 A 
ATOM      6  C   UNL     1       2.886   3.993  18.772  0.00  0.00    +0.000 A 
ATOM      7  C   UNL     1       2.647   5.389  18.804  0.00  0.00    +0.000 A 
ATOM      8  C   UNL     1       3.242   6.292  17.894  0.00  0.00    +0.000 A 
ATOM      9  C   UNL     1       5.495   4.133  16.045  0.00  0.00    +0.000 C 
ATOM     10  O   UNL     1       5.980   3.039  15.822  0.00  0.00    +0.000 OA
ENDROOT
BRANCH   1  15
ATOM     11  C   UNL     1       7.935   7.713  17.962  0.00  0.00    +0.000 A 
ATOM     12  C   UNL     1       8.075   6.884  19.081  0.00  0.00    +0.000 A 
ATOM     13  C   UNL     1       7.917   5.508  18.958  0.00  0.00    +0.000 A 
ATOM     14  C   UNL     1       7.513   4.966  17.742  0.00  0.00    +0.000 A 
ATOM     15  C   UNL     1       7.140   5.815  16.689  0.00  0.00    +0.000 A 
ATOM     16  C   UNL     1       7.478   7.172  16.755  0.00  0.00    +0.000 A 
BRANCH  11  18
ATOM     17  C   UNL     1       7.450  10.030  17.391  0.00  0.00    +0.000 C 
ATOM     18  C   UNL     1       8.180   9.154  18.101  0.00  0.00    +0.000 C 
BRANCH  18  19
ATOM     19  C   UNL     1       9.236   9.558  19.106  0.00  0.00    +0.000 C 
BRANCH  19  20
ATOM     20  C   UNL     1       9.776  10.938  18.908  0.00  0.00    +0.000 A 
ATOM     21  N   UNL     1      10.414  11.374  17.838  0.00  0.00    +0.000 NA
ATOM     22  N   UNL     1      10.692  12.707  18.013  0.00  0.00    +0.000 NA
ATOM     23  C   UNL     1      10.233  13.053  19.190  0.00  0.00    +0.000 A 
ATOM     24  N   UNL     1       9.663  11.976  19.793  0.00  0.00    +0.000 N 
ATOM     25  C   UNL     1       9.079  11.955  21.108  0.00  0.00    +0.000 C 
ENDBRANCH  19  20
ENDBRANCH  18  19
ENDBRANCH  11  18
ENDBRANCH   1  15
BRANCH   6  26
ATOM     26  N   UNL     1       2.268   3.154  19.724  0.00  0.00    +0.000 N 
ATOM     27  C   UNL     1       1.036   3.392  20.441  0.00  0.00    +0.000 C 
ATOM     28  C   UNL     1       1.632   2.504  21.549  0.00  0.00    +0.000 C 
ATOM     29  N   UNL     1       2.926   2.792  20.916  0.00  0.00    +0.000 NA
ATOM     30  H   UNL     1       3.515   1.970  20.763  0.00  0.00    +0.000 HD
ENDBRANCH   6  26
BRANCH   8  31
ATOM     31  C   UNL     1       3.045   7.770  18.104  0.00  0.00    +0.000 C 
ATOM     32  F   UNL     1       4.186   8.505  18.020  0.00  0.00    +0.000 F 
ATOM     33  F   UNL     1       2.192   8.310  17.191  0.00  0.00    +0.000 F 
ATOM     34  F   UNL     1       2.512   8.052  19.325  0.00  0.00    +0.000 F 
ENDBRANCH   8  31
TORSDOF 6
ENDMDL
MODEL 3
REMARK VINA RESULT:      -8.9      3.628      8.734
REMARK  Name = 
REMARK  7 active torsions:
REMARK  status: ('A' for Active; 'I' for Inactive)
REMARK    1  A    between atoms: C_2  and  C_3
REMARK    2  A    between atoms: C_2  and  C_10
REMARK    3  A    between atoms: C_3  and  C_4
REMARK    4  A    between atoms: N_8  and  C_9
REMARK    5  A    between atoms: C_14  and  N_15
REMARK    6  A    between atoms: C_20  and  N_21
REMARK    7  A    between atoms: C_26  and  C_27
REMARK                            x       y       z     vdW  Elec       q    Type
REMARK                         _______ _______ _______ _____ _____    ______ ____
ROOT
ATOM      1  N   UNL     1       3.915   5.014  19.228  0.00  0.00    +0.000 N 
ATOM      2  C   UNL     1       5.280   5.574  19.378  0.00  0.00    +0.000 C 
ATOM      3  C   UNL     1       5.893   5.272  18.047  0.00  0.00    +0.000 A 
ATOM      4  C   UNL     1       5.240   4.156  17.521  0.00  0.00    +0.000 A 
ATOM      5  C   UNL     1       5.477   3.666  16.251  0.00  0.00    +0.000 A 
ATOM      6  C   UNL     1       6.409   4.337  15.450  0.00  0.00    +0.000 A 
ATOM      7  C   UNL     1       7.071   5.471  15.982  0.00  0.00    +0.000 A 
ATOM      8  C   UNL     1       6.812   5.973  17.277  0.00  0.00    +0.000 A 
ATOM      9  C   UNL     1       4.048   3.891  18.363  0.00  0.00    +0.000 C 
ATOM     10  O   UNL     1       3.251   2.992  18.170  0.00  0.00    +0.000 OA
ENDROOT
BRANCH   1  15
ATOM     11  C   UNL     1       1.857   8.030  19.588  0.00  0.00    +0.000 A 
ATOM     12  C   UNL     1       2.289   8.719  18.449  0.00  0.00    +0.000 A 
ATOM     13  C   UNL     1       2.914   8.035  17.413  0.00  0.00    +0.000 A 
ATOM     14  C   UNL     1       3.208   6.683  17.556  0.00  0.00    +0.000 A 
ATOM     15  C   UNL     1       2.994   6.050  18.790  0.00  0.00    +0.000 A 
ATOM     16  C   UNL     1       2.200   6.685  19.753  0.00  0.00    +0.000 A 
BRANCH  11  18
ATOM     17  C   UNL     1       1.450   8.572  21.928  0.00  0.00    +0.000 C 
ATOM     18  C   UNL     1       1.132   8.760  20.636  0.00  0.00    +0.000 C 
BRANCH  18  19
ATOM     19  C   UNL     1       0.081   9.741  20.163  0.00  0.00    +0.000 C 
BRANCH  19  20
ATOM     20  C   UNL     1       0.360  11.163  20.529  0.00  0.00    +0.000 A 
ATOM     21  N   UNL     1       1.132  11.998  19.859  0.00  0.00    +0.000 NA
ATOM     22  N   UNL     1       1.083  13.223  20.477  0.00  0.00    +0.000 NA
ATOM     23  C   UNL     1       0.295  13.108  21.517  0.00  0.00    +0.000 A 
ATOM     24  N   UNL     1      -0.170  11.833  21.599  0.00  0.00    +0.000 N 
ATOM     25  C   UNL     1      -1.034  11.314  22.625  0.00  0.00    +0.000 C 
ENDBRANCH  19  20
ENDBRANCH  18  19
ENDBRANCH  11  18
ENDBRANCH   1  15
BRANCH   6  26
ATOM     26  N   UNL     1       6.707   3.901  14.140  0.00  0.00    +0.000 N 
ATOM     27  C   UNL     1       7.119   4.710  13.015  0.00  0.00    +0.000 C 
ATOM     28  C   UNL     1       6.471   3.625  12.134  0.00  0.00    +0.000 C 
ATOM     29  N   UNL     1       5.745   3.241  13.352  0.00  0.00    +0.000 NA
ATOM     30  H   UNL     1       5.750   2.238  13.548  0.00  0.00    +0.000 HD
ENDBRANCH   6  26
BRANCH   8  31
ATOM     31  C   UNL     1       7.456   7.269  17.695  0.00  0.00    +0.000 C 
ATOM     32  F   UNL     1       6.578   8.281  17.931  0.00  0.00    +0.000 F 
ATOM     33  F   UNL     1       8.181   7.138  18.839  0.00  0.00    +0.000 F 
ATOM     34  F   UNL     1       8.322   7.742  16.757  0.00  0.00    +0.000 F 
ENDBRANCH   8  31
TORSDOF 6
ENDMDL
MODEL 4
REMARK VINA RESULT:      -8.9      4.548      7.479
REMARK  Name = 
REMARK  7 active torsions:
REMARK  status: ('A' for Active; 'I' for Inactive)
REMARK    1  A    between atoms: C_2  and  C_3
REMARK    2  A    between atoms: C_2  and  C_10
REMARK    3  A    between atoms: C_3  and  C_4
REMARK    4  A    between atoms: N_8  and  C_9
REMARK    5  A    between atoms: C_14  and  N_15
REMARK    6  A    between atoms: C_20  and  N_21
REMARK    7  A    between atoms: C_26  and  C_27
REMARK                            x       y       z     vdW  Elec       q    Type
REMARK                         _______ _______ _______ _____ _____    ______ ____
ROOT
ATOM      1  N   UNL     1       6.097   5.465  15.796  0.00  0.00    +0.000 N 
ATOM      2  C   UNL     1       4.987   6.445  15.884  0.00  0.00    +0.000 C 
ATOM      3  C   UNL     1       4.079   5.803  16.885  0.00  0.00    +0.000 A 
ATOM      4  C   UNL     1       4.297   4.424  16.834  0.00  0.00    +0.000 A 
ATOM      5  C   UNL     1       3.704   3.530  17.705  0.00  0.00    +0.000 A 
ATOM      6  C   UNL     1       2.857   4.039  18.696  0.00  0.00    +0.000 A 
ATOM      7  C   UNL     1       2.636   5.437  18.749  0.00  0.00    +0.000 A 
ATOM      8  C   UNL     1       3.257   6.346  17.863  0.00  0.00    +0.000 A 
ATOM      9  C   UNL     1       5.508   4.188  16.012  0.00  0.00    +0.000 C 
ATOM     10  O   UNL     1       5.983   3.092  15.778  0.00  0.00    +0.000 OA
ENDROOT
BRANCH   1  15
ATOM     11  C   UNL     1       7.981   7.709  18.005  0.00  0.00    +0.000 A 
ATOM     12  C   UNL     1       8.079   6.873  19.123  0.00  0.00    +0.000 A 
ATOM     13  C   UNL     1       7.891   5.502  18.991  0.00  0.00    +0.000 A 
ATOM     14  C   UNL     1       7.498   4.975  17.765  0.00  0.00    +0.000 A 
ATOM     15  C   UNL     1       7.166   5.837  16.709  0.00  0.00    +0.000 A 
ATOM     16  C   UNL     1       7.535   7.185  16.788  0.00  0.00    +0.000 A 
BRANCH  11  18
ATOM     17  C   UNL     1       7.518  10.043  17.487  0.00  0.00    +0.000 C 
ATOM     18  C   UNL     1       8.258   9.144  18.155  0.00  0.00    +0.000 C 
BRANCH  18  19
ATOM     19  C   UNL     1       9.360   9.514  19.124  0.00  0.00    +0.000 C 
BRANCH  19  20
ATOM     20  C   UNL     1       9.382  10.959  19.505  0.00  0.00    +0.000 A 
ATOM     21  N   UNL     1       8.785  11.492  20.555  0.00  0.00    +0.000 NA
ATOM     22  N   UNL     1       9.093  12.830  20.593  0.00  0.00    +0.000 NA
ATOM     23  C   UNL     1       9.857  13.088  19.562  0.00  0.00    +0.000 A 
ATOM     24  N   UNL     1      10.055  11.951  18.843  0.00  0.00    +0.000 N 
ATOM     25  C   UNL     1      10.812  11.842  17.625  0.00  0.00    +0.000 C 
ENDBRANCH  19  20
ENDBRANCH  18  19
ENDBRANCH  11  18
ENDBRANCH   1  15
BRANCH   6  26
ATOM     26  N   UNL     1       2.214   3.192  19.625  0.00  0.00    +0.000 N 
ATOM     27  C   UNL     1       0.997   3.453  20.360  0.00  0.00    +0.000 C 
ATOM     28  C   UNL     1       1.565   2.505  21.433  0.00  0.00    +0.000 C 
ATOM     29  N   UNL     1       2.865   2.765  20.799  0.00  0.00    +0.000 NA
ATOM     30  H   UNL     1       3.420   1.927  20.614  0.00  0.00    +0.000 HD
ENDBRANCH   6  26
BRANCH   8  31
ATOM     31  C   UNL     1       3.076   7.823  18.095  0.00  0.00    +0.000 C 
ATOM     32  F   UNL     1       2.267   8.438  17.190  0.00  0.00    +0.000 F 
ATOM     33  F   UNL     1       2.534   8.091  19.313  0.00  0.00    +0.000 F 
ATOM     34  F   UNL     1       4.257   8.501  18.055  0.00  0.00    +0.000 F 
ENDBRANCH   8  31
TORSDOF 6
ENDMDL
MODEL 5
REMARK VINA RESULT:      -8.9      3.616      8.769
REMARK  Name = 
REMARK  7 active torsions:
REMARK  status: ('A' for Active; 'I' for Inactive)
REMARK    1  A    between atoms: C_2  and  C_3
REMARK    2  A    between atoms: C_2  and  C_10
REMARK    3  A    between atoms: C_3  and  C_4
REMARK    4  A    between atoms: N_8  and  C_9
REMARK    5  A    between atoms: C_14  and  N_15
REMARK    6  A    between atoms: C_20  and  N_21
REMARK    7  A    between atoms: C_26  and  C_27
REMARK                            x       y       z     vdW  Elec       q    Type
REMARK                         _______ _______ _______ _____ _____    ______ ____
ROOT
ATOM      1  N   UNL     1       4.042   4.928  19.279  0.00  0.00    +0.000 N 
ATOM      2  C   UNL     1       5.394   5.524  19.398  0.00  0.00    +0.000 C 
ATOM      3  C   UNL     1       5.983   5.243  18.051  0.00  0.00    +0.000 A 
ATOM      4  C   UNL     1       5.346   4.111  17.537  0.00  0.00    +0.000 A 
ATOM      5  C   UNL     1       5.566   3.631  16.260  0.00  0.00    +0.000 A 
ATOM      6  C   UNL     1       6.459   4.329  15.438  0.00  0.00    +0.000 A 
ATOM      7  C   UNL     1       7.104   5.479  15.959  0.00  0.00    +0.000 A 
ATOM      8  C   UNL     1       6.863   5.970  17.262  0.00  0.00    +0.000 A 
ATOM      9  C   UNL     1       4.183   3.812  18.407  0.00  0.00    +0.000 C 
ATOM     10  O   UNL     1       3.406   2.892  18.230  0.00  0.00    +0.000 OA
ENDROOT
BRANCH   1  15
ATOM     11  C   UNL     1       1.807   7.802  19.739  0.00  0.00    +0.000 A 
ATOM     12  C   UNL     1       2.245   8.585  18.665  0.00  0.00    +0.000 A 
ATOM     13  C   UNL     1       2.948   8.004  17.616  0.00  0.00    +0.000 A 
ATOM     14  C   UNL     1       3.311   6.663  17.686  0.00  0.00    +0.000 A 
ATOM     15  C   UNL     1       3.083   5.940  18.868  0.00  0.00    +0.000 A 
ATOM     16  C   UNL     1       2.217   6.468  19.833  0.00  0.00    +0.000 A 
BRANCH  11  18
ATOM     17  C   UNL     1       0.109   7.687  21.481  0.00  0.00    +0.000 C 
ATOM     18  C   UNL     1       1.002   8.422  20.798  0.00  0.00    +0.000 C 
BRANCH  18  19
ATOM     19  C   UNL     1       1.285   9.881  21.086  0.00  0.00    +0.000 C 
BRANCH  19  20
ATOM     20  C   UNL     1       0.148  10.614  21.720  0.00  0.00    +0.000 A 
ATOM     21  N   UNL     1      -0.054  10.759  23.016  0.00  0.00    +0.000 NA
ATOM     22  N   UNL     1      -1.165  11.546  23.195  0.00  0.00    +0.000 NA
ATOM     23  C   UNL     1      -1.625  11.853  22.009  0.00  0.00    +0.000 A 
ATOM     24  N   UNL     1      -0.845  11.281  21.053  0.00  0.00    +0.000 N 
ATOM     25  C   UNL     1      -1.053  11.363  19.632  0.00  0.00    +0.000 C 
ENDBRANCH  19  20
ENDBRANCH  18  19
ENDBRANCH  11  18
ENDBRANCH   1  15
BRANCH   6  26
ATOM     26  N   UNL     1       6.737   3.906  14.121  0.00  0.00    +0.000 N 
ATOM     27  C   UNL     1       7.177   4.718  13.008  0.00  0.00    +0.000 C 
ATOM     28  C   UNL     1       6.485   3.675  12.110  0.00  0.00    +0.000 C 
ATOM     29  N   UNL     1       5.747   3.298  13.324  0.00  0.00    +0.000 NA
ATOM     30  H   UNL     1       5.713   2.292  13.502  0.00  0.00    +0.000 HD
ENDBRANCH   6  26
BRANCH   8  31
ATOM     31  C   UNL     1       7.482   7.281  17.668  0.00  0.00    +0.000 C 
ATOM     32  F   UNL     1       8.326   7.814  16.743  0.00  0.00    +0.000 F 
ATOM     33  F   UNL     1       6.547   8.240  17.907  0.00  0.00    +0.000 F 
ATOM     34  F   UNL     1       8.209   7.176  18.814  0.00  0.00    +0.000 F 
ENDBRANCH   8  31
TORSDOF 6
ENDMDL
MODEL 6
REMARK VINA RESULT:      -8.8      3.633      8.649
REMARK  Name = 
REMARK  7 active torsions:
REMARK  status: ('A' for Active; 'I' for Inactive)
REMARK    1  A    between atoms: C_2  and  C_3
REMARK    2  A    between atoms: C_2  and  C_10
REMARK    3  A    between atoms: C_3  and  C_4
REMARK    4  A    between atoms: N_8  and  C_9
REMARK    5  A    between atoms: C_14  and  N_15
REMARK    6  A    between atoms: C_20  and  N_21
REMARK    7  A    between atoms: C_26  and  C_27
REMARK                            x       y       z     vdW  Elec       q    Type
REMARK                         _______ _______ _______ _____ _____    ______ ____
ROOT
ATOM      1  N   UNL     1       3.917   5.007  19.225  0.00  0.00    +0.000 N 
ATOM      2  C   UNL     1       5.278   5.577  19.374  0.00  0.00    +0.000 C 
ATOM      3  C   UNL     1       5.894   5.274  18.045  0.00  0.00    +0.000 A 
ATOM      4  C   UNL     1       5.249   4.151  17.523  0.00  0.00    +0.000 A 
ATOM      5  C   UNL     1       5.490   3.658  16.255  0.00  0.00    +0.000 A 
ATOM      6  C   UNL     1       6.418   4.332  15.451  0.00  0.00    +0.000 A 
ATOM      7  C   UNL     1       7.073   5.472  15.980  0.00  0.00    +0.000 A 
ATOM      8  C   UNL     1       6.809   5.978  17.273  0.00  0.00    +0.000 A 
ATOM      9  C   UNL     1       4.058   3.882  18.365  0.00  0.00    +0.000 C 
ATOM     10  O   UNL     1       3.267   2.977  18.175  0.00  0.00    +0.000 OA
ENDROOT
BRANCH   1  15
ATOM     11  C   UNL     1       1.863   8.029  19.564  0.00  0.00    +0.000 A 
ATOM     12  C   UNL     1       2.278   8.698  18.407  0.00  0.00    +0.000 A 
ATOM     13  C   UNL     1       2.890   7.997  17.374  0.00  0.00    +0.000 A 
ATOM     14  C   UNL     1       3.186   6.648  17.536  0.00  0.00    +0.000 A 
ATOM     15  C   UNL     1       2.990   6.035  18.783  0.00  0.00    +0.000 A 
ATOM     16  C   UNL     1       2.209   6.686  19.746  0.00  0.00    +0.000 A 
BRANCH  11  18
ATOM     17  C   UNL     1       1.505   8.628  21.897  0.00  0.00    +0.000 C 
ATOM     18  C   UNL     1       1.152   8.775  20.609  0.00  0.00    +0.000 C 
BRANCH  18  19
ATOM     19  C   UNL     1       0.075   9.727  20.136  0.00  0.00    +0.000 C 
BRANCH  19  20
ATOM     20  C   UNL     1       0.136  11.083  20.760  0.00  0.00    +0.000 A 
ATOM     21  N   UNL     1      -0.472  11.452  21.872  0.00  0.00    +0.000 NA
ATOM     22  N   UNL     1      -0.119  12.751  22.147  0.00  0.00    +0.000 NA
ATOM     23  C   UNL     1       0.682  13.152  21.193  0.00  0.00    +0.000 A 
ATOM     24  N   UNL     1       0.861  12.147  20.294  0.00  0.00    +0.000 N 
ATOM     25  C   UNL     1       1.648  12.220  19.091  0.00  0.00    +0.000 C 
ENDBRANCH  19  20
ENDBRANCH  18  19
ENDBRANCH  11  18
ENDBRANCH   1  15
BRANCH   6  26
ATOM     26  N   UNL     1       6.720   3.894  14.144  0.00  0.00    +0.000 N 
ATOM     27  C   UNL     1       7.132   4.700  13.017  0.00  0.00    +0.000 C 
ATOM     28  C   UNL     1       6.489   3.612  12.137  0.00  0.00    +0.000 C 
ATOM     29  N   UNL     1       5.761   3.229  13.355  0.00  0.00    +0.000 NA
ATOM     30  H   UNL     1       5.768   2.227  13.554  0.00  0.00    +0.000 HD
ENDBRANCH   6  26
BRANCH   8  31
ATOM     31  C   UNL     1       7.444   7.279  17.686  0.00  0.00    +0.000 C 
ATOM     32  F   UNL     1       6.558   8.281  17.938  0.00  0.00    +0.000 F 
ATOM     33  F   UNL     1       8.187   7.153  18.819  0.00  0.00    +0.000 F 
ATOM     34  F   UNL     1       8.291   7.765  16.737  0.00  0.00    +0.000 F 
ENDBRANCH   8  31
TORSDOF 6
ENDMDL
MODEL 7
REMARK VINA RESULT:      -8.7      3.401      8.514
REMARK  Name = 
REMARK  7 active torsions:
REMARK  status: ('A' for Active; 'I' for Inactive)
REMARK    1  A    between atoms: C_2  and  C_3
REMARK    2  A    between atoms: C_2  and  C_10
REMARK    3  A    between atoms: C_3  and  C_4
REMARK    4  A    between atoms: N_8  and  C_9
REMARK    5  A    between atoms: C_14  and  N_15
REMARK    6  A    between atoms: C_20  and  N_21
REMARK    7  A    between atoms: C_26  and  C_27
REMARK                            x       y       z     vdW  Elec       q    Type
REMARK                         _______ _______ _______ _____ _____    ______ ____
ROOT
ATOM      1  N   UNL     1       3.843   5.004  19.362  0.00  0.00    +0.000 N 
ATOM      2  C   UNL     1       5.219   5.548  19.446  0.00  0.00    +0.000 C 
ATOM      3  C   UNL     1       5.770   5.224  18.093  0.00  0.00    +0.000 A 
ATOM      4  C   UNL     1       5.080   4.110  17.609  0.00  0.00    +0.000 A 
ATOM      5  C   UNL     1       5.255   3.603  16.336  0.00  0.00    +0.000 A 
ATOM      6  C   UNL     1       6.159   4.253  15.487  0.00  0.00    +0.000 A 
ATOM      7  C   UNL     1       6.859   5.383  15.977  0.00  0.00    +0.000 A 
ATOM      8  C   UNL     1       6.663   5.904  17.276  0.00  0.00    +0.000 A 
ATOM      9  C   UNL     1       3.923   3.871  18.506  0.00  0.00    +0.000 C 
ATOM     10  O   UNL     1       3.107   2.980  18.358  0.00  0.00    +0.000 OA
ENDROOT
BRANCH   1  15
ATOM     11  C   UNL     1       1.784   8.010  19.801  0.00  0.00    +0.000 A 
ATOM     12  C   UNL     1       2.205   8.722  18.672  0.00  0.00    +0.000 A 
ATOM     13  C   UNL     1       2.822   8.059  17.616  0.00  0.00    +0.000 A 
ATOM     14  C   UNL     1       3.119   6.705  17.730  0.00  0.00    +0.000 A 
ATOM     15  C   UNL     1       2.917   6.047  18.954  0.00  0.00    +0.000 A 
ATOM     16  C   UNL     1       2.130   6.662  19.936  0.00  0.00    +0.000 A 
BRANCH  11  18
ATOM     17  C   UNL     1       1.639   8.868  22.075  0.00  0.00    +0.000 C 
ATOM     18  C   UNL     1       1.067   8.717  20.869  0.00  0.00    +0.000 C 
BRANCH  18  19
ATOM     19  C   UNL     1      -0.285   9.289  20.502  0.00  0.00    +0.000 C 
BRANCH  19  20
ATOM     20  C   UNL     1      -0.237  10.681  19.960  0.00  0.00    +0.000 A 
ATOM     21  N   UNL     1       0.311  11.725  20.553  0.00  0.00    +0.000 NA
ATOM     22  N   UNL     1       0.207  12.805  19.711  0.00  0.00    +0.000 NA
ATOM     23  C   UNL     1      -0.413  12.403  18.630  0.00  0.00    +0.000 A 
ATOM     24  N   UNL     1      -0.723  11.084  18.745  0.00  0.00    +0.000 N 
ATOM     25  C   UNL     1      -1.435  10.296  17.774  0.00  0.00    +0.000 C 
ENDBRANCH  19  20
ENDBRANCH  18  19
ENDBRANCH  11  18
ENDBRANCH   1  15
BRANCH   6  26
ATOM     26  N   UNL     1       6.395   3.799  14.171  0.00  0.00    +0.000 N 
ATOM     27  C   UNL     1       7.137   4.469  13.127  0.00  0.00    +0.000 C 
ATOM     28  C   UNL     1       6.234   3.706  12.140  0.00  0.00    +0.000 C 
ATOM     29  N   UNL     1       5.331   3.538  13.286  0.00  0.00    +0.000 NA
ATOM     30  H   UNL     1       4.985   2.584  13.415  0.00  0.00    +0.000 HD
ENDBRANCH   6  26
BRANCH   8  31
ATOM     31  C   UNL     1       7.341   7.195  17.651  0.00  0.00    +0.000 C 
ATOM     32  F   UNL     1       8.103   7.123  18.776  0.00  0.00    +0.000 F 
ATOM     33  F   UNL     1       8.174   7.642  16.672  0.00  0.00    +0.000 F 
ATOM     34  F   UNL     1       6.450   8.201  17.871  0.00  0.00    +0.000 F 
ENDBRANCH   8  31
TORSDOF 6
ENDMDL
MODEL 8
REMARK VINA RESULT:      -8.6      3.369      8.774
REMARK  Name = 
REMARK  7 active torsions:
REMARK  status: ('A' for Active; 'I' for Inactive)
REMARK    1  A    between atoms: C_2  and  C_3
REMARK    2  A    between atoms: C_2  and  C_10
REMARK    3  A    between atoms: C_3  and  C_4
REMARK    4  A    between atoms: N_8  and  C_9
REMARK    5  A    between atoms: C_14  and  N_15
REMARK    6  A    between atoms: C_20  and  N_21
REMARK    7  A    between atoms: C_26  and  C_27
REMARK                            x       y       z     vdW  Elec       q    Type
REMARK                         _______ _______ _______ _____ _____    ______ ____
ROOT
ATOM      1  N   UNL     1       3.879   5.074  19.220  0.00  0.00    +0.000 N 
ATOM      2  C   UNL     1       5.249   5.621  19.371  0.00  0.00    +0.000 C 
ATOM      3  C   UNL     1       5.866   5.298  18.047  0.00  0.00    +0.000 A 
ATOM      4  C   UNL     1       5.204   4.182  17.531  0.00  0.00    +0.000 A 
ATOM      5  C   UNL     1       5.442   3.675  16.268  0.00  0.00    +0.000 A 
ATOM      6  C   UNL     1       6.385   4.328  15.463  0.00  0.00    +0.000 A 
ATOM      7  C   UNL     1       7.057   5.460  15.986  0.00  0.00    +0.000 A 
ATOM      8  C   UNL     1       6.796   5.980  17.274  0.00  0.00    +0.000 A 
ATOM      9  C   UNL     1       4.005   3.940  18.369  0.00  0.00    +0.000 C 
ATOM     10  O   UNL     1       3.199   3.047  18.182  0.00  0.00    +0.000 OA
ENDROOT
BRANCH   1  15
ATOM     11  C   UNL     1       1.819   8.093  19.547  0.00  0.00    +0.000 A 
ATOM     12  C   UNL     1       2.280   8.786  18.422  0.00  0.00    +0.000 A 
ATOM     13  C   UNL     1       2.929   8.107  17.398  0.00  0.00    +0.000 A 
ATOM     14  C   UNL     1       3.217   6.754  17.541  0.00  0.00    +0.000 A 
ATOM     15  C   UNL     1       2.972   6.114  18.766  0.00  0.00    +0.000 A 
ATOM     16  C   UNL     1       2.156   6.745  19.713  0.00  0.00    +0.000 A 
BRANCH  11  18
ATOM     17  C   UNL     1       0.508   8.145  21.599  0.00  0.00    +0.000 C 
ATOM     18  C   UNL     1       1.070   8.818  20.581  0.00  0.00    +0.000 C 
BRANCH  18  19
ATOM     19  C   UNL     1       1.032  10.325  20.445  0.00  0.00    +0.000 C 
BRANCH  19  20
ATOM     20  C   UNL     1      -0.265  10.863  19.935  0.00  0.00    +0.000 A 
ATOM     21  N   UNL     1      -0.979  10.357  18.947  0.00  0.00    +0.000 NA
ATOM     22  N   UNL     1      -2.130  11.095  18.823  0.00  0.00    +0.000 NA
ATOM     23  C   UNL     1      -2.090  12.042  19.725  0.00  0.00    +0.000 A 
ATOM     24  N   UNL     1      -0.935  11.946  20.438  0.00  0.00    +0.000 N 
ATOM     25  C   UNL     1      -0.518  12.830  21.493  0.00  0.00    +0.000 C 
ENDBRANCH  19  20
ENDBRANCH  18  19
ENDBRANCH  11  18
ENDBRANCH   1  15
BRANCH   6  26
ATOM     26  N   UNL     1       6.686   3.874  14.161  0.00  0.00    +0.000 N 
ATOM     27  C   UNL     1       7.137   4.661  13.035  0.00  0.00    +0.000 C 
ATOM     28  C   UNL     1       6.466   3.592  12.153  0.00  0.00    +0.000 C 
ATOM     29  N   UNL     1       5.713   3.239  13.364  0.00  0.00    +0.000 NA
ATOM     30  H   UNL     1       5.683   2.238  13.567  0.00  0.00    +0.000 HD
ENDBRANCH   6  26
BRANCH   8  31
ATOM     31  C   UNL     1       7.451   7.274  17.681  0.00  0.00    +0.000 C 
ATOM     32  F   UNL     1       6.581   8.289  17.930  0.00  0.00    +0.000 F 
ATOM     33  F   UNL     1       8.194   7.141  18.813  0.00  0.00    +0.000 F 
ATOM     34  F   UNL     1       8.303   7.743  16.728  0.00  0.00    +0.000 F 
ENDBRANCH   8  31
TORSDOF 6
ENDMDL
MODEL 9
REMARK VINA RESULT:      -8.5      2.949      3.688
REMARK  Name = 
REMARK  7 active torsions:
REMARK  status: ('A' for Active; 'I' for Inactive)
REMARK    1  A    between atoms: C_2  and  C_3
REMARK    2  A    between atoms: C_2  and  C_10
REMARK    3  A    between atoms: C_3  and  C_4
REMARK    4  A    between atoms: N_8  and  C_9
REMARK    5  A    between atoms: C_14  and  N_15
REMARK    6  A    between atoms: C_20  and  N_21
REMARK    7  A    between atoms: C_26  and  C_27
REMARK                            x       y       z     vdW  Elec       q    Type
REMARK                         _______ _______ _______ _____ _____    ______ ____
ROOT
ATOM      1  N   UNL     1       0.756   8.339  21.122  0.00  0.00    +0.000 N 
ATOM      2  C   UNL     1      -0.508   8.630  20.405  0.00  0.00    +0.000 C 
ATOM      3  C   UNL     1      -0.383  10.094  20.127  0.00  0.00    +0.000 A 
ATOM      4  C   UNL     1       0.451  10.643  21.103  0.00  0.00    +0.000 A 
ATOM      5  C   UNL     1       0.874  11.958  21.087  0.00  0.00    +0.000 A 
ATOM      6  C   UNL     1       0.455  12.773  20.028  0.00  0.00    +0.000 A 
ATOM      7  C   UNL     1      -0.391  12.216  19.038  0.00  0.00    +0.000 A 
ATOM      8  C   UNL     1      -0.807  10.866  19.053  0.00  0.00    +0.000 A 
ATOM      9  C   UNL     1       1.075   9.521  21.847  0.00  0.00    +0.000 C 
ATOM     10  O   UNL     1       1.869   9.654  22.760  0.00  0.00    +0.000 OA
ENDROOT
BRANCH   1  15
ATOM     11  C   UNL     1       2.579   5.855  19.129  0.00  0.00    +0.000 A 
ATOM     12  C   UNL     1       2.537   6.505  17.891  0.00  0.00    +0.000 A 
ATOM     13  C   UNL     1       2.284   7.871  17.825  0.00  0.00    +0.000 A 
ATOM     14  C   UNL     1       1.963   8.569  18.984  0.00  0.00    +0.000 A 
ATOM     15  C   UNL     1       1.766   7.873  20.187  0.00  0.00    +0.000 A 
ATOM     16  C   UNL     1       2.204   6.546  20.285  0.00  0.00    +0.000 A 
BRANCH  11  18
ATOM     17  C   UNL     1       2.470   3.663  20.186  0.00  0.00    +0.000 C 
ATOM     18  C   UNL     1       2.923   4.428  19.179  0.00  0.00    +0.000 C 
BRANCH  18  19
ATOM     19  C   UNL     1       3.746   3.898  18.025  0.00  0.00    +0.000 C 
BRANCH  19  20
ATOM     20  C   UNL     1       5.195   4.255  18.090  0.00  0.00    +0.000 A 
ATOM     21  N   UNL     1       5.886   4.493  19.189  0.00  0.00    +0.000 NA
ATOM     22  N   UNL     1       7.194   4.723  18.837  0.00  0.00    +0.000 NA
ATOM     23  C   UNL     1       7.271   4.635  17.533  0.00  0.00    +0.000 A 
ATOM     24  N   UNL     1       6.043   4.357  17.019  0.00  0.00    +0.000 N 
ATOM     25  C   UNL     1       5.723   4.219  15.623  0.00  0.00    +0.000 C 
ENDBRANCH  19  20
ENDBRANCH  18  19
ENDBRANCH  11  18
ENDBRANCH   1  15
BRANCH   6  26
ATOM     26  N   UNL     1       0.844  14.127  19.938  0.00  0.00    +0.000 N 
ATOM     27  C   UNL     1       0.105  15.219  19.347  0.00  0.00    +0.000 C 
ATOM     28  C   UNL     1       1.477  15.865  19.080  0.00  0.00    +0.000 C 
ATOM     29  N   UNL     1       2.013  14.508  19.252  0.00  0.00    +0.000 NA
ATOM     30  H   UNL     1       2.825  14.450  19.870  0.00  0.00    +0.000 HD
ENDBRANCH   6  26
BRANCH   8  31
ATOM     31  C   UNL     1      -1.582  10.332  17.878  0.00  0.00    +0.000 C 
ATOM     32  F   UNL     1      -0.898   9.434  17.118  0.00  0.00    +0.000 F 
ATOM     33  F   UNL     1      -2.723   9.697  18.259  0.00  0.00    +0.000 F 
ATOM     34  F   UNL     1      -1.971  11.318  17.024  0.00  0.00    +0.000 F 
ENDBRANCH   8  31
TORSDOF 6
ENDMDL
