MODEL 1
REMARK VINA RESULT:      -9.2      0.000      0.000
REMARK  Name = 
REMARK  7 active torsions:
REMARK  status: ('A' for Active; 'I' for Inactive)
REMARK    1  A    between atoms: C_1  and  N_2
REMARK    2  A    between atoms: C_6  and  C_7
REMARK    3  A    between atoms: C_7  and  C_8
REMARK    4  A    between atoms: C_12  and  O_13
REMARK    5  A    between atoms: O_13  and  C_14
REMARK    6  A    between atoms: C_14  and  N_15
REMARK    7  A    between atoms: C_21  and  C_22
REMARK                            x       y       z     vdW  Elec       q    Type
REMARK                         _______ _______ _______ _____ _____    ______ ____
ROOT
ATOM      1  C   UNL     1       2.984   4.988  18.972  0.00  0.00    +0.000 C 
ENDROOT
BRANCH   1   2
ATOM      2  N   UNL     1       2.425   6.323  18.968  0.00  0.00    +0.000 N 
ATOM      3  C   UNL     1       2.672   7.254  17.888  0.00  0.00    +0.000 C 
ATOM      4  C   UNL     1       2.072   8.517  18.415  0.00  0.00    +0.000 A 
ATOM      5  C   UNL     1       1.989   9.758  17.812  0.00  0.00    +0.000 A 
ATOM      6  C   UNL     1       1.367  10.792  18.517  0.00  0.00    +0.000 A 
ATOM      7  C   UNL     1       0.835  10.571  19.801  0.00  0.00    +0.000 A 
ATOM      8  C   UNL     1       0.917   9.310  20.420  0.00  0.00    +0.000 A 
ATOM      9  C   UNL     1       1.553   8.310  19.698  0.00  0.00    +0.000 A 
ATOM     10  C   UNL     1       1.828   6.911  20.063  0.00  0.00    +0.000 C 
ATOM     11  O   UNL     1       1.582   6.419  21.146  0.00  0.00    +0.000 OA
BRANCH   8  12
ATOM     12  C   UNL     1       0.319   9.055  21.773  0.00  0.00    +0.000 C 
ATOM     13  F   UNL     1      -0.317  10.161  22.269  0.00  0.00    +0.000 F 
ATOM     14  F   UNL     1      -0.631   8.082  21.762  0.00  0.00    +0.000 F 
ATOM     15  F   UNL     1       1.232   8.722  22.721  0.00  0.00    +0.000 F 
ENDBRANCH   8  12
ENDBRANCH   1   2
BRANCH   1  16
ATOM     16  O   UNL     1       4.201   5.008  19.717  0.00  0.00    +0.000 OA
BRANCH  16  21
ATOM     17  C   UNL     1       6.171   4.305  16.732  0.00  0.00    +0.000 A 
ATOM     18  C   UNL     1       7.438   4.648  17.210  0.00  0.00    +0.000 A 
ATOM     19  C   UNL     1       7.563   5.084  18.519  0.00  0.00    +0.000 A 
ATOM     20  N   UNL     1       6.522   5.221  19.368  0.00  0.00    +0.000 NA
ATOM     21  C   UNL     1       5.304   4.898  18.891  0.00  0.00    +0.000 A 
ATOM     22  C   UNL     1       5.078   4.454  17.594  0.00  0.00    +0.000 A 
BRANCH  17  23
ATOM     23  C   UNL     1       6.009   3.739  15.338  0.00  0.00    +0.000 C 
BRANCH  23  29
ATOM     24  C   UNL     1       5.870   3.230  12.250  0.00  0.00    +0.000 C 
ATOM     25  N   UNL     1       6.707   4.182  12.927  0.00  0.00    +0.000 N 
ATOM     26  C   UNL     1       7.650   4.968  12.337  0.00  0.00    +0.000 A 
ATOM     27  N   UNL     1       8.228   5.715  13.247  0.00  0.00    +0.000 NA
ATOM     28  N   UNL     1       7.668   5.399  14.462  0.00  0.00    +0.000 NA
ATOM     29  C   UNL     1       6.759   4.462  14.269  0.00  0.00    +0.000 A 
ENDBRANCH  23  29
ENDBRANCH  17  23
ENDBRANCH  16  21
ENDBRANCH   1  16
TORSDOF 6
ENDMDL
MODEL 2
REMARK VINA RESULT:      -9.1      2.353      4.422
REMARK  Name = 
REMARK  7 active torsions:
REMARK  status: ('A' for Active; 'I' for Inactive)
REMARK    1  A    between atoms: C_1  and  N_2
REMARK    2  A    between atoms: C_6  and  C_7
REMARK    3  A    between atoms: C_7  and  C_8
REMARK    4  A    between atoms: C_12  and  O_13
REMARK    5  A    between atoms: O_13  and  C_14
REMARK    6  A    between atoms: C_14  and  N_15
REMARK    7  A    between atoms: C_21  and  C_22
REMARK                            x       y       z     vdW  Elec       q    Type
REMARK                         _______ _______ _______ _____ _____    ______ ____
ROOT
ATOM      1  C   UNL     1       2.589   7.007  18.933  0.00  0.00    +0.000 C 
ENDROOT
BRANCH   1   2
ATOM      2  N   UNL     1       1.797   8.173  19.259  0.00  0.00    +0.000 N 
ATOM      3  C   UNL     1       1.721   9.318  18.377  0.00  0.00    +0.000 C 
ATOM      4  C   UNL     1       0.974  10.309  19.209  0.00  0.00    +0.000 A 
ATOM      5  C   UNL     1       0.582  11.596  18.887  0.00  0.00    +0.000 A 
ATOM      6  C   UNL     1      -0.121  12.329  19.847  0.00  0.00    +0.000 A 
ATOM      7  C   UNL     1      -0.426  11.769  21.101  0.00  0.00    +0.000 A 
ATOM      8  C   UNL     1      -0.029  10.461  21.435  0.00  0.00    +0.000 A 
ATOM      9  C   UNL     1       0.679   9.766  20.465  0.00  0.00    +0.000 A 
ATOM     10  C   UNL     1       1.254   8.412  20.504  0.00  0.00    +0.000 C 
ATOM     11  O   UNL     1       1.250   7.689  21.479  0.00  0.00    +0.000 OA
BRANCH   8  12
ATOM     12  C   UNL     1      -0.383   9.842  22.756  0.00  0.00    +0.000 C 
ATOM     13  F   UNL     1      -1.202  10.650  23.498  0.00  0.00    +0.000 F 
ATOM     14  F   UNL     1      -1.067   8.673  22.632  0.00  0.00    +0.000 F 
ATOM     15  F   UNL     1       0.689   9.604  23.554  0.00  0.00    +0.000 F 
ENDBRANCH   8  12
ENDBRANCH   1   2
BRANCH   1  16
ATOM     16  O   UNL     1       3.469   7.339  17.860  0.00  0.00    +0.000 OA
BRANCH  16  21
ATOM     17  C   UNL     1       4.133   3.812  17.227  0.00  0.00    +0.000 A 
ATOM     18  C   UNL     1       5.104   3.939  16.231  0.00  0.00    +0.000 A 
ATOM     19  C   UNL     1       5.494   5.208  15.836  0.00  0.00    +0.000 A 
ATOM     20  N   UNL     1       4.975   6.345  16.344  0.00  0.00    +0.000 NA
ATOM     21  C   UNL     1       4.030   6.209  17.295  0.00  0.00    +0.000 A 
ATOM     22  C   UNL     1       3.573   4.981  17.756  0.00  0.00    +0.000 A 
BRANCH  17  23
ATOM     23  C   UNL     1       3.748   2.444  17.747  0.00  0.00    +0.000 C 
BRANCH  23  29
ATOM     24  C   UNL     1       0.789   2.495  18.777  0.00  0.00    +0.000 C 
ATOM     25  N   UNL     1       1.981   2.481  19.583  0.00  0.00    +0.000 N 
ATOM     26  C   UNL     1       2.018   2.574  20.940  0.00  0.00    +0.000 A 
ATOM     27  N   UNL     1       3.265   2.531  21.347  0.00  0.00    +0.000 NA
ATOM     28  N   UNL     1       4.063   2.427  20.232  0.00  0.00    +0.000 NA
ATOM     29  C   UNL     1       3.285   2.411  19.165  0.00  0.00    +0.000 A 
ENDBRANCH  23  29
ENDBRANCH  17  23
ENDBRANCH  16  21
ENDBRANCH   1  16
TORSDOF 6
ENDMDL
MODEL 3
REMARK VINA RESULT:      -9.0      2.368      4.381
REMARK  Name = 
REMARK  7 active torsions:
REMARK  status: ('A' for Active; 'I' for Inactive)
REMARK    1  A    between atoms: C_1  and  N_2
REMARK    2  A    between atoms: C_6  and  C_7
REMARK    3  A    between atoms: C_7  and  C_8
REMARK    4  A    between atoms: C_12  and  O_13
REMARK    5  A    between atoms: O_13  and  C_14
REMARK    6  A    between atoms: C_14  and  N_15
REMARK    7  A    between atoms: C_21  and  C_22
REMARK                            x       y       z     vdW  Elec       q    Type
REMARK                         _______ _______ _______ _____ _____    ______ ____
ROOT
ATOM      1  C   UNL     1       2.781   7.266  18.815  0.00  0.00    +0.000 C 
ENDROOT
BRANCH   1   2
ATOM      2  N   UNL     1       1.885   8.346  19.167  0.00  0.00    +0.000 N 
ATOM      3  C   UNL     1       1.708   9.503  18.316  0.00  0.00    +0.000 C 
ATOM      4  C   UNL     1       0.871  10.399  19.172  0.00  0.00    +0.000 A 
ATOM      5  C   UNL     1       0.365  11.653  18.883  0.00  0.00    +0.000 A 
ATOM      6  C   UNL     1      -0.405  12.292  19.857  0.00  0.00    +0.000 A 
ATOM      7  C   UNL     1      -0.662  11.672  21.095  0.00  0.00    +0.000 A 
ATOM      8  C   UNL     1      -0.149  10.397  21.395  0.00  0.00    +0.000 A 
ATOM      9  C   UNL     1       0.623   9.796  20.410  0.00  0.00    +0.000 A 
ATOM     10  C   UNL     1       1.319   8.500  20.415  0.00  0.00    +0.000 C 
ATOM     11  O   UNL     1       1.378   7.752  21.371  0.00  0.00    +0.000 OA
BRANCH   8  12
ATOM     12  C   UNL     1      -0.449   9.712  22.696  0.00  0.00    +0.000 C 
ATOM     13  F   UNL     1      -1.332  10.426  23.460  0.00  0.00    +0.000 F 
ATOM     14  F   UNL     1      -1.032   8.493  22.537  0.00  0.00    +0.000 F 
ATOM     15  F   UNL     1       0.640   9.542  23.489  0.00  0.00    +0.000 F 
ENDBRANCH   8  12
ENDBRANCH   1   2
BRANCH   1  16
ATOM     16  O   UNL     1       3.554   7.667  17.684  0.00  0.00    +0.000 OA
BRANCH  16  21
ATOM     17  C   UNL     1       4.347   4.195  16.908  0.00  0.00    +0.000 A 
ATOM     18  C   UNL     1       5.269   4.397  15.877  0.00  0.00    +0.000 A 
ATOM     19  C   UNL     1       5.584   5.695  15.508  0.00  0.00    +0.000 A 
ATOM     20  N   UNL     1       5.037   6.791  16.075  0.00  0.00    +0.000 NA
ATOM     21  C   UNL     1       4.141   6.582  17.059  0.00  0.00    +0.000 A 
ATOM     22  C   UNL     1       3.758   5.320  17.497  0.00  0.00    +0.000 A 
BRANCH  17  23
ATOM     23  C   UNL     1       4.046   2.795  17.398  0.00  0.00    +0.000 C 
BRANCH  23  29
ATOM     24  C   UNL     1       3.884   2.513  20.514  0.00  0.00    +0.000 C 
ATOM     25  N   UNL     1       2.782   2.499  19.591  0.00  0.00    +0.000 N 
ATOM     26  C   UNL     1       1.480   2.271  19.917  0.00  0.00    +0.000 A 
ATOM     27  N   UNL     1       0.742   2.328  18.834  0.00  0.00    +0.000 NA
ATOM     28  N   UNL     1       1.579   2.577  17.772  0.00  0.00    +0.000 NA
ATOM     29  C   UNL     1       2.814   2.666  18.229  0.00  0.00    +0.000 A 
ENDBRANCH  23  29
ENDBRANCH  17  23
ENDBRANCH  16  21
ENDBRANCH   1  16
TORSDOF 6
ENDMDL
MODEL 4
REMARK VINA RESULT:      -8.9      2.157      3.347
REMARK  Name = 
REMARK  7 active torsions:
REMARK  status: ('A' for Active; 'I' for Inactive)
REMARK    1  A    between atoms: C_1  and  N_2
REMARK    2  A    between atoms: C_6  and  C_7
REMARK    3  A    between atoms: C_7  and  C_8
REMARK    4  A    between atoms: C_12  and  O_13
REMARK    5  A    between atoms: O_13  and  C_14
REMARK    6  A    between atoms: C_14  and  N_15
REMARK    7  A    between atoms: C_21  and  C_22
REMARK                            x       y       z     vdW  Elec       q    Type
REMARK                         _______ _______ _______ _____ _____    ______ ____
ROOT
ATOM      1  C   UNL     1       2.717   7.646  18.160  0.00  0.00    +0.000 C 
ENDROOT
BRANCH   1   2
ATOM      2  N   UNL     1       1.865   8.672  18.720  0.00  0.00    +0.000 N 
ATOM      3  C   UNL     1       1.668   9.946  18.063  0.00  0.00    +0.000 C 
ATOM      4  C   UNL     1       0.897  10.714  19.088  0.00  0.00    +0.000 A 
ATOM      5  C   UNL     1       0.404  12.005  19.018  0.00  0.00    +0.000 A 
ATOM      6  C   UNL     1      -0.299  12.500  20.120  0.00  0.00    +0.000 A 
ATOM      7  C   UNL     1      -0.502  11.705  21.262  0.00  0.00    +0.000 A 
ATOM      8  C   UNL     1      -0.002  10.391  21.339  0.00  0.00    +0.000 A 
ATOM      9  C   UNL     1       0.702   9.936  20.234  0.00  0.00    +0.000 A 
ATOM     10  C   UNL     1       1.369   8.644  20.006  0.00  0.00    +0.000 C 
ATOM     11  O   UNL     1       1.463   7.760  20.834  0.00  0.00    +0.000 OA
BRANCH   8  12
ATOM     12  C   UNL     1      -0.247   9.523  22.538  0.00  0.00    +0.000 C 
ATOM     13  F   UNL     1      -1.060  10.132  23.456  0.00  0.00    +0.000 F 
ATOM     14  F   UNL     1      -0.879   8.357  22.234  0.00  0.00    +0.000 F 
ATOM     15  F   UNL     1       0.880   9.207  23.225  0.00  0.00    +0.000 F 
ENDBRANCH   8  12
ENDBRANCH   1   2
BRANCH   1  16
ATOM     16  O   UNL     1       1.931   6.477  17.932  0.00  0.00    +0.000 OA
BRANCH  16  21
ATOM     17  C   UNL     1       4.848   4.318  17.590  0.00  0.00    +0.000 A 
ATOM     18  C   UNL     1       4.283   3.106  17.994  0.00  0.00    +0.000 A 
ATOM     19  C   UNL     1       2.943   3.078  18.347  0.00  0.00    +0.000 A 
ATOM     20  N   UNL     1       2.144   4.166  18.345  0.00  0.00    +0.000 NA
ATOM     21  C   UNL     1       2.704   5.331  17.964  0.00  0.00    +0.000 A 
ATOM     22  C   UNL     1       4.037   5.459  17.595  0.00  0.00    +0.000 A 
BRANCH  17  23
ATOM     23  C   UNL     1       6.283   4.369  17.112  0.00  0.00    +0.000 C 
BRANCH  23  29
ATOM     24  C   UNL     1       7.713   5.502  19.658  0.00  0.00    +0.000 C 
ATOM     25  N   UNL     1       7.532   6.177  18.401  0.00  0.00    +0.000 N 
ATOM     26  C   UNL     1       7.881   7.466  18.138  0.00  0.00    +0.000 A 
ATOM     27  N   UNL     1       7.573   7.758  16.897  0.00  0.00    +0.000 NA
ATOM     28  N   UNL     1       6.990   6.644  16.340  0.00  0.00    +0.000 NA
ATOM     29  C   UNL     1       6.953   5.694  17.255  0.00  0.00    +0.000 A 
ENDBRANCH  23  29
ENDBRANCH  17  23
ENDBRANCH  16  21
ENDBRANCH   1  16
TORSDOF 6
ENDMDL
MODEL 5
REMARK VINA RESULT:      -8.8      2.681      4.167
REMARK  Name = 
REMARK  7 active torsions:
REMARK  status: ('A' for Active; 'I' for Inactive)
REMARK    1  A    between atoms: C_1  and  N_2
REMARK    2  A    between atoms: C_6  and  C_7
REMARK    3  A    between atoms: C_7  and  C_8
REMARK    4  A    between atoms: C_12  and  O_13
REMARK    5  A    between atoms: O_13  and  C_14
REMARK    6  A    between atoms: C_14  and  N_15
REMARK    7  A    between atoms: C_21  and  C_22
REMARK                            x       y       z     vdW  Elec       q    Type
REMARK                         _______ _______ _______ _____ _____    ______ ____
ROOT
ATOM      1  C   UNL     1       2.266   7.561  18.935  0.00  0.00    +0.000 C 
ENDROOT
BRANCH   1   2
ATOM      2  N   UNL     1       1.573   8.458  19.834  0.00  0.00    +0.000 N 
ATOM      3  C   UNL     1       1.359   8.130  21.227  0.00  0.00    +0.000 C 
ATOM      4  C   UNL     1       0.458   9.235  21.676  0.00  0.00    +0.000 A 
ATOM      5  C   UNL     1      -0.076   9.467  22.931  0.00  0.00    +0.000 A 
ATOM      6  C   UNL     1      -0.894  10.587  23.101  0.00  0.00    +0.000 A 
ATOM      7  C   UNL     1      -1.162  11.455  22.026  0.00  0.00    +0.000 A 
ATOM      8  C   UNL     1      -0.622  11.223  20.747  0.00  0.00    +0.000 A 
ATOM      9  C   UNL     1       0.175  10.096  20.610  0.00  0.00    +0.000 A 
ATOM     10  C   UNL     1       0.856   9.561  19.421  0.00  0.00    +0.000 C 
ATOM     11  O   UNL     1       0.755  10.021  18.301  0.00  0.00    +0.000 OA
BRANCH   8  12
ATOM     12  C   UNL     1      -0.871  12.164  19.604  0.00  0.00    +0.000 C 
ATOM     13  F   UNL     1      -1.542  11.558  18.577  0.00  0.00    +0.000 F 
ATOM     14  F   UNL     1      -1.647  13.228  19.947  0.00  0.00    +0.000 F 
ATOM     15  F   UNL     1       0.263  12.653  19.041  0.00  0.00    +0.000 F 
ENDBRANCH   8  12
ENDBRANCH   1   2
BRANCH   1  16
ATOM     16  O   UNL     1       2.487   6.322  19.608  0.00  0.00    +0.000 OA
BRANCH  16  21
ATOM     17  C   UNL     1       4.892   4.452  17.608  0.00  0.00    +0.000 A 
ATOM     18  C   UNL     1       4.036   3.495  17.058  0.00  0.00    +0.000 A 
ATOM     19  C   UNL     1       2.689   3.540  17.380  0.00  0.00    +0.000 A 
ATOM     20  N   UNL     1       2.147   4.449  18.218  0.00  0.00    +0.000 NA
ATOM     21  C   UNL     1       2.986   5.359  18.751  0.00  0.00    +0.000 A 
ATOM     22  C   UNL     1       4.351   5.394  18.490  0.00  0.00    +0.000 A 
BRANCH  17  23
ATOM     23  C   UNL     1       6.352   4.489  17.209  0.00  0.00    +0.000 C 
BRANCH  23  29
ATOM     24  C   UNL     1       7.919   5.563  19.699  0.00  0.00    +0.000 C 
ATOM     25  N   UNL     1       7.656   6.273  18.477  0.00  0.00    +0.000 N 
ATOM     26  C   UNL     1       7.976   7.574  18.233  0.00  0.00    +0.000 A 
ATOM     27  N   UNL     1       7.591   7.899  17.021  0.00  0.00    +0.000 NA
ATOM     28  N   UNL     1       6.988   6.795  16.466  0.00  0.00    +0.000 NA
ATOM     29  C   UNL     1       7.016   5.817  17.353  0.00  0.00    +0.000 A 
ENDBRANCH  23  29
ENDBRANCH  17  23
ENDBRANCH  16  21
ENDBRANCH   1  16
TORSDOF 6
ENDMDL
MODEL 6
REMARK VINA RESULT:      -8.7      2.964      5.271
REMARK  Name = 
REMARK  7 active torsions:
REMARK  status: ('A' for Active; 'I' for Inactive)
REMARK    1  A    between atoms: C_1  and  N_2
REMARK    2  A    between atoms: C_6  and  C_7
REMARK    3  A    between atoms: C_7  and  C_8
REMARK    4  A    between atoms: C_12  and  O_13
REMARK    5  A    between atoms: O_13  and  C_14
REMARK    6  A    between atoms: C_14  and  N_15
REMARK    7  A    between atoms: C_21  and  C_22
REMARK                            x       y       z     vdW  Elec       q    Type
REMARK                         _______ _______ _______ _____ _____    ______ ____
ROOT
ATOM      1  C   UNL     1       2.257   7.720  18.130  0.00  0.00    +0.000 C 
ENDROOT
BRANCH   1   2
ATOM      2  N   UNL     1       1.647   8.479  19.199  0.00  0.00    +0.000 N 
ATOM      3  C   UNL     1       1.695   8.038  20.576  0.00  0.00    +0.000 C 
ATOM      4  C   UNL     1       0.786   9.014  21.252  0.00  0.00    +0.000 A 
ATOM      5  C   UNL     1       0.450   9.106  22.591  0.00  0.00    +0.000 A 
ATOM      6  C   UNL     1      -0.425  10.123  22.981  0.00  0.00    +0.000 A 
ATOM      7  C   UNL     1      -0.942  11.030  22.038  0.00  0.00    +0.000 A 
ATOM      8  C   UNL     1      -0.603  10.942  20.674  0.00  0.00    +0.000 A 
ATOM      9  C   UNL     1       0.256   9.912  20.319  0.00  0.00    +0.000 A 
ATOM     10  C   UNL     1       0.776   9.530  18.997  0.00  0.00    +0.000 C 
ATOM     11  O   UNL     1       0.452  10.053  17.950  0.00  0.00    +0.000 OA
BRANCH   8  12
ATOM     12  C   UNL     1      -1.120  11.928  19.668  0.00  0.00    +0.000 C 
ATOM     13  F   UNL     1      -1.891  11.328  18.710  0.00  0.00    +0.000 F 
ATOM     14  F   UNL     1      -1.922  12.880  20.215  0.00  0.00    +0.000 F 
ATOM     15  F   UNL     1      -0.141  12.569  18.978  0.00  0.00    +0.000 F 
ENDBRANCH   8  12
ENDBRANCH   1   2
BRANCH   1  16
ATOM     16  O   UNL     1       3.562   7.318  18.545  0.00  0.00    +0.000 OA
BRANCH  16  21
ATOM     17  C   UNL     1       4.034   3.752  17.954  0.00  0.00    +0.000 A 
ATOM     18  C   UNL     1       4.719   3.812  16.737  0.00  0.00    +0.000 A 
ATOM     19  C   UNL     1       4.998   5.053  16.188  0.00  0.00    +0.000 A 
ATOM     20  N   UNL     1       4.628   6.223  16.750  0.00  0.00    +0.000 NA
ATOM     21  C   UNL     1       3.958   6.151  17.917  0.00  0.00    +0.000 A 
ATOM     22  C   UNL     1       3.630   4.955  18.544  0.00  0.00    +0.000 A 
BRANCH  17  23
ATOM     23  C   UNL     1       3.791   2.419  18.627  0.00  0.00    +0.000 C 
BRANCH  23  29
ATOM     24  C   UNL     1       0.676   2.536  18.932  0.00  0.00    +0.000 C 
ATOM     25  N   UNL     1       1.645   2.579  19.992  0.00  0.00    +0.000 N 
ATOM     26  C   UNL     1       1.367   2.765  21.312  0.00  0.00    +0.000 A 
ATOM     27  N   UNL     1       2.483   2.751  22.001  0.00  0.00    +0.000 NA
ATOM     28  N   UNL     1       3.518   2.572  21.112  0.00  0.00    +0.000 NA
ATOM     29  C   UNL     1       3.010   2.483  19.897  0.00  0.00    +0.000 A 
ENDBRANCH  23  29
ENDBRANCH  17  23
ENDBRANCH  16  21
ENDBRANCH   1  16
TORSDOF 6
ENDMDL
MODEL 7
REMARK VINA RESULT:      -8.6      3.973      8.573
REMARK  Name = 
REMARK  7 active torsions:
REMARK  status: ('A' for Active; 'I' for Inactive)
REMARK    1  A    between atoms: C_1  and  N_2
REMARK    2  A    between atoms: C_6  and  C_7
REMARK    3  A    between atoms: C_7  and  C_8
REMARK    4  A    between atoms: C_12  and  O_13
REMARK    5  A    between atoms: O_13  and  C_14
REMARK    6  A    between atoms: C_14  and  N_15
REMARK    7  A    between atoms: C_21  and  C_22
REMARK                            x       y       z     vdW  Elec       q    Type
REMARK                         _______ _______ _______ _____ _____    ______ ____
ROOT
ATOM      1  C   UNL     1       3.079   8.106  18.008  0.00  0.00    +0.000 C 
ENDROOT
BRANCH   1   2
ATOM      2  N   UNL     1       3.219   6.679  18.197  0.00  0.00    +0.000 N 
ATOM      3  C   UNL     1       3.869   5.836  17.217  0.00  0.00    +0.000 C 
ATOM      4  C   UNL     1       3.596   4.466  17.748  0.00  0.00    +0.000 A 
ATOM      5  C   UNL     1       3.989   3.241  17.239  0.00  0.00    +0.000 A 
ATOM      6  C   UNL     1       3.611   2.088  17.931  0.00  0.00    +0.000 A 
ATOM      7  C   UNL     1       2.856   2.174  19.116  0.00  0.00    +0.000 A 
ATOM      8  C   UNL     1       2.453   3.417  19.639  0.00  0.00    +0.000 A 
ATOM      9  C   UNL     1       2.834   4.541  18.919  0.00  0.00    +0.000 A 
ATOM     10  C   UNL     1       2.556   5.963  19.172  0.00  0.00    +0.000 C 
ATOM     11  O   UNL     1       1.848   6.379  20.067  0.00  0.00    +0.000 OA
BRANCH   8  12
ATOM     12  C   UNL     1       1.681   3.520  20.922  0.00  0.00    +0.000 C 
ATOM     13  F   UNL     1       1.419   2.290  21.463  0.00  0.00    +0.000 F 
ATOM     14  F   UNL     1       2.351   4.193  21.896  0.00  0.00    +0.000 F 
ATOM     15  F   UNL     1       0.465   4.107  20.784  0.00  0.00    +0.000 F 
ENDBRANCH   8  12
ENDBRANCH   1   2
BRANCH   1  16
ATOM     16  O   UNL     1       1.724   8.388  17.658  0.00  0.00    +0.000 OA
BRANCH  16  21
ATOM     17  C   UNL     1      -0.408  11.131  18.759  0.00  0.00    +0.000 A 
ATOM     18  C   UNL     1       0.547  12.149  18.826  0.00  0.00    +0.000 A 
ATOM     19  C   UNL     1       1.858  11.859  18.483  0.00  0.00    +0.000 A 
ATOM     20  N   UNL     1       2.281  10.636  18.101  0.00  0.00    +0.000 NA
ATOM     21  C   UNL     1       1.352   9.660  18.052  0.00  0.00    +0.000 A 
ATOM     22  C   UNL     1       0.015   9.853  18.379  0.00  0.00    +0.000 A 
BRANCH  17  23
ATOM     23  C   UNL     1      -1.864  11.433  19.040  0.00  0.00    +0.000 C 
BRANCH  23  29
ATOM     24  C   UNL     1      -4.948  11.982  18.970  0.00  0.00    +0.000 C 
ATOM     25  N   UNL     1      -4.108  11.646  17.852  0.00  0.00    +0.000 N 
ATOM     26  C   UNL     1      -4.538  11.426  16.579  0.00  0.00    +0.000 A 
ATOM     27  N   UNL     1      -3.510  11.141  15.814  0.00  0.00    +0.000 NA
ATOM     28  N   UNL     1      -2.386  11.155  16.606  0.00  0.00    +0.000 NA
ATOM     29  C   UNL     1      -2.752  11.446  17.840  0.00  0.00    +0.000 A 
ENDBRANCH  23  29
ENDBRANCH  17  23
ENDBRANCH  16  21
ENDBRANCH   1  16
TORSDOF 6
ENDMDL
MODEL 8
REMARK VINA RESULT:      -8.6      1.929      2.739
REMARK  Name = 
REMARK  7 active torsions:
REMARK  status: ('A' for Active; 'I' for Inactive)
REMARK    1  A    between atoms: C_1  and  N_2
REMARK    2  A    between atoms: C_6  and  C_7
REMARK    3  A    between atoms: C_7  and  C_8
REMARK    4  A    between atoms: C_12  and  O_13
REMARK    5  A    between atoms: O_13  and  C_14
REMARK    6  A    between atoms: C_14  and  N_15
REMARK    7  A    between atoms: C_21  and  C_22
REMARK                            x       y       z     vdW  Elec       q    Type
REMARK                         _______ _______ _______ _____ _____    ______ ____
ROOT
ATOM      1  C   UNL     1       2.584   7.217  18.196  0.00  0.00    +0.000 C 
ENDROOT
BRANCH   1   2
ATOM      2  N   UNL     1       1.983   8.099  19.173  0.00  0.00    +0.000 N 
ATOM      3  C   UNL     1       1.739   7.681  20.536  0.00  0.00    +0.000 C 
ATOM      4  C   UNL     1       0.950   8.827  21.082  0.00  0.00    +0.000 A 
ATOM      5  C   UNL     1       0.443   9.005  22.357  0.00  0.00    +0.000 A 
ATOM      6  C   UNL     1      -0.263  10.181  22.625  0.00  0.00    +0.000 A 
ATOM      7  C   UNL     1      -0.445  11.156  21.628  0.00  0.00    +0.000 A 
ATOM      8  C   UNL     1       0.068  10.980  20.329  0.00  0.00    +0.000 A 
ATOM      9  C   UNL     1       0.751   9.796  20.092  0.00  0.00    +0.000 A 
ATOM     10  C   UNL     1       1.376   9.297  18.857  0.00  0.00    +0.000 C 
ATOM     11  O   UNL     1       1.320   9.856  17.780  0.00  0.00    +0.000 OA
BRANCH   8  12
ATOM     12  C   UNL     1      -0.089  12.032  19.270  0.00  0.00    +0.000 C 
ATOM     13  F   UNL     1      -0.818  11.581  18.202  0.00  0.00    +0.000 F 
ATOM     14  F   UNL     1      -0.755  13.134  19.706  0.00  0.00    +0.000 F 
ATOM     15  F   UNL     1       1.087  12.452  18.737  0.00  0.00    +0.000 F 
ENDBRANCH   8  12
ENDBRANCH   1   2
BRANCH   1  16
ATOM     16  O   UNL     1       2.883   5.974  18.830  0.00  0.00    +0.000 OA
BRANCH  16  21
ATOM     17  C   UNL     1       5.534   4.448  16.849  0.00  0.00    +0.000 A 
ATOM     18  C   UNL     1       6.597   4.586  17.745  0.00  0.00    +0.000 A 
ATOM     19  C   UNL     1       6.359   5.175  18.977  0.00  0.00    +0.000 A 
ATOM     20  N   UNL     1       5.155   5.647  19.364  0.00  0.00    +0.000 NA
ATOM     21  C   UNL     1       4.142   5.517  18.485  0.00  0.00    +0.000 A 
ATOM     22  C   UNL     1       4.282   4.944  17.227  0.00  0.00    +0.000 A 
BRANCH  17  23
ATOM     23  C   UNL     1       5.736   3.729  15.532  0.00  0.00    +0.000 C 
BRANCH  23  29
ATOM     24  C   UNL     1       5.834   3.307  12.429  0.00  0.00    +0.000 C 
ATOM     25  N   UNL     1       6.660   4.194  13.203  0.00  0.00    +0.000 N 
ATOM     26  C   UNL     1       7.690   4.940  12.718  0.00  0.00    +0.000 A 
ATOM     27  N   UNL     1       8.228   5.630  13.695  0.00  0.00    +0.000 NA
ATOM     28  N   UNL     1       7.550   5.316  14.849  0.00  0.00    +0.000 NA
ATOM     29  C   UNL     1       6.612   4.436  14.552  0.00  0.00    +0.000 A 
ENDBRANCH  23  29
ENDBRANCH  17  23
ENDBRANCH  16  21
ENDBRANCH   1  16
TORSDOF 6
ENDMDL
MODEL 9
REMARK VINA RESULT:      -8.5      2.627      3.894
REMARK  Name = 
REMARK  7 active torsions:
REMARK  status: ('A' for Active; 'I' for Inactive)
REMARK    1  A    between atoms: C_1  and  N_2
REMARK    2  A    between atoms: C_6  and  C_7
REMARK    3  A    between atoms: C_7  and  C_8
REMARK    4  A    between atoms: C_12  and  O_13
REMARK    5  A    between atoms: O_13  and  C_14
REMARK    6  A    between atoms: C_14  and  N_15
REMARK    7  A    between atoms: C_21  and  C_22
REMARK                            x       y       z     vdW  Elec       q    Type
REMARK                         _______ _______ _______ _____ _____    ______ ____
ROOT
ATOM      1  C   UNL     1       2.510   6.922  19.402  0.00  0.00    +0.000 C 
ENDROOT
BRANCH   1   2
ATOM      2  N   UNL     1       1.788   7.968  20.094  0.00  0.00    +0.000 N 
ATOM      3  C   UNL     1       1.367   7.826  21.471  0.00  0.00    +0.000 C 
ATOM      4  C   UNL     1       0.516   9.039  21.668  0.00  0.00    +0.000 A 
ATOM      5  C   UNL     1      -0.153   9.457  22.804  0.00  0.00    +0.000 A 
ATOM      6  C   UNL     1      -0.886  10.644  22.737  0.00  0.00    +0.000 A 
ATOM      7  C   UNL     1      -0.936  11.394  21.547  0.00  0.00    +0.000 A 
ATOM      8  C   UNL     1      -0.258  10.973  20.387  0.00  0.00    +0.000 A 
ATOM      9  C   UNL     1       0.449   9.783  20.485  0.00  0.00    +0.000 A 
ATOM     10  C   UNL     1       1.229   9.062  19.467  0.00  0.00    +0.000 C 
ATOM     11  O   UNL     1       1.314   9.391  18.301  0.00  0.00    +0.000 OA
BRANCH   8  12
ATOM     12  C   UNL     1      -0.274  11.786  19.126  0.00  0.00    +0.000 C 
ATOM     13  F   UNL     1      -0.827  11.098  18.079  0.00  0.00    +0.000 F 
ATOM     14  F   UNL     1      -1.018  12.920  19.230  0.00  0.00    +0.000 F 
ATOM     15  F   UNL     1       0.960  12.148  18.692  0.00  0.00    +0.000 F 
ENDBRANCH   8  12
ENDBRANCH   1   2
BRANCH   1  16
ATOM     16  O   UNL     1       1.879   5.673  19.681  0.00  0.00    +0.000 OA
BRANCH  16  21
ATOM     17  C   UNL     1       4.089   3.963  17.341  0.00  0.00    +0.000 A 
ATOM     18  C   UNL     1       3.650   2.651  17.531  0.00  0.00    +0.000 A 
ATOM     19  C   UNL     1       2.621   2.414  18.428  0.00  0.00    +0.000 A 
ATOM     20  N   UNL     1       2.021   3.380  19.155  0.00  0.00    +0.000 NA
ATOM     21  C   UNL     1       2.462   4.640  18.971  0.00  0.00    +0.000 A 
ATOM     22  C   UNL     1       3.488   4.977  18.097  0.00  0.00    +0.000 A 
BRANCH  17  23
ATOM     23  C   UNL     1       5.148   4.271  16.304  0.00  0.00    +0.000 C 
BRANCH  23  29
ATOM     24  C   UNL     1       7.757   4.550  18.015  0.00  0.00    +0.000 C 
ATOM     25  N   UNL     1       7.051   5.608  17.345  0.00  0.00    +0.000 N 
ATOM     26  C   UNL     1       7.358   6.933  17.416  0.00  0.00    +0.000 A 
ATOM     27  N   UNL     1       6.510   7.617  16.685  0.00  0.00    +0.000 NA
ATOM     28  N   UNL     1       5.616   6.726  16.140  0.00  0.00    +0.000 NA
ATOM     29  C   UNL     1       5.936   5.513  16.551  0.00  0.00    +0.000 A 
ENDBRANCH  23  29
ENDBRANCH  17  23
ENDBRANCH  16  21
ENDBRANCH   1  16
TORSDOF 6
ENDMDL
