MODEL 1
REMARK VINA RESULT:      -8.3      0.000      0.000
REMARK  Name = 
REMARK  6 active torsions:
REMARK  status: ('A' for Active; 'I' for Inactive)
REMARK    1  A    between atoms: C_1  and  C_2
REMARK    2  A    between atoms: C_4  and  C_5
REMARK    3  A    between atoms: N_7  and  C_8
REMARK    4  A    between atoms: C_8  and  C_9
REMARK    5  A    between atoms: C_9  and  C_10
REMARK    6  A    between atoms: C_20  and  C_21
REMARK                            x       y       z     vdW  Elec       q    Type
REMARK                         _______ _______ _______ _____ _____    ______ ____
ROOT
ATOM      1  C   UNL     1       2.414   6.870  18.684  0.00  0.00    +0.000 C 
ATOM      2  O   UNL     1       2.531   7.151  19.869  0.00  0.00    +0.000 OA
ATOM      3  N   UNL     1       2.100   7.810  17.713  0.00  0.00    +0.000 N 
ATOM      4  H   UNL     1       2.117   7.574  16.732  0.00  0.00    +0.000 HD
ENDROOT
BRANCH   1   8
ATOM      5  C   UNL     1       0.862   2.109  18.714  0.00  0.00    +0.000 C 
ATOM      6  C   UNL     1       1.847   3.164  18.291  0.00  0.00    +0.000 A 
ATOM      7  C   UNL     1       1.637   4.496  18.627  0.00  0.00    +0.000 A 
ATOM      8  C   UNL     1       2.582   5.467  18.249  0.00  0.00    +0.000 A 
ATOM      9  C   UNL     1       3.726   5.039  17.538  0.00  0.00    +0.000 A 
ATOM     10  C   UNL     1       4.919   5.552  16.941  0.00  0.00    +0.000 A 
ATOM     11  C   UNL     1       5.456   6.930  16.821  0.00  0.00    +0.000 C 
ATOM     12  N   UNL     1       5.651   4.572  16.388  0.00  0.00    +0.000 NA
ATOM     13  O   UNL     1       4.950   3.407  16.602  0.00  0.00    +0.000 OA
ATOM     14  C   UNL     1       3.801   3.676  17.276  0.00  0.00    +0.000 A 
ATOM     15  N   UNL     1       2.919   2.719  17.613  0.00  0.00    +0.000 NA
ENDBRANCH   1   8
BRANCH   3  16
ATOM     16  C   UNL     1       1.996   9.209  18.108  0.00  0.00    +0.000 C 
BRANCH  16  17
ATOM     17  C   UNL     1       0.596   9.806  17.963  0.00  0.00    +0.000 C 
BRANCH  17  18
ATOM     18  C   UNL     1       0.253  10.684  19.131  0.00  0.00    +0.000 A 
ATOM     19  C   UNL     1       0.133  12.060  19.095  0.00  0.00    +0.000 A 
ATOM     20  N   UNL     1      -0.230  12.497  20.339  0.00  0.00    +0.000 N 
ATOM     21  C   UNL     1      -0.349  11.432  21.201  0.00  0.00    +0.000 A 
ATOM     22  C   UNL     1      -0.696  11.410  22.553  0.00  0.00    +0.000 A 
ATOM     23  C   UNL     1      -0.750  10.166  23.194  0.00  0.00    +0.000 A 
ATOM     24  C   UNL     1      -0.464   8.996  22.500  0.00  0.00    +0.000 A 
ATOM     25  C   UNL     1      -0.116   9.036  21.141  0.00  0.00    +0.000 A 
ATOM     26  C   UNL     1      -0.050  10.280  20.471  0.00  0.00    +0.000 A 
ATOM     27  H   UNL     1      -0.402  13.460  20.594  0.00  0.00    +0.000 HD
ENDBRANCH  17  18
ENDBRANCH  16  17
ENDBRANCH   3  16
TORSDOF 4
ENDMDL
MODEL 2
REMARK VINA RESULT:      -8.3      1.069      2.588
REMARK  Name = 
REMARK  6 active torsions:
REMARK  status: ('A' for Active; 'I' for Inactive)
REMARK    1  A    between atoms: C_1  and  C_2
REMARK    2  A    between atoms: C_4  and  C_5
REMARK    3  A    between atoms: N_7  and  C_8
REMARK    4  A    between atoms: C_8  and  C_9
REMARK    5  A    between atoms: C_9  and  C_10
REMARK    6  A    between atoms: C_20  and  C_21
REMARK                            x       y       z     vdW  Elec       q    Type
REMARK                         _______ _______ _______ _____ _____    ______ ____
ROOT
ATOM      1  C   UNL     1       2.810   6.947  18.543  0.00  0.00    +0.000 C 
ATOM      2  O   UNL     1       2.541   7.010  19.734  0.00  0.00    +0.000 OA
ATOM      3  N   UNL     1       2.572   7.991  17.660  0.00  0.00    +0.000 N 
ATOM      4  H   UNL     1       2.902   7.955  16.706  0.00  0.00    +0.000 HD
ENDROOT
BRANCH   1   8
ATOM      5  C   UNL     1       5.949   4.660  15.382  0.00  0.00    +0.000 C 
ATOM      6  C   UNL     1       4.883   4.603  16.441  0.00  0.00    +0.000 A 
ATOM      7  C   UNL     1       4.406   5.773  17.022  0.00  0.00    +0.000 A 
ATOM      8  C   UNL     1       3.388   5.704  17.991  0.00  0.00    +0.000 A 
ATOM      9  C   UNL     1       2.881   4.430  18.332  0.00  0.00    +0.000 A 
ATOM     10  C   UNL     1       1.922   3.810  19.192  0.00  0.00    +0.000 A 
ATOM     11  C   UNL     1       0.984   4.367  20.198  0.00  0.00    +0.000 C 
ATOM     12  N   UNL     1       1.912   2.478  19.035  0.00  0.00    +0.000 NA
ATOM     13  O   UNL     1       2.866   2.199  18.083  0.00  0.00    +0.000 OA
ATOM     14  C   UNL     1       3.454   3.352  17.667  0.00  0.00    +0.000 A 
ATOM     15  N   UNL     1       4.430   3.374  16.743  0.00  0.00    +0.000 NA
ENDBRANCH   1   8
BRANCH   3  16
ATOM     16  C   UNL     1       2.066   9.249  18.192  0.00  0.00    +0.000 C 
BRANCH  16  17
ATOM     17  C   UNL     1       0.560   9.452  18.016  0.00  0.00    +0.000 C 
BRANCH  17  18
ATOM     18  C   UNL     1       0.016  10.412  19.033  0.00  0.00    +0.000 A 
ATOM     19  C   UNL     1      -0.409  11.701  18.776  0.00  0.00    +0.000 A 
ATOM     20  N   UNL     1      -0.875  12.246  19.941  0.00  0.00    +0.000 N 
ATOM     21  C   UNL     1      -0.762  11.338  20.968  0.00  0.00    +0.000 A 
ATOM     22  C   UNL     1      -1.111  11.463  22.315  0.00  0.00    +0.000 A 
ATOM     23  C   UNL     1      -0.892  10.362  23.152  0.00  0.00    +0.000 A 
ATOM     24  C   UNL     1      -0.343   9.187  22.651  0.00  0.00    +0.000 A 
ATOM     25  C   UNL     1       0.003   9.079  21.295  0.00  0.00    +0.000 A 
ATOM     26  C   UNL     1      -0.204  10.177  20.429  0.00  0.00    +0.000 A 
ATOM     27  H   UNL     1      -1.262  13.174  20.040  0.00  0.00    +0.000 HD
ENDBRANCH  17  18
ENDBRANCH  16  17
ENDBRANCH   3  16
TORSDOF 4
ENDMDL
MODEL 3
REMARK VINA RESULT:      -8.3      5.387      8.082
REMARK  Name = 
REMARK  6 active torsions:
REMARK  status: ('A' for Active; 'I' for Inactive)
REMARK    1  A    between atoms: C_1  and  C_2
REMARK    2  A    between atoms: C_4  and  C_5
REMARK    3  A    between atoms: N_7  and  C_8
REMARK    4  A    between atoms: C_8  and  C_9
REMARK    5  A    between atoms: C_9  and  C_10
REMARK    6  A    between atoms: C_20  and  C_21
REMARK                            x       y       z     vdW  Elec       q    Type
REMARK                         _______ _______ _______ _____ _____    ______ ____
ROOT
ATOM      1  C   UNL     1       7.413   6.289  17.796  0.00  0.00    +0.000 C 
ATOM      2  O   UNL     1       7.779   5.822  18.865  0.00  0.00    +0.000 OA
ATOM      3  N   UNL     1       7.631   7.612  17.436  0.00  0.00    +0.000 N 
ATOM      4  H   UNL     1       7.417   7.943  16.507  0.00  0.00    +0.000 HD
ENDROOT
BRANCH   1   8
ATOM      5  C   UNL     1       6.991   4.262  13.236  0.00  0.00    +0.000 C 
ATOM      6  C   UNL     1       6.463   4.482  14.627  0.00  0.00    +0.000 A 
ATOM      7  C   UNL     1       7.200   5.213  15.552  0.00  0.00    +0.000 A 
ATOM      8  C   UNL     1       6.680   5.433  16.840  0.00  0.00    +0.000 A 
ATOM      9  C   UNL     1       5.407   4.899  17.142  0.00  0.00    +0.000 A 
ATOM     10  C   UNL     1       4.464   4.814  18.212  0.00  0.00    +0.000 A 
ATOM     11  C   UNL     1       4.496   5.321  19.607  0.00  0.00    +0.000 C 
ATOM     12  N   UNL     1       3.367   4.133  17.846  0.00  0.00    +0.000 NA
ATOM     13  O   UNL     1       3.575   3.750  16.541  0.00  0.00    +0.000 OA
ATOM     14  C   UNL     1       4.788   4.193  16.117  0.00  0.00    +0.000 A 
ATOM     15  N   UNL     1       5.253   3.954  14.879  0.00  0.00    +0.000 NA
ENDBRANCH   1   8
BRANCH   3  16
ATOM     16  C   UNL     1       8.410   8.456  18.332  0.00  0.00    +0.000 C 
BRANCH  16  17
ATOM     17  C   UNL     1       8.505   9.921  17.901  0.00  0.00    +0.000 C 
BRANCH  17  18
ATOM     18  C   UNL     1       9.319  10.724  18.873  0.00  0.00    +0.000 A 
ATOM     19  C   UNL     1       9.270  10.612  20.249  0.00  0.00    +0.000 A 
ATOM     20  N   UNL     1      10.183  11.476  20.788  0.00  0.00    +0.000 N 
ATOM     21  C   UNL     1      10.835  12.162  19.790  0.00  0.00    +0.000 A 
ATOM     22  C   UNL     1      11.835  13.133  19.877  0.00  0.00    +0.000 A 
ATOM     23  C   UNL     1      12.333  13.667  18.683  0.00  0.00    +0.000 A 
ATOM     24  C   UNL     1      11.842  13.241  17.455  0.00  0.00    +0.000 A 
ATOM     25  C   UNL     1      10.836  12.266  17.384  0.00  0.00    +0.000 A 
ATOM     26  C   UNL     1      10.312  11.713  18.576  0.00  0.00    +0.000 A 
ATOM     27  H   UNL     1      10.371  11.589  21.775  0.00  0.00    +0.000 HD
ENDBRANCH  17  18
ENDBRANCH  16  17
ENDBRANCH   3  16
TORSDOF 4
ENDMDL
MODEL 4
REMARK VINA RESULT:      -8.2      3.626      5.862
REMARK  Name = 
REMARK  6 active torsions:
REMARK  status: ('A' for Active; 'I' for Inactive)
REMARK    1  A    between atoms: C_1  and  C_2
REMARK    2  A    between atoms: C_4  and  C_5
REMARK    3  A    between atoms: N_7  and  C_8
REMARK    4  A    between atoms: C_8  and  C_9
REMARK    5  A    between atoms: C_9  and  C_10
REMARK    6  A    between atoms: C_20  and  C_21
REMARK                            x       y       z     vdW  Elec       q    Type
REMARK                         _______ _______ _______ _____ _____    ______ ____
ROOT
ATOM      1  C   UNL     1       4.951   3.208  17.783  0.00  0.00    +0.000 C 
ATOM      2  O   UNL     1       5.280   3.430  18.939  0.00  0.00    +0.000 OA
ATOM      3  N   UNL     1       4.001   2.256  17.439  0.00  0.00    +0.000 N 
ATOM      4  H   UNL     1       3.669   2.168  16.490  0.00  0.00    +0.000 HD
ENDROOT
BRANCH   1   8
ATOM      5  C   UNL     1       5.981   3.717  12.909  0.00  0.00    +0.000 C 
ATOM      6  C   UNL     1       6.122   4.177  14.333  0.00  0.00    +0.000 A 
ATOM      7  C   UNL     1       5.436   3.527  15.354  0.00  0.00    +0.000 A 
ATOM      8  C   UNL     1       5.601   3.953  16.684  0.00  0.00    +0.000 A 
ATOM      9  C   UNL     1       6.475   5.035  16.932  0.00  0.00    +0.000 A 
ATOM     10  C   UNL     1       6.980   5.831  18.006  0.00  0.00    +0.000 A 
ATOM     11  C   UNL     1       6.713   5.814  19.466  0.00  0.00    +0.000 C 
ATOM     12  N   UNL     1       7.841   6.761  17.565  0.00  0.00    +0.000 NA
ATOM     13  O   UNL     1       7.907   6.600  16.199  0.00  0.00    +0.000 OA
ATOM     14  C   UNL     1       7.092   5.584  15.814  0.00  0.00    +0.000 A 
ATOM     15  N   UNL     1       6.956   5.212  14.529  0.00  0.00    +0.000 NA
ENDBRANCH   1   8
BRANCH   3  16
ATOM     16  C   UNL     1       3.299   1.557  18.507  0.00  0.00    +0.000 C 
BRANCH  16  17
ATOM     17  C   UNL     1       1.883   2.068  18.776  0.00  0.00    +0.000 C 
BRANCH  17  18
ATOM     18  C   UNL     1       1.901   3.306  19.624  0.00  0.00    +0.000 A 
ATOM     19  C   UNL     1       1.814   3.339  21.002  0.00  0.00    +0.000 A 
ATOM     20  N   UNL     1       1.907   4.640  21.414  0.00  0.00    +0.000 N 
ATOM     21  C   UNL     1       2.050   5.471  20.327  0.00  0.00    +0.000 A 
ATOM     22  C   UNL     1       2.181   6.861  20.276  0.00  0.00    +0.000 A 
ATOM     23  C   UNL     1       2.323   7.458  19.018  0.00  0.00    +0.000 A 
ATOM     24  C   UNL     1       2.330   6.686  17.862  0.00  0.00    +0.000 A 
ATOM     25  C   UNL     1       2.197   5.290  17.931  0.00  0.00    +0.000 A 
ATOM     26  C   UNL     1       2.048   4.663  19.189  0.00  0.00    +0.000 A 
ATOM     27  H   UNL     1       1.889   4.953  22.374  0.00  0.00    +0.000 HD
ENDBRANCH  17  18
ENDBRANCH  16  17
ENDBRANCH   3  16
TORSDOF 4
ENDMDL
MODEL 5
REMARK VINA RESULT:      -8.2      2.136      7.582
REMARK  Name = 
REMARK  6 active torsions:
REMARK  status: ('A' for Active; 'I' for Inactive)
REMARK    1  A    between atoms: C_1  and  C_2
REMARK    2  A    between atoms: C_4  and  C_5
REMARK    3  A    between atoms: N_7  and  C_8
REMARK    4  A    between atoms: C_8  and  C_9
REMARK    5  A    between atoms: C_9  and  C_10
REMARK    6  A    between atoms: C_20  and  C_21
REMARK                            x       y       z     vdW  Elec       q    Type
REMARK                         _______ _______ _______ _____ _____    ______ ____
ROOT
ATOM      1  C   UNL     1       1.942   5.792  20.280  0.00  0.00    +0.000 C 
ATOM      2  O   UNL     1       2.628   5.289  21.159  0.00  0.00    +0.000 OA
ATOM      3  N   UNL     1       1.532   5.095  19.153  0.00  0.00    +0.000 N 
ATOM      4  H   UNL     1       0.878   5.498  18.498  0.00  0.00    +0.000 HD
ENDROOT
BRANCH   1   8
ATOM      5  C   UNL     1      -0.501   9.433  22.699  0.00  0.00    +0.000 C 
ATOM      6  C   UNL     1       0.337   8.960  21.543  0.00  0.00    +0.000 A 
ATOM      7  C   UNL     1       0.785   7.645  21.491  0.00  0.00    +0.000 A 
ATOM      8  C   UNL     1       1.544   7.211  20.389  0.00  0.00    +0.000 A 
ATOM      9  C   UNL     1       1.817   8.143  19.362  0.00  0.00    +0.000 A 
ATOM     10  C   UNL     1       2.495   8.247  18.109  0.00  0.00    +0.000 A 
ATOM     11  C   UNL     1       3.289   7.268  17.324  0.00  0.00    +0.000 C 
ATOM     12  N   UNL     1       2.375   9.477  17.587  0.00  0.00    +0.000 NA
ATOM     13  O   UNL     1       1.630  10.202  18.489  0.00  0.00    +0.000 OA
ATOM     14  C   UNL     1       1.303   9.420  19.551  0.00  0.00    +0.000 A 
ATOM     15  N   UNL     1       0.581   9.876  20.590  0.00  0.00    +0.000 NA
ENDBRANCH   1   8
BRANCH   3  16
ATOM     16  C   UNL     1       1.855   3.678  19.055  0.00  0.00    +0.000 C 
BRANCH  16  17
ATOM     17  C   UNL     1       2.649   3.292  17.806  0.00  0.00    +0.000 C 
BRANCH  17  18
ATOM     18  C   UNL     1       4.095   3.672  17.939  0.00  0.00    +0.000 A 
ATOM     19  C   UNL     1       4.830   3.644  19.109  0.00  0.00    +0.000 A 
ATOM     20  N   UNL     1       6.115   4.017  18.824  0.00  0.00    +0.000 N 
ATOM     21  C   UNL     1       6.242   4.295  17.483  0.00  0.00    +0.000 A 
ATOM     22  C   UNL     1       7.362   4.707  16.757  0.00  0.00    +0.000 A 
ATOM     23  C   UNL     1       7.210   4.913  15.381  0.00  0.00    +0.000 A 
ATOM     24  C   UNL     1       5.980   4.713  14.765  0.00  0.00    +0.000 A 
ATOM     25  C   UNL     1       4.864   4.300  15.509  0.00  0.00    +0.000 A 
ATOM     26  C   UNL     1       4.989   4.089  16.901  0.00  0.00    +0.000 A 
ATOM     27  H   UNL     1       6.871   4.068  19.492  0.00  0.00    +0.000 HD
ENDBRANCH  17  18
ENDBRANCH  16  17
ENDBRANCH   3  16
TORSDOF 4
ENDMDL
MODEL 6
REMARK VINA RESULT:      -8.2      1.394      1.394
REMARK  Name = 
REMARK  6 active torsions:
REMARK  status: ('A' for Active; 'I' for Inactive)
REMARK    1  A    between atoms: C_1  and  C_2
REMARK    2  A    between atoms: C_4  and  C_5
REMARK    3  A    between atoms: N_7  and  C_8
REMARK    4  A    between atoms: C_8  and  C_9
REMARK    5  A    between atoms: C_9  and  C_10
REMARK    6  A    between atoms: C_20  and  C_21
REMARK                            x       y       z     vdW  Elec       q    Type
REMARK                         _______ _______ _______ _____ _____    ______ ____
ROOT
ATOM      1  C   UNL     1       2.939   7.179  17.902  0.00  0.00    +0.000 C 
ATOM      2  O   UNL     1       3.504   7.492  16.864  0.00  0.00    +0.000 OA
ATOM      3  N   UNL     1       2.169   8.067  18.639  0.00  0.00    +0.000 N 
ATOM      4  H   UNL     1       1.625   7.756  19.431  0.00  0.00    +0.000 HD
ENDROOT
BRANCH   1   8
ATOM      5  C   UNL     1       0.909   3.033  19.844  0.00  0.00    +0.000 C 
ATOM      6  C   UNL     1       2.111   3.819  19.396  0.00  0.00    +0.000 A 
ATOM      7  C   UNL     1       1.955   5.073  18.817  0.00  0.00    +0.000 A 
ATOM      8  C   UNL     1       3.091   5.806  18.429  0.00  0.00    +0.000 A 
ATOM      9  C   UNL     1       4.362   5.231  18.655  0.00  0.00    +0.000 A 
ATOM     10  C   UNL     1       5.753   5.502  18.469  0.00  0.00    +0.000 A 
ATOM     11  C   UNL     1       6.468   6.655  17.865  0.00  0.00    +0.000 C 
ATOM     12  N   UNL     1       6.514   4.498  18.928  0.00  0.00    +0.000 NA
ATOM     13  O   UNL     1       5.642   3.549  19.411  0.00  0.00    +0.000 OA
ATOM     14  C   UNL     1       4.361   3.972  19.244  0.00  0.00    +0.000 A 
ATOM     15  N   UNL     1       3.301   3.237  19.622  0.00  0.00    +0.000 NA
ENDBRANCH   1   8
BRANCH   3  16
ATOM     16  C   UNL     1       1.949   9.405  18.105  0.00  0.00    +0.000 C 
BRANCH  16  17
ATOM     17  C   UNL     1       0.478   9.802  17.972  0.00  0.00    +0.000 C 
BRANCH  17  18
ATOM     18  C   UNL     1       0.052  10.703  19.094  0.00  0.00    +0.000 A 
ATOM     19  C   UNL     1      -0.220  12.053  18.983  0.00  0.00    +0.000 A 
ATOM     20  N   UNL     1      -0.616  12.519  20.206  0.00  0.00    +0.000 N 
ATOM     21  C   UNL     1      -0.608  11.499  21.128  0.00  0.00    +0.000 A 
ATOM     22  C   UNL     1      -0.936  11.518  22.486  0.00  0.00    +0.000 A 
ATOM     23  C   UNL     1      -0.846  10.315  23.196  0.00  0.00    +0.000 A 
ATOM     24  C   UNL     1      -0.439   9.145  22.565  0.00  0.00    +0.000 A 
ATOM     25  C   UNL     1      -0.112   9.144  21.200  0.00  0.00    +0.000 A 
ATOM     26  C   UNL     1      -0.190  10.346  20.460  0.00  0.00    +0.000 A 
ATOM     27  H   UNL     1      -0.892  13.470  20.409  0.00  0.00    +0.000 HD
ENDBRANCH  17  18
ENDBRANCH  16  17
ENDBRANCH   3  16
TORSDOF 4
ENDMDL
MODEL 7
REMARK VINA RESULT:      -8.1      2.060      3.678
REMARK  Name = 
REMARK  6 active torsions:
REMARK  status: ('A' for Active; 'I' for Inactive)
REMARK    1  A    between atoms: C_1  and  C_2
REMARK    2  A    between atoms: C_4  and  C_5
REMARK    3  A    between atoms: N_7  and  C_8
REMARK    4  A    between atoms: C_8  and  C_9
REMARK    5  A    between atoms: C_9  and  C_10
REMARK    6  A    between atoms: C_20  and  C_21
REMARK                            x       y       z     vdW  Elec       q    Type
REMARK                         _______ _______ _______ _____ _____    ______ ____
ROOT
ATOM      1  C   UNL     1       2.691   6.636  18.935  0.00  0.00    +0.000 C 
ATOM      2  O   UNL     1       2.604   6.604  20.155  0.00  0.00    +0.000 OA
ATOM      3  N   UNL     1       2.185   7.678  18.171  0.00  0.00    +0.000 N 
ATOM      4  H   UNL     1       2.364   7.734  17.179  0.00  0.00    +0.000 HD
ENDROOT
BRANCH   1   8
ATOM      5  C   UNL     1       6.034   4.970  15.600  0.00  0.00    +0.000 C 
ATOM      6  C   UNL     1       4.927   4.716  16.585  0.00  0.00    +0.000 A 
ATOM      7  C   UNL     1       4.387   5.764  17.322  0.00  0.00    +0.000 A 
ATOM      8  C   UNL     1       3.333   5.513  18.220  0.00  0.00    +0.000 A 
ATOM      9  C   UNL     1       2.855   4.188  18.331  0.00  0.00    +0.000 A 
ATOM     10  C   UNL     1       1.884   3.413  19.035  0.00  0.00    +0.000 A 
ATOM     11  C   UNL     1       0.886   3.776  20.072  0.00  0.00    +0.000 C 
ATOM     12  N   UNL     1       1.924   2.123  18.668  0.00  0.00    +0.000 NA
ATOM     13  O   UNL     1       2.926   2.026  17.729  0.00  0.00    +0.000 OA
ATOM     14  C   UNL     1       3.491   3.246  17.530  0.00  0.00    +0.000 A 
ATOM     15  N   UNL     1       4.504   3.443  16.667  0.00  0.00    +0.000 NA
ENDBRANCH   1   8
BRANCH   3  16
ATOM     16  C   UNL     1       1.607   8.827  18.857  0.00  0.00    +0.000 C 
BRANCH  16  17
ATOM     17  C   UNL     1       1.067   9.915  17.928  0.00  0.00    +0.000 C 
BRANCH  17  18
ATOM     18  C   UNL     1      -0.177  10.541  18.486  0.00  0.00    +0.000 A 
ATOM     19  C   UNL     1      -0.260  11.249  19.670  0.00  0.00    +0.000 A 
ATOM     20  N   UNL     1      -1.543  11.698  19.819  0.00  0.00    +0.000 N 
ATOM     21  C   UNL     1      -2.313  11.296  18.754  0.00  0.00    +0.000 A 
ATOM     22  C   UNL     1      -3.666  11.526  18.490  0.00  0.00    +0.000 A 
ATOM     23  C   UNL     1      -4.200  11.000  17.308  0.00  0.00    +0.000 A 
ATOM     24  C   UNL     1      -3.404  10.272  16.431  0.00  0.00    +0.000 A 
ATOM     25  C   UNL     1      -2.047  10.049  16.711  0.00  0.00    +0.000 A 
ATOM     26  C   UNL     1      -1.484  10.566  17.901  0.00  0.00    +0.000 A 
ATOM     27  H   UNL     1      -1.881  12.258  20.589  0.00  0.00    +0.000 HD
ENDBRANCH  17  18
ENDBRANCH  16  17
ENDBRANCH   3  16
TORSDOF 4
ENDMDL
MODEL 8
REMARK VINA RESULT:      -8.0      2.503      3.223
REMARK  Name = 
REMARK  6 active torsions:
REMARK  status: ('A' for Active; 'I' for Inactive)
REMARK    1  A    between atoms: C_1  and  C_2
REMARK    2  A    between atoms: C_4  and  C_5
REMARK    3  A    between atoms: N_7  and  C_8
REMARK    4  A    between atoms: C_8  and  C_9
REMARK    5  A    between atoms: C_9  and  C_10
REMARK    6  A    between atoms: C_20  and  C_21
REMARK                            x       y       z     vdW  Elec       q    Type
REMARK                         _______ _______ _______ _____ _____    ______ ____
ROOT
ATOM      1  C   UNL     1       2.746   7.256  18.606  0.00  0.00    +0.000 C 
ATOM      2  O   UNL     1       3.281   7.659  17.583  0.00  0.00    +0.000 OA
ATOM      3  N   UNL     1       1.926   8.052  19.393  0.00  0.00    +0.000 N 
ATOM      4  H   UNL     1       1.411   7.666  20.170  0.00  0.00    +0.000 HD
ENDROOT
BRANCH   1   8
ATOM      5  C   UNL     1       1.174   3.127  20.964  0.00  0.00    +0.000 C 
ATOM      6  C   UNL     1       2.239   3.890  20.225  0.00  0.00    +0.000 A 
ATOM      7  C   UNL     1       1.975   5.158  19.723  0.00  0.00    +0.000 A 
ATOM      8  C   UNL     1       2.990   5.870  19.059  0.00  0.00    +0.000 A 
ATOM      9  C   UNL     1       4.258   5.258  18.936  0.00  0.00    +0.000 A 
ATOM     10  C   UNL     1       5.559   5.497  18.394  0.00  0.00    +0.000 A 
ATOM     11  C   UNL     1       6.125   6.642  17.638  0.00  0.00    +0.000 C 
ATOM     12  N   UNL     1       6.384   4.465  18.625  0.00  0.00    +0.000 NA
ATOM     13  O   UNL     1       5.641   3.529  19.309  0.00  0.00    +0.000 OA
ATOM     14  C   UNL     1       4.374   3.988  19.489  0.00  0.00    +0.000 A 
ATOM     15  N   UNL     1       3.429   3.273  20.123  0.00  0.00    +0.000 NA
ENDBRANCH   1   8
BRANCH   3  16
ATOM     16  C   UNL     1       1.617   9.399  18.933  0.00  0.00    +0.000 C 
BRANCH  16  17
ATOM     17  C   UNL     1       0.547   9.467  17.842  0.00  0.00    +0.000 C 
BRANCH  17  18
ATOM     18  C   UNL     1      -0.645  10.258  18.294  0.00  0.00    +0.000 A 
ATOM     19  C   UNL     1      -0.731  10.984  19.467  0.00  0.00    +0.000 A 
ATOM     20  N   UNL     1      -1.951  11.600  19.508  0.00  0.00    +0.000 N 
ATOM     21  C   UNL     1      -2.677  11.291  18.382  0.00  0.00    +0.000 A 
ATOM     22  C   UNL     1      -3.961  11.694  18.006  0.00  0.00    +0.000 A 
ATOM     23  C   UNL     1      -4.461  11.230  16.784  0.00  0.00    +0.000 A 
ATOM     24  C   UNL     1      -3.698  10.394  15.976  0.00  0.00    +0.000 A 
ATOM     25  C   UNL     1      -2.410   9.997  16.368  0.00  0.00    +0.000 A 
ATOM     26  C   UNL     1      -1.884  10.448  17.601  0.00  0.00    +0.000 A 
ATOM     27  H   UNL     1      -2.276  12.208  20.247  0.00  0.00    +0.000 HD
ENDBRANCH  17  18
ENDBRANCH  16  17
ENDBRANCH   3  16
TORSDOF 4
ENDMDL
MODEL 9
REMARK VINA RESULT:      -7.9      2.837      8.001
REMARK  Name = 
REMARK  6 active torsions:
REMARK  status: ('A' for Active; 'I' for Inactive)
REMARK    1  A    between atoms: C_1  and  C_2
REMARK    2  A    between atoms: C_4  and  C_5
REMARK    3  A    between atoms: N_7  and  C_8
REMARK    4  A    between atoms: C_8  and  C_9
REMARK    5  A    between atoms: C_9  and  C_10
REMARK    6  A    between atoms: C_20  and  C_21
REMARK                            x       y       z     vdW  Elec       q    Type
REMARK                         _______ _______ _______ _____ _____    ______ ____
ROOT
ATOM      1  C   UNL     1       0.214  10.234  18.658  0.00  0.00    +0.000 C 
ATOM      2  O   UNL     1      -0.737   9.753  18.059  0.00  0.00    +0.000 OA
ATOM      3  N   UNL     1       1.502   9.725  18.561  0.00  0.00    +0.000 N 
ATOM      4  H   UNL     1       2.286  10.205  18.977  0.00  0.00    +0.000 HD
ENDROOT
BRANCH   1   8
ATOM      5  C   UNL     1       0.100  15.187  19.382  0.00  0.00    +0.000 C 
ATOM      6  C   UNL     1      -0.021  13.783  19.906  0.00  0.00    +0.000 A 
ATOM      7  C   UNL     1       0.090  12.699  19.043  0.00  0.00    +0.000 A 
ATOM      8  C   UNL     1       0.002  11.391  19.553  0.00  0.00    +0.000 A 
ATOM      9  C   UNL     1      -0.189  11.232  20.944  0.00  0.00    +0.000 A 
ATOM     10  C   UNL     1      -0.345  10.214  21.935  0.00  0.00    +0.000 A 
ATOM     11  C   UNL     1      -0.382   8.733  21.840  0.00  0.00    +0.000 C 
ATOM     12  N   UNL     1      -0.493  10.740  23.160  0.00  0.00    +0.000 NA
ATOM     13  O   UNL     1      -0.450  12.106  22.995  0.00  0.00    +0.000 OA
ATOM     14  C   UNL     1      -0.279  12.407  21.681  0.00  0.00    +0.000 A 
ATOM     15  N   UNL     1      -0.209  13.672  21.232  0.00  0.00    +0.000 NA
ENDBRANCH   1   8
BRANCH   3  16
ATOM     16  C   UNL     1       1.747   8.628  17.634  0.00  0.00    +0.000 C 
BRANCH  16  17
ATOM     17  C   UNL     1       2.891   7.698  18.041  0.00  0.00    +0.000 C 
BRANCH  17  18
ATOM     18  C   UNL     1       2.453   6.723  19.094  0.00  0.00    +0.000 A 
ATOM     19  C   UNL     1       2.335   6.995  20.443  0.00  0.00    +0.000 A 
ATOM     20  N   UNL     1       1.871   5.874  21.075  0.00  0.00    +0.000 N 
ATOM     21  C   UNL     1       1.681   4.861  20.164  0.00  0.00    +0.000 A 
ATOM     22  C   UNL     1       1.223   3.556  20.360  0.00  0.00    +0.000 A 
ATOM     23  C   UNL     1       1.117   2.725  19.238  0.00  0.00    +0.000 A 
ATOM     24  C   UNL     1       1.460   3.191  17.974  0.00  0.00    +0.000 A 
ATOM     25  C   UNL     1       1.919   4.505  17.794  0.00  0.00    +0.000 A 
ATOM     26  C   UNL     1       2.040   5.363  18.911  0.00  0.00    +0.000 A 
ATOM     27  H   UNL     1       1.677   5.796  22.063  0.00  0.00    +0.000 HD
ENDBRANCH  17  18
ENDBRANCH  16  17
ENDBRANCH   3  16
TORSDOF 4
ENDMDL
