MODEL 1
REMARK VINA RESULT:      -8.9      0.000      0.000
REMARK  Name = 
REMARK  9 active torsions:
REMARK  status: ('A' for Active; 'I' for Inactive)
REMARK    1  A    between atoms: C_1  and  C_2
REMARK    2  A    between atoms: C_5  and  C_6
REMARK    3  A    between atoms: C_7  and  C_8
REMARK    4  A    between atoms: C_8  and  O_9
REMARK    5  A    between atoms: O_9  and  C_10
REMARK    6  A    between atoms: C_14  and  C_15
REMARK    7  A    between atoms: N_17  and  C_18
REMARK    8  A    between atoms: C_22  and  C_23
REMARK    9  A    between atoms: N_25  and  C_26
REMARK                            x       y       z     vdW  Elec       q    Type
REMARK                         _______ _______ _______ _____ _____    ______ ____
ROOT
ATOM      1  C   UNL     1       1.784   5.725  20.386  0.00  0.00    +0.000 C 
ATOM      2  O   UNL     1       0.588   5.536  20.567  0.00  0.00    +0.000 OA
ATOM      3  N   UNL     1       2.393   6.948  20.113  0.00  0.00    +0.000 N 
ATOM      4  H   UNL     1       3.351   6.946  19.787  0.00  0.00    +0.000 HD
ENDROOT
BRANCH   1   9
ATOM      5  C   UNL     1       4.547   3.426  19.243  0.00  0.00    +0.000 A 
ATOM      6  C   UNL     1       4.425   2.347  20.130  0.00  0.00    +0.000 A 
ATOM      7  C   UNL     1       3.387   2.332  21.079  0.00  0.00    +0.000 A 
ATOM      8  C   UNL     1       2.492   3.404  21.182  0.00  0.00    +0.000 A 
ATOM      9  C   UNL     1       2.640   4.508  20.338  0.00  0.00    +0.000 A 
ATOM     10  C   UNL     1       3.644   4.485  19.365  0.00  0.00    +0.000 A 
BRANCH   5  11
ATOM     11  O   UNL     1       5.536   3.448  18.307  0.00  0.00    +0.000 OA
BRANCH  11  12
ATOM     12  C   UNL     1       5.119   3.816  16.967  0.00  0.00    +0.000 C 
BRANCH  12  19
ATOM     13  C   UNL     1       6.042   3.789  13.857  0.00  0.00    +0.000 C 
ATOM     14  C   UNL     1       6.546   4.648  14.953  0.00  0.00    +0.000 A 
ATOM     15  N   UNL     1       7.510   5.542  14.716  0.00  0.00    +0.000 NA
ATOM     16  O   UNL     1       7.755   6.165  15.922  0.00  0.00    +0.000 OA
ATOM     17  C   UNL     1       6.938   5.646  16.878  0.00  0.00    +0.000 A 
ATOM     18  C   UNL     1       7.088   6.211  18.232  0.00  0.00    +0.000 C 
ATOM     19  C   UNL     1       6.147   4.666  16.319  0.00  0.00    +0.000 A 
ENDBRANCH  12  19
ENDBRANCH  11  12
ENDBRANCH   5  11
ENDBRANCH   1   9
BRANCH   3  20
ATOM     20  C   UNL     1       1.696   8.186  20.046  0.00  0.00    +0.000 A 
ATOM     21  C   UNL     1       1.595   8.912  18.858  0.00  0.00    +0.000 A 
ATOM     22  C   UNL     1       0.946  10.148  18.821  0.00  0.00    +0.000 A 
ATOM     23  C   UNL     1       0.360  10.666  19.969  0.00  0.00    +0.000 A 
ATOM     24  C   UNL     1       0.393   9.935  21.161  0.00  0.00    +0.000 A 
ATOM     25  C   UNL     1       1.081   8.700  21.199  0.00  0.00    +0.000 A 
BRANCH  24  26
ATOM     26  C   UNL     1      -0.263  10.436  22.418  0.00  0.00    +0.000 C 
ATOM     27  O   UNL     1       0.094   9.996  23.498  0.00  0.00    +0.000 OA
ATOM     28  N   UNL     1      -1.292  11.361  22.262  0.00  0.00    +0.000 N 
ATOM     29  H   UNL     1      -1.572  11.661  21.339  0.00  0.00    +0.000 HD
BRANCH  28  30
ATOM     30  C   UNL     1      -2.019  11.903  23.378  0.00  0.00    +0.000 C 
ATOM     31  C   UNL     1      -3.404  12.479  23.204  0.00  0.00    +0.000 C 
ATOM     32  C   UNL     1      -2.242  13.387  23.476  0.00  0.00    +0.000 C 
ENDBRANCH  28  30
ENDBRANCH  24  26
ENDBRANCH   3  20
TORSDOF 7
ENDMDL
MODEL 2
REMARK VINA RESULT:      -8.8      0.514      1.520
REMARK  Name = 
REMARK  9 active torsions:
REMARK  status: ('A' for Active; 'I' for Inactive)
REMARK    1  A    between atoms: C_1  and  C_2
REMARK    2  A    between atoms: C_5  and  C_6
REMARK    3  A    between atoms: C_7  and  C_8
REMARK    4  A    between atoms: C_8  and  O_9
REMARK    5  A    between atoms: O_9  and  C_10
REMARK    6  A    between atoms: C_14  and  C_15
REMARK    7  A    between atoms: N_17  and  C_18
REMARK    8  A    between atoms: C_22  and  C_23
REMARK    9  A    between atoms: N_25  and  C_26
REMARK                            x       y       z     vdW  Elec       q    Type
REMARK                         _______ _______ _______ _____ _____    ______ ____
ROOT
ATOM      1  C   UNL     1       1.786   5.740  20.225  0.00  0.00    +0.000 C 
ATOM      2  O   UNL     1       0.605   5.589  20.514  0.00  0.00    +0.000 OA
ATOM      3  N   UNL     1       2.404   6.942  19.887  0.00  0.00    +0.000 N 
ATOM      4  H   UNL     1       3.329   6.908  19.478  0.00  0.00    +0.000 HD
ENDROOT
BRANCH   1   9
ATOM      5  C   UNL     1       4.172   3.235  18.725  0.00  0.00    +0.000 A 
ATOM      6  C   UNL     1       4.266   2.268  19.736  0.00  0.00    +0.000 A 
ATOM      7  C   UNL     1       3.493   2.396  20.904  0.00  0.00    +0.000 A 
ATOM      8  C   UNL     1       2.656   3.502  21.094  0.00  0.00    +0.000 A 
ATOM      9  C   UNL     1       2.598   4.498  20.115  0.00  0.00    +0.000 A 
ATOM     10  C   UNL     1       3.333   4.331  18.937  0.00  0.00    +0.000 A 
BRANCH   5  11
ATOM     11  O   UNL     1       4.902   3.118  17.581  0.00  0.00    +0.000 OA
BRANCH  11  12
ATOM     12  C   UNL     1       4.560   4.053  16.525  0.00  0.00    +0.000 C 
BRANCH  12  19
ATOM     13  C   UNL     1       6.453   6.204  18.047  0.00  0.00    +0.000 C 
ATOM     14  C   UNL     1       6.605   5.659  16.678  0.00  0.00    +0.000 A 
ATOM     15  N   UNL     1       7.616   6.061  15.905  0.00  0.00    +0.000 NA
ATOM     16  O   UNL     1       7.474   5.384  14.711  0.00  0.00    +0.000 OA
ATOM     17  C   UNL     1       6.381   4.577  14.772  0.00  0.00    +0.000 A 
ATOM     18  C   UNL     1       6.092   3.788  13.560  0.00  0.00    +0.000 C 
ATOM     19  C   UNL     1       5.780   4.716  16.004  0.00  0.00    +0.000 A 
ENDBRANCH  12  19
ENDBRANCH  11  12
ENDBRANCH   5  11
ENDBRANCH   1   9
BRANCH   3  20
ATOM     20  C   UNL     1       1.741   8.200  19.869  0.00  0.00    +0.000 A 
ATOM     21  C   UNL     1       1.643   8.966  18.705  0.00  0.00    +0.000 A 
ATOM     22  C   UNL     1       1.029  10.220  18.717  0.00  0.00    +0.000 A 
ATOM     23  C   UNL     1       0.472  10.717  19.889  0.00  0.00    +0.000 A 
ATOM     24  C   UNL     1       0.501   9.948  21.057  0.00  0.00    +0.000 A 
ATOM     25  C   UNL     1       1.156   8.694  21.046  0.00  0.00    +0.000 A 
BRANCH  24  26
ATOM     26  C   UNL     1      -0.124  10.427  22.338  0.00  0.00    +0.000 C 
ATOM     27  O   UNL     1       0.225   9.933  23.397  0.00  0.00    +0.000 OA
ATOM     28  N   UNL     1      -1.116  11.396  22.226  0.00  0.00    +0.000 N 
ATOM     29  H   UNL     1      -1.392  11.741  21.318  0.00  0.00    +0.000 HD
BRANCH  28  30
ATOM     30  C   UNL     1      -1.812  11.924  23.369  0.00  0.00    +0.000 C 
ATOM     31  C   UNL     1      -3.253  12.365  23.272  0.00  0.00    +0.000 C 
ATOM     32  C   UNL     1      -2.163  13.385  23.423  0.00  0.00    +0.000 C 
ENDBRANCH  28  30
ENDBRANCH  24  26
ENDBRANCH   3  20
TORSDOF 7
ENDMDL
MODEL 3
REMARK VINA RESULT:      -8.7      3.353      4.498
REMARK  Name = 
REMARK  9 active torsions:
REMARK  status: ('A' for Active; 'I' for Inactive)
REMARK    1  A    between atoms: C_1  and  C_2
REMARK    2  A    between atoms: C_5  and  C_6
REMARK    3  A    between atoms: C_7  and  C_8
REMARK    4  A    between atoms: C_8  and  O_9
REMARK    5  A    between atoms: O_9  and  C_10
REMARK    6  A    between atoms: C_14  and  C_15
REMARK    7  A    between atoms: N_17  and  C_18
REMARK    8  A    between atoms: C_22  and  C_23
REMARK    9  A    between atoms: N_25  and  C_26
REMARK                            x       y       z     vdW  Elec       q    Type
REMARK                         _______ _______ _______ _____ _____    ______ ____
ROOT
ATOM      1  C   UNL     1       1.892   8.760  18.214  0.00  0.00    +0.000 C 
ATOM      2  O   UNL     1       2.347   9.177  17.156  0.00  0.00    +0.000 OA
ATOM      3  N   UNL     1       1.082   9.469  19.098  0.00  0.00    +0.000 N 
ATOM      4  H   UNL     1       0.935   9.090  20.025  0.00  0.00    +0.000 HD
ENDROOT
BRANCH   1   9
ATOM      5  C   UNL     1       3.327   5.286  17.899  0.00  0.00    +0.000 A 
ATOM      6  C   UNL     1       3.348   4.849  19.231  0.00  0.00    +0.000 A 
ATOM      7  C   UNL     1       2.829   5.671  20.248  0.00  0.00    +0.000 A 
ATOM      8  C   UNL     1       2.325   6.944  19.956  0.00  0.00    +0.000 A 
ATOM      9  C   UNL     1       2.351   7.409  18.639  0.00  0.00    +0.000 A 
ATOM     10  C   UNL     1       2.822   6.561  17.632  0.00  0.00    +0.000 A 
BRANCH   5  11
ATOM     11  O   UNL     1       3.811   4.498  16.900  0.00  0.00    +0.000 OA
BRANCH  11  12
ATOM     12  C   UNL     1       5.140   3.958  17.121  0.00  0.00    +0.000 C 
BRANCH  12  19
ATOM     13  C   UNL     1       5.939   3.770  13.982  0.00  0.00    +0.000 C 
ATOM     14  C   UNL     1       6.498   4.672  15.016  0.00  0.00    +0.000 A 
ATOM     15  N   UNL     1       7.463   5.538  14.699  0.00  0.00    +0.000 NA
ATOM     16  O   UNL     1       7.765   6.214  15.864  0.00  0.00    +0.000 OA
ATOM     17  C   UNL     1       6.979   5.753  16.874  0.00  0.00    +0.000 A 
ATOM     18  C   UNL     1       7.190   6.379  18.193  0.00  0.00    +0.000 C 
ATOM     19  C   UNL     1       6.153   4.760  16.394  0.00  0.00    +0.000 A 
ENDBRANCH  12  19
ENDBRANCH  11  12
ENDBRANCH   5  11
ENDBRANCH   1   9
BRANCH   3  20
ATOM     20  C   UNL     1       0.626  10.796  18.869  0.00  0.00    +0.000 A 
ATOM     21  C   UNL     1      -0.728  11.091  18.694  0.00  0.00    +0.000 A 
ATOM     22  C   UNL     1      -1.154  12.394  18.423  0.00  0.00    +0.000 A 
ATOM     23  C   UNL     1      -0.232  13.431  18.353  0.00  0.00    +0.000 A 
ATOM     24  C   UNL     1       1.124  13.178  18.582  0.00  0.00    +0.000 A 
ATOM     25  C   UNL     1       1.552  11.851  18.821  0.00  0.00    +0.000 A 
BRANCH  24  26
ATOM     26  C   UNL     1       2.152  14.276  18.556  0.00  0.00    +0.000 C 
ATOM     27  O   UNL     1       1.850  15.391  18.947  0.00  0.00    +0.000 OA
ATOM     28  N   UNL     1       3.401  13.951  18.035  0.00  0.00    +0.000 N 
ATOM     29  H   UNL     1       3.583  13.021  17.688  0.00  0.00    +0.000 HD
BRANCH  28  30
ATOM     30  C   UNL     1       4.467  14.912  17.930  0.00  0.00    +0.000 C 
ATOM     31  C   UNL     1       5.908  14.472  17.836  0.00  0.00    +0.000 C 
ATOM     32  C   UNL     1       5.401  15.121  19.089  0.00  0.00    +0.000 C 
ENDBRANCH  28  30
ENDBRANCH  24  26
ENDBRANCH   3  20
TORSDOF 7
ENDMDL
MODEL 4
REMARK VINA RESULT:      -8.7      2.940      3.518
REMARK  Name = 
REMARK  9 active torsions:
REMARK  status: ('A' for Active; 'I' for Inactive)
REMARK    1  A    between atoms: C_1  and  C_2
REMARK    2  A    between atoms: C_5  and  C_6
REMARK    3  A    between atoms: C_7  and  C_8
REMARK    4  A    between atoms: C_8  and  O_9
REMARK    5  A    between atoms: O_9  and  C_10
REMARK    6  A    between atoms: C_14  and  C_15
REMARK    7  A    between atoms: N_17  and  C_18
REMARK    8  A    between atoms: C_22  and  C_23
REMARK    9  A    between atoms: N_25  and  C_26
REMARK                            x       y       z     vdW  Elec       q    Type
REMARK                         _______ _______ _______ _____ _____    ______ ____
ROOT
ATOM      1  C   UNL     1       1.857   8.378  18.293  0.00  0.00    +0.000 C 
ATOM      2  O   UNL     1       2.306   8.903  17.281  0.00  0.00    +0.000 OA
ATOM      3  N   UNL     1       0.950   8.948  19.183  0.00  0.00    +0.000 N 
ATOM      4  H   UNL     1       0.809   8.499  20.079  0.00  0.00    +0.000 HD
ENDROOT
BRANCH   1   9
ATOM      5  C   UNL     1       3.462   5.001  17.803  0.00  0.00    +0.000 A 
ATOM      6  C   UNL     1       3.636   4.558  19.121  0.00  0.00    +0.000 A 
ATOM      7  C   UNL     1       3.168   5.340  20.193  0.00  0.00    +0.000 A 
ATOM      8  C   UNL     1       2.563   6.582  19.965  0.00  0.00    +0.000 A 
ATOM      9  C   UNL     1       2.435   7.056  18.656  0.00  0.00    +0.000 A 
ATOM     10  C   UNL     1       2.859   6.244  17.599  0.00  0.00    +0.000 A 
BRANCH   5  11
ATOM     11  O   UNL     1       3.896   4.249  16.753  0.00  0.00    +0.000 OA
BRANCH  11  12
ATOM     12  C   UNL     1       5.237   3.711  16.884  0.00  0.00    +0.000 C 
BRANCH  12  19
ATOM     13  C   UNL     1       6.136   3.695  13.767  0.00  0.00    +0.000 C 
ATOM     14  C   UNL     1       6.609   4.588  14.851  0.00  0.00    +0.000 A 
ATOM     15  N   UNL     1       7.528   5.522  14.597  0.00  0.00    +0.000 NA
ATOM     16  O   UNL     1       7.755   6.168  15.795  0.00  0.00    +0.000 OA
ATOM     17  C   UNL     1       6.970   5.621  16.762  0.00  0.00    +0.000 A 
ATOM     18  C   UNL     1       7.104   6.206  18.110  0.00  0.00    +0.000 C 
ATOM     19  C   UNL     1       6.220   4.600  16.219  0.00  0.00    +0.000 A 
ENDBRANCH  12  19
ENDBRANCH  11  12
ENDBRANCH   5  11
ENDBRANCH   1   9
BRANCH   3  20
ATOM     20  C   UNL     1       0.371  10.235  19.013  0.00  0.00    +0.000 A 
ATOM     21  C   UNL     1       1.081  11.406  19.289  0.00  0.00    +0.000 A 
ATOM     22  C   UNL     1       0.482  12.661  19.161  0.00  0.00    +0.000 A 
ATOM     23  C   UNL     1      -0.832  12.768  18.723  0.00  0.00    +0.000 A 
ATOM     24  C   UNL     1      -1.552  11.618  18.382  0.00  0.00    +0.000 A 
ATOM     25  C   UNL     1      -0.950  10.348  18.548  0.00  0.00    +0.000 A 
BRANCH  24  26
ATOM     26  C   UNL     1      -2.962  11.687  17.866  0.00  0.00    +0.000 C 
ATOM     27  O   UNL     1      -3.191  11.399  16.703  0.00  0.00    +0.000 OA
ATOM     28  N   UNL     1      -3.935  12.128  18.758  0.00  0.00    +0.000 N 
ATOM     29  H   UNL     1      -3.681  12.392  19.699  0.00  0.00    +0.000 HD
BRANCH  28  30
ATOM     30  C   UNL     1      -5.318  12.264  18.387  0.00  0.00    +0.000 C 
ATOM     31  C   UNL     1      -6.422  12.034  19.391  0.00  0.00    +0.000 C 
ATOM     32  C   UNL     1      -6.190  11.043  18.291  0.00  0.00    +0.000 C 
ENDBRANCH  28  30
ENDBRANCH  24  26
ENDBRANCH   3  20
TORSDOF 7
ENDMDL
MODEL 5
REMARK VINA RESULT:      -8.7      2.184      3.332
REMARK  Name = 
REMARK  9 active torsions:
REMARK  status: ('A' for Active; 'I' for Inactive)
REMARK    1  A    between atoms: C_1  and  C_2
REMARK    2  A    between atoms: C_5  and  C_6
REMARK    3  A    between atoms: C_7  and  C_8
REMARK    4  A    between atoms: C_8  and  O_9
REMARK    5  A    between atoms: O_9  and  C_10
REMARK    6  A    between atoms: C_14  and  C_15
REMARK    7  A    between atoms: N_17  and  C_18
REMARK    8  A    between atoms: C_22  and  C_23
REMARK    9  A    between atoms: N_25  and  C_26
REMARK                            x       y       z     vdW  Elec       q    Type
REMARK                         _______ _______ _______ _____ _____    ______ ____
ROOT
ATOM      1  C   UNL     1       2.044   6.863  19.961  0.00  0.00    +0.000 C 
ATOM      2  O   UNL     1       2.478   7.589  19.075  0.00  0.00    +0.000 OA
ATOM      3  N   UNL     1       1.215   7.250  21.012  0.00  0.00    +0.000 N 
ATOM      4  H   UNL     1       1.087   6.610  21.785  0.00  0.00    +0.000 HD
ENDROOT
BRANCH   1   9
ATOM      5  C   UNL     1       3.980   3.830  18.832  0.00  0.00    +0.000 A 
ATOM      6  C   UNL     1       3.695   2.900  19.841  0.00  0.00    +0.000 A 
ATOM      7  C   UNL     1       2.808   3.239  20.879  0.00  0.00    +0.000 A 
ATOM      8  C   UNL     1       2.231   4.513  20.943  0.00  0.00    +0.000 A 
ATOM      9  C   UNL     1       2.552   5.464  19.971  0.00  0.00    +0.000 A 
ATOM     10  C   UNL     1       3.395   5.096  18.918  0.00  0.00    +0.000 A 
BRANCH   5  11
ATOM     11  O   UNL     1       4.825   3.513  17.812  0.00  0.00    +0.000 OA
BRANCH  11  12
ATOM     12  C   UNL     1       4.541   4.158  16.544  0.00  0.00    +0.000 C 
BRANCH  12  19
ATOM     13  C   UNL     1       6.522   6.290  17.978  0.00  0.00    +0.000 C 
ATOM     14  C   UNL     1       6.636   5.705  16.623  0.00  0.00    +0.000 A 
ATOM     15  N   UNL     1       7.646   6.055  15.823  0.00  0.00    +0.000 NA
ATOM     16  O   UNL     1       7.465   5.352  14.650  0.00  0.00    +0.000 OA
ATOM     17  C   UNL     1       6.349   4.581  14.750  0.00  0.00    +0.000 A 
ATOM     18  C   UNL     1       6.018   3.769  13.564  0.00  0.00    +0.000 C 
ATOM     19  C   UNL     1       5.772   4.770  15.987  0.00  0.00    +0.000 A 
ENDBRANCH  12  19
ENDBRANCH  11  12
ENDBRANCH   5  11
ENDBRANCH   1   9
BRANCH   3  20
ATOM     20  C   UNL     1       0.711   8.570  21.181  0.00  0.00    +0.000 A 
ATOM     21  C   UNL     1       0.697   9.198  22.428  0.00  0.00    +0.000 A 
ATOM     22  C   UNL     1       0.156  10.477  22.586  0.00  0.00    +0.000 A 
ATOM     23  C   UNL     1      -0.352  11.162  21.489  0.00  0.00    +0.000 A 
ATOM     24  C   UNL     1      -0.298  10.583  20.217  0.00  0.00    +0.000 A 
ATOM     25  C   UNL     1       0.219   9.275  20.071  0.00  0.00    +0.000 A 
BRANCH  24  26
ATOM     26  C   UNL     1      -0.799  11.303  18.995  0.00  0.00    +0.000 C 
ATOM     27  O   UNL     1      -0.264  12.344  18.650  0.00  0.00    +0.000 OA
ATOM     28  N   UNL     1      -1.896  10.744  18.345  0.00  0.00    +0.000 N 
ATOM     29  H   UNL     1      -2.323   9.901  18.699  0.00  0.00    +0.000 HD
BRANCH  28  30
ATOM     30  C   UNL     1      -2.489  11.343  17.180  0.00  0.00    +0.000 C 
ATOM     31  C   UNL     1      -3.855  10.922  16.694  0.00  0.00    +0.000 C 
ATOM     32  C   UNL     1      -2.632  10.540  15.916  0.00  0.00    +0.000 C 
ENDBRANCH  28  30
ENDBRANCH  24  26
ENDBRANCH   3  20
TORSDOF 7
ENDMDL
MODEL 6
REMARK VINA RESULT:      -8.6      2.961      3.811
REMARK  Name = 
REMARK  9 active torsions:
REMARK  status: ('A' for Active; 'I' for Inactive)
REMARK    1  A    between atoms: C_1  and  C_2
REMARK    2  A    between atoms: C_5  and  C_6
REMARK    3  A    between atoms: C_7  and  C_8
REMARK    4  A    between atoms: C_8  and  O_9
REMARK    5  A    between atoms: O_9  and  C_10
REMARK    6  A    between atoms: C_14  and  C_15
REMARK    7  A    between atoms: N_17  and  C_18
REMARK    8  A    between atoms: C_22  and  C_23
REMARK    9  A    between atoms: N_25  and  C_26
REMARK                            x       y       z     vdW  Elec       q    Type
REMARK                         _______ _______ _______ _____ _____    ______ ____
ROOT
ATOM      1  C   UNL     1       1.827   8.322  18.242  0.00  0.00    +0.000 C 
ATOM      2  O   UNL     1       2.247   8.799  17.195  0.00  0.00    +0.000 OA
ATOM      3  N   UNL     1       0.957   8.939  19.138  0.00  0.00    +0.000 N 
ATOM      4  H   UNL     1       0.842   8.530  20.056  0.00  0.00    +0.000 HD
ENDROOT
BRANCH   1   9
ATOM      5  C   UNL     1       3.414   4.925  17.839  0.00  0.00    +0.000 A 
ATOM      6  C   UNL     1       3.591   4.517  19.169  0.00  0.00    +0.000 A 
ATOM      7  C   UNL     1       3.130   5.331  20.220  0.00  0.00    +0.000 A 
ATOM      8  C   UNL     1       2.530   6.569  19.960  0.00  0.00    +0.000 A 
ATOM      9  C   UNL     1       2.400   7.007  18.640  0.00  0.00    +0.000 A 
ATOM     10  C   UNL     1       2.816   6.165  17.604  0.00  0.00    +0.000 A 
BRANCH   5  11
ATOM     11  O   UNL     1       3.841   4.142  16.809  0.00  0.00    +0.000 OA
BRANCH  11  12
ATOM     12  C   UNL     1       5.192   3.630  16.934  0.00  0.00    +0.000 C 
BRANCH  12  19
ATOM     13  C   UNL     1       6.906   5.990  18.355  0.00  0.00    +0.000 C 
ATOM     14  C   UNL     1       6.908   5.590  16.928  0.00  0.00    +0.000 A 
ATOM     15  N   UNL     1       7.675   6.240  16.050  0.00  0.00    +0.000 NA
ATOM     16  O   UNL     1       7.447   5.641  14.829  0.00  0.00    +0.000 OA
ATOM     17  C   UNL     1       6.546   4.632  14.978  0.00  0.00    +0.000 A 
ATOM     18  C   UNL     1       6.193   3.895  13.750  0.00  0.00    +0.000 C 
ATOM     19  C   UNL     1       6.159   4.557  16.298  0.00  0.00    +0.000 A 
ENDBRANCH  12  19
ENDBRANCH  11  12
ENDBRANCH   5  11
ENDBRANCH   1   9
BRANCH   3  20
ATOM     20  C   UNL     1       0.389  10.227  18.935  0.00  0.00    +0.000 A 
ATOM     21  C   UNL     1       1.121  11.397  19.145  0.00  0.00    +0.000 A 
ATOM     22  C   UNL     1       0.533  12.655  18.985  0.00  0.00    +0.000 A 
ATOM     23  C   UNL     1      -0.792  12.762  18.581  0.00  0.00    +0.000 A 
ATOM     24  C   UNL     1      -1.534  11.609  18.306  0.00  0.00    +0.000 A 
ATOM     25  C   UNL     1      -0.943  10.340  18.503  0.00  0.00    +0.000 A 
BRANCH  24  26
ATOM     26  C   UNL     1      -2.959  11.677  17.827  0.00  0.00    +0.000 C 
ATOM     27  O   UNL     1      -3.217  11.395  16.669  0.00  0.00    +0.000 OA
ATOM     28  N   UNL     1      -3.908  12.110  18.748  0.00  0.00    +0.000 N 
ATOM     29  H   UNL     1      -3.630  12.369  19.684  0.00  0.00    +0.000 HD
BRANCH  28  30
ATOM     30  C   UNL     1      -5.301  12.244  18.415  0.00  0.00    +0.000 C 
ATOM     31  C   UNL     1      -6.379  11.960  19.434  0.00  0.00    +0.000 C 
ATOM     32  C   UNL     1      -6.161  11.017  18.288  0.00  0.00    +0.000 C 
ENDBRANCH  28  30
ENDBRANCH  24  26
ENDBRANCH   3  20
TORSDOF 7
ENDMDL
MODEL 7
REMARK VINA RESULT:      -8.5      2.933      3.435
REMARK  Name = 
REMARK  9 active torsions:
REMARK  status: ('A' for Active; 'I' for Inactive)
REMARK    1  A    between atoms: C_1  and  C_2
REMARK    2  A    between atoms: C_5  and  C_6
REMARK    3  A    between atoms: C_7  and  C_8
REMARK    4  A    between atoms: C_8  and  O_9
REMARK    5  A    between atoms: O_9  and  C_10
REMARK    6  A    between atoms: C_14  and  C_15
REMARK    7  A    between atoms: N_17  and  C_18
REMARK    8  A    between atoms: C_22  and  C_23
REMARK    9  A    between atoms: N_25  and  C_26
REMARK                            x       y       z     vdW  Elec       q    Type
REMARK                         _______ _______ _______ _____ _____    ______ ____
ROOT
ATOM      1  C   UNL     1       1.612   7.778  19.722  0.00  0.00    +0.000 C 
ATOM      2  O   UNL     1       1.218   8.070  20.845  0.00  0.00    +0.000 OA
ATOM      3  N   UNL     1       1.412   8.519  18.560  0.00  0.00    +0.000 N 
ATOM      4  H   UNL     1       1.609   8.080  17.669  0.00  0.00    +0.000 HD
ENDROOT
BRANCH   1   9
ATOM      5  C   UNL     1       3.351   4.887  18.035  0.00  0.00    +0.000 A 
ATOM      6  C   UNL     1       3.587   4.014  19.107  0.00  0.00    +0.000 A 
ATOM      7  C   UNL     1       3.119   4.337  20.393  0.00  0.00    +0.000 A 
ATOM      8  C   UNL     1       2.452   5.545  20.632  0.00  0.00    +0.000 A 
ATOM      9  C   UNL     1       2.261   6.445  19.581  0.00  0.00    +0.000 A 
ATOM     10  C   UNL     1       2.685   6.087  18.298  0.00  0.00    +0.000 A 
BRANCH   5  11
ATOM     11  O   UNL     1       3.783   4.582  16.781  0.00  0.00    +0.000 OA
BRANCH  11  12
ATOM     12  C   UNL     1       5.028   3.839  16.714  0.00  0.00    +0.000 C 
BRANCH  12  19
ATOM     13  C   UNL     1       6.038   3.790  13.631  0.00  0.00    +0.000 C 
ATOM     14  C   UNL     1       6.530   4.638  14.742  0.00  0.00    +0.000 A 
ATOM     15  N   UNL     1       7.519   5.509  14.532  0.00  0.00    +0.000 NA
ATOM     16  O   UNL     1       7.745   6.128  15.745  0.00  0.00    +0.000 OA
ATOM     17  C   UNL     1       6.889   5.627  16.677  0.00  0.00    +0.000 A 
ATOM     18  C   UNL     1       7.013   6.189  18.035  0.00  0.00    +0.000 C 
ATOM     19  C   UNL     1       6.092   4.665  16.096  0.00  0.00    +0.000 A 
ENDBRANCH  12  19
ENDBRANCH  11  12
ENDBRANCH   5  11
ENDBRANCH   1   9
BRANCH   3  20
ATOM     20  C   UNL     1       0.741   9.772  18.522  0.00  0.00    +0.000 A 
ATOM     21  C   UNL     1       1.293  10.922  19.090  0.00  0.00    +0.000 A 
ATOM     22  C   UNL     1       0.599  12.135  19.085  0.00  0.00    +0.000 A 
ATOM     23  C   UNL     1      -0.649  12.224  18.482  0.00  0.00    +0.000 A 
ATOM     24  C   UNL     1      -1.203  11.105  17.853  0.00  0.00    +0.000 A 
ATOM     25  C   UNL     1      -0.511   9.873  17.892  0.00  0.00    +0.000 A 
BRANCH  24  26
ATOM     26  C   UNL     1      -2.533  11.165  17.152  0.00  0.00    +0.000 C 
ATOM     27  O   UNL     1      -2.567  11.263  15.937  0.00  0.00    +0.000 OA
ATOM     28  N   UNL     1      -3.667  11.148  17.959  0.00  0.00    +0.000 N 
ATOM     29  H   UNL     1      -3.577  11.105  18.964  0.00  0.00    +0.000 HD
BRANCH  28  30
ATOM     30  C   UNL     1      -4.998  11.223  17.421  0.00  0.00    +0.000 C 
ATOM     31  C   UNL     1      -5.896  12.401  17.718  0.00  0.00    +0.000 C 
ATOM     32  C   UNL     1      -6.184  11.064  18.332  0.00  0.00    +0.000 C 
ENDBRANCH  28  30
ENDBRANCH  24  26
ENDBRANCH   3  20
TORSDOF 7
ENDMDL
MODEL 8
REMARK VINA RESULT:      -8.5      2.689      3.575
REMARK  Name = 
REMARK  9 active torsions:
REMARK  status: ('A' for Active; 'I' for Inactive)
REMARK    1  A    between atoms: C_1  and  C_2
REMARK    2  A    between atoms: C_5  and  C_6
REMARK    3  A    between atoms: C_7  and  C_8
REMARK    4  A    between atoms: C_8  and  O_9
REMARK    5  A    between atoms: O_9  and  C_10
REMARK    6  A    between atoms: C_14  and  C_15
REMARK    7  A    between atoms: N_17  and  C_18
REMARK    8  A    between atoms: C_22  and  C_23
REMARK    9  A    between atoms: N_25  and  C_26
REMARK                            x       y       z     vdW  Elec       q    Type
REMARK                         _______ _______ _______ _____ _____    ______ ____
ROOT
ATOM      1  C   UNL     1       2.000   7.782  18.947  0.00  0.00    +0.000 C 
ATOM      2  O   UNL     1       2.338   8.429  17.964  0.00  0.00    +0.000 OA
ATOM      3  N   UNL     1       1.230   8.243  20.012  0.00  0.00    +0.000 N 
ATOM      4  H   UNL     1       1.186   7.682  20.853  0.00  0.00    +0.000 HD
ENDROOT
BRANCH   1   9
ATOM      5  C   UNL     1       3.557   4.532  17.834  0.00  0.00    +0.000 A 
ATOM      6  C   UNL     1       3.757   3.863  19.050  0.00  0.00    +0.000 A 
ATOM      7  C   UNL     1       3.322   4.449  20.253  0.00  0.00    +0.000 A 
ATOM      8  C   UNL     1       2.725   5.715  20.261  0.00  0.00    +0.000 A 
ATOM      9  C   UNL     1       2.573   6.412  19.059  0.00  0.00    +0.000 A 
ATOM     10  C   UNL     1       2.963   5.796  17.866  0.00  0.00    +0.000 A 
BRANCH   5  11
ATOM     11  O   UNL     1       3.958   3.973  16.658  0.00  0.00    +0.000 OA
BRANCH  11  12
ATOM     12  C   UNL     1       5.309   3.443  16.649  0.00  0.00    +0.000 C 
BRANCH  12  19
ATOM     13  C   UNL     1       6.139   3.726  13.525  0.00  0.00    +0.000 C 
ATOM     14  C   UNL     1       6.605   4.539  14.673  0.00  0.00    +0.000 A 
ATOM     15  N   UNL     1       7.486   5.524  14.483  0.00  0.00    +0.000 NA
ATOM     16  O   UNL     1       7.716   6.073  15.728  0.00  0.00    +0.000 OA
ATOM     17  C   UNL     1       6.972   5.418  16.659  0.00  0.00    +0.000 A 
ATOM     18  C   UNL     1       7.115   5.890  18.049  0.00  0.00    +0.000 C 
ATOM     19  C   UNL     1       6.245   4.421  16.045  0.00  0.00    +0.000 A 
ENDBRANCH  12  19
ENDBRANCH  11  12
ENDBRANCH   5  11
ENDBRANCH   1   9
BRANCH   3  20
ATOM     20  C   UNL     1       0.679   9.553  20.086  0.00  0.00    +0.000 A 
ATOM     21  C   UNL     1       1.141  10.495  21.007  0.00  0.00    +0.000 A 
ATOM     22  C   UNL     1       0.557  11.761  21.098  0.00  0.00    +0.000 A 
ATOM     23  C   UNL     1      -0.480  12.117  20.244  0.00  0.00    +0.000 A 
ATOM     24  C   UNL     1      -0.924  11.216  19.271  0.00  0.00    +0.000 A 
ATOM     25  C   UNL     1      -0.352   9.924  19.209  0.00  0.00    +0.000 A 
BRANCH  24  26
ATOM     26  C   UNL     1      -2.016  11.571  18.299  0.00  0.00    +0.000 C 
ATOM     27  O   UNL     1      -3.000  12.173  18.695  0.00  0.00    +0.000 OA
ATOM     28  N   UNL     1      -1.848  11.143  16.985  0.00  0.00    +0.000 N 
ATOM     29  H   UNL     1      -1.029  10.613  16.723  0.00  0.00    +0.000 HD
BRANCH  28  30
ATOM     30  C   UNL     1      -2.825  11.394  15.961  0.00  0.00    +0.000 C 
ATOM     31  C   UNL     1      -4.094  10.579  15.874  0.00  0.00    +0.000 C 
ATOM     32  C   UNL     1      -3.015  10.401  14.848  0.00  0.00    +0.000 C 
ENDBRANCH  28  30
ENDBRANCH  24  26
ENDBRANCH   3  20
TORSDOF 7
ENDMDL
MODEL 9
REMARK VINA RESULT:      -8.5      3.334      5.223
REMARK  Name = 
REMARK  9 active torsions:
REMARK  status: ('A' for Active; 'I' for Inactive)
REMARK    1  A    between atoms: C_1  and  C_2
REMARK    2  A    between atoms: C_5  and  C_6
REMARK    3  A    between atoms: C_7  and  C_8
REMARK    4  A    between atoms: C_8  and  O_9
REMARK    5  A    between atoms: O_9  and  C_10
REMARK    6  A    between atoms: C_14  and  C_15
REMARK    7  A    between atoms: N_17  and  C_18
REMARK    8  A    between atoms: C_22  and  C_23
REMARK    9  A    between atoms: N_25  and  C_26
REMARK                            x       y       z     vdW  Elec       q    Type
REMARK                         _______ _______ _______ _____ _____    ______ ____
ROOT
ATOM      1  C   UNL     1       2.346   7.765  18.533  0.00  0.00    +0.000 C 
ATOM      2  O   UNL     1       2.093   7.674  19.728  0.00  0.00    +0.000 OA
ATOM      3  N   UNL     1       1.822   8.706  17.649  0.00  0.00    +0.000 N 
ATOM      4  H   UNL     1       1.950   8.557  16.657  0.00  0.00    +0.000 HD
ENDROOT
BRANCH   1   9
ATOM      5  C   UNL     1       3.307   4.332  17.302  0.00  0.00    +0.000 A 
ATOM      6  C   UNL     1       4.611   4.538  16.829  0.00  0.00    +0.000 A 
ATOM      7  C   UNL     1       5.218   5.799  16.968  0.00  0.00    +0.000 A 
ATOM      8  C   UNL     1       4.521   6.872  17.537  0.00  0.00    +0.000 A 
ATOM      9  C   UNL     1       3.202   6.690  17.961  0.00  0.00    +0.000 A 
ATOM     10  C   UNL     1       2.631   5.418  17.864  0.00  0.00    +0.000 A 
BRANCH   5  11
ATOM     11  O   UNL     1       2.711   3.113  17.190  0.00  0.00    +0.000 OA
BRANCH  11  12
ATOM     12  C   UNL     1       3.233   2.081  18.065  0.00  0.00    +0.000 C 
BRANCH  12  19
ATOM     13  C   UNL     1       5.029   1.920  20.763  0.00  0.00    +0.000 C 
ATOM     14  C   UNL     1       3.588   2.243  20.641  0.00  0.00    +0.000 A 
ATOM     15  N   UNL     1       2.864   2.501  21.732  0.00  0.00    +0.000 NA
ATOM     16  O   UNL     1       1.582   2.752  21.288  0.00  0.00    +0.000 OA
ATOM     17  C   UNL     1       1.542   2.646  19.932  0.00  0.00    +0.000 A 
ATOM     18  C   UNL     1       0.228   2.883  19.305  0.00  0.00    +0.000 C 
ATOM     19  C   UNL     1       2.794   2.315  19.462  0.00  0.00    +0.000 A 
ENDBRANCH  12  19
ENDBRANCH  11  12
ENDBRANCH   5  11
ENDBRANCH   1   9
BRANCH   3  20
ATOM     20  C   UNL     1       0.929   9.745  18.032  0.00  0.00    +0.000 A 
ATOM     21  C   UNL     1       1.369  10.879  18.718  0.00  0.00    +0.000 A 
ATOM     22  C   UNL     1       0.471  11.868  19.127  0.00  0.00    +0.000 A 
ATOM     23  C   UNL     1      -0.881  11.753  18.828  0.00  0.00    +0.000 A 
ATOM     24  C   UNL     1      -1.343  10.658  18.091  0.00  0.00    +0.000 A 
ATOM     25  C   UNL     1      -0.434   9.644  17.710  0.00  0.00    +0.000 A 
BRANCH  24  26
ATOM     26  C   UNL     1      -2.791  10.512  17.709  0.00  0.00    +0.000 C 
ATOM     27  O   UNL     1      -3.297   9.403  17.688  0.00  0.00    +0.000 OA
ATOM     28  N   UNL     1      -3.465  11.677  17.353  0.00  0.00    +0.000 N 
ATOM     29  H   UNL     1      -2.983  12.564  17.351  0.00  0.00    +0.000 HD
BRANCH  28  30
ATOM     30  C   UNL     1      -4.844  11.676  16.945  0.00  0.00    +0.000 C 
ATOM     31  C   UNL     1      -5.811  12.718  17.455  0.00  0.00    +0.000 C 
ATOM     32  C   UNL     1      -5.916  11.299  17.930  0.00  0.00    +0.000 C 
ENDBRANCH  28  30
ENDBRANCH  24  26
ENDBRANCH   3  20
TORSDOF 7
ENDMDL
