MODEL 1
REMARK VINA RESULT:      -8.1      0.000      0.000
REMARK  Name = 
REMARK  6 active torsions:
REMARK  status: ('A' for Active; 'I' for Inactive)
REMARK    1  A    between atoms: C_1  and  C_2
REMARK    2  A    between atoms: N_4  and  C_5
REMARK    3  A    between atoms: C_7  and  C_8
REMARK    4  A    between atoms: N_10  and  C_11
REMARK    5  A    between atoms: C_11  and  C_12
REMARK    6  A    between atoms: C_12  and  C_13
REMARK                            x       y       z     vdW  Elec       q    Type
REMARK                         _______ _______ _______ _____ _____    ______ ____
ROOT
ATOM      1  C   UNL     1       3.333   5.835  18.278  0.00  0.00    +0.000 C 
ATOM      2  O   UNL     1       3.270   4.902  19.069  0.00  0.00    +0.000 OA
ATOM      3  N   UNL     1       4.046   5.809  17.100  0.00  0.00    +0.000 N 
ATOM      4  H   UNL     1       3.921   6.541  16.417  0.00  0.00    +0.000 HD
ENDROOT
BRANCH   1   7
ATOM      5  C   UNL     1       1.585   8.618  20.140  0.00  0.00    +0.000 A 
ATOM      6  C   UNL     1       2.227   7.417  19.856  0.00  0.00    +0.000 A 
ATOM      7  C   UNL     1       2.597   7.096  18.545  0.00  0.00    +0.000 A 
ATOM      8  C   UNL     1       2.261   7.949  17.490  0.00  0.00    +0.000 A 
ATOM      9  C   UNL     1       1.581   9.139  17.758  0.00  0.00    +0.000 A 
ATOM     10  C   UNL     1       1.252   9.463  19.076  0.00  0.00    +0.000 A 
ATOM     11  F   UNL     1       0.616  10.620  19.321  0.00  0.00    +0.000 F 
BRANCH   5  15
ATOM     12  C   UNL     1      -0.038   9.416  23.448  0.00  0.00    +0.000 C 
ATOM     13  C   UNL     1       0.042   8.777  22.086  0.00  0.00    +0.000 C 
ATOM     14  O   UNL     1      -0.900   8.132  21.640  0.00  0.00    +0.000 OA
ATOM     15  N   UNL     1       1.257   9.007  21.458  0.00  0.00    +0.000 N 
ATOM     16  H   UNL     1       2.022   9.378  22.011  0.00  0.00    +0.000 HD
ENDBRANCH   5  15
ENDBRANCH   1   7
BRANCH   3  17
ATOM     17  C   UNL     1       4.834   4.658  16.743  0.00  0.00    +0.000 C 
BRANCH  17  18
ATOM     18  C   UNL     1       6.280   4.959  16.356  0.00  0.00    +0.000 C 
ATOM     19  C   UNL     1       7.423   4.555  17.283  0.00  0.00    +0.000 C 
ATOM     20  C   UNL     1       7.093   6.008  17.106  0.00  0.00    +0.000 C 
BRANCH  18  21
ATOM     21  C   UNL     1       6.484   4.826  14.851  0.00  0.00    +0.000 A 
ATOM     22  C   UNL     1       7.591   5.416  14.213  0.00  0.00    +0.000 A 
ATOM     23  C   UNL     1       7.882   5.157  12.872  0.00  0.00    +0.000 A 
ATOM     24  C   UNL     1       7.068   4.299  12.139  0.00  0.00    +0.000 A 
ATOM     25  C   UNL     1       5.950   3.730  12.741  0.00  0.00    +0.000 A 
ATOM     26 CL   UNL     1       4.952   2.651  11.845  0.00  0.00    +0.000 Cl
ATOM     27  C   UNL     1       5.653   3.997  14.078  0.00  0.00    +0.000 A 
ENDBRANCH  18  21
ENDBRANCH  17  18
ENDBRANCH   3  17
TORSDOF 5
ENDMDL
MODEL 2
REMARK VINA RESULT:      -8.0      4.204      7.572
REMARK  Name = 
REMARK  6 active torsions:
REMARK  status: ('A' for Active; 'I' for Inactive)
REMARK    1  A    between atoms: C_1  and  C_2
REMARK    2  A    between atoms: N_4  and  C_5
REMARK    3  A    between atoms: C_7  and  C_8
REMARK    4  A    between atoms: N_10  and  C_11
REMARK    5  A    between atoms: C_11  and  C_12
REMARK    6  A    between atoms: C_12  and  C_13
REMARK                            x       y       z     vdW  Elec       q    Type
REMARK                         _______ _______ _______ _____ _____    ______ ____
ROOT
ATOM      1  C   UNL     1       4.264   3.223  17.722  0.00  0.00    +0.000 C 
ATOM      2  O   UNL     1       3.537   2.322  17.323  0.00  0.00    +0.000 OA
ATOM      3  N   UNL     1       4.297   3.678  19.021  0.00  0.00    +0.000 N 
ATOM      4  H   UNL     1       5.031   4.301  19.320  0.00  0.00    +0.000 HD
ENDROOT
BRANCH   1   7
ATOM      5  C   UNL     1       6.649   5.779  16.292  0.00  0.00    +0.000 A 
ATOM      6  C   UNL     1       5.725   5.152  17.121  0.00  0.00    +0.000 A 
ATOM      7  C   UNL     1       5.205   3.895  16.791  0.00  0.00    +0.000 A 
ATOM      8  C   UNL     1       5.555   3.284  15.584  0.00  0.00    +0.000 A 
ATOM      9  C   UNL     1       6.451   3.922  14.725  0.00  0.00    +0.000 A 
ATOM     10  C   UNL     1       6.990   5.158  15.085  0.00  0.00    +0.000 A 
ATOM     11  F   UNL     1       7.867   5.751  14.259  0.00  0.00    +0.000 F 
BRANCH   5  15
ATOM     12  C   UNL     1       8.264   8.766  17.929  0.00  0.00    +0.000 C 
ATOM     13  C   UNL     1       7.818   7.330  17.848  0.00  0.00    +0.000 C 
ATOM     14  O   UNL     1       7.978   6.569  18.796  0.00  0.00    +0.000 OA
ATOM     15  N   UNL     1       7.246   7.016  16.625  0.00  0.00    +0.000 N 
ATOM     16  H   UNL     1       7.357   7.671  15.858  0.00  0.00    +0.000 HD
ENDBRANCH   5  15
ENDBRANCH   1   7
BRANCH   3  17
ATOM     17  C   UNL     1       3.405   3.135  20.013  0.00  0.00    +0.000 C 
BRANCH  17  18
ATOM     18  C   UNL     1       2.017   3.768  20.051  0.00  0.00    +0.000 C 
ATOM     19  C   UNL     1       0.960   3.245  21.019  0.00  0.00    +0.000 C 
ATOM     20  C   UNL     1       0.793   3.012  19.546  0.00  0.00    +0.000 C 
BRANCH  18  21
ATOM     21  C   UNL     1       2.091   5.270  19.800  0.00  0.00    +0.000 A 
ATOM     22  C   UNL     1       2.291   5.781  18.504  0.00  0.00    +0.000 A 
ATOM     23  C   UNL     1       2.186   7.148  18.236  0.00  0.00    +0.000 A 
ATOM     24  C   UNL     1       1.880   8.034  19.264  0.00  0.00    +0.000 A 
ATOM     25  C   UNL     1       1.711   7.554  20.559  0.00  0.00    +0.000 A 
ATOM     26 CL   UNL     1       1.309   8.644  21.829  0.00  0.00    +0.000 Cl
ATOM     27  C   UNL     1       1.824   6.190  20.829  0.00  0.00    +0.000 A 
ENDBRANCH  18  21
ENDBRANCH  17  18
ENDBRANCH   3  17
TORSDOF 5
ENDMDL
MODEL 3
REMARK VINA RESULT:      -7.9      2.773      4.028
REMARK  Name = 
REMARK  6 active torsions:
REMARK  status: ('A' for Active; 'I' for Inactive)
REMARK    1  A    between atoms: C_1  and  C_2
REMARK    2  A    between atoms: N_4  and  C_5
REMARK    3  A    between atoms: C_7  and  C_8
REMARK    4  A    between atoms: N_10  and  C_11
REMARK    5  A    between atoms: C_11  and  C_12
REMARK    6  A    between atoms: C_12  and  C_13
REMARK                            x       y       z     vdW  Elec       q    Type
REMARK                         _______ _______ _______ _____ _____    ______ ____
ROOT
ATOM      1  C   UNL     1       2.538   6.726  18.317  0.00  0.00    +0.000 C 
ATOM      2  O   UNL     1       3.469   7.009  17.575  0.00  0.00    +0.000 OA
ATOM      3  N   UNL     1       1.951   5.482  18.390  0.00  0.00    +0.000 N 
ATOM      4  H   UNL     1       1.306   5.270  19.136  0.00  0.00    +0.000 HD
ENDROOT
BRANCH   1   7
ATOM      5  C   UNL     1       1.048   9.965  19.565  0.00  0.00    +0.000 A 
ATOM      6  C   UNL     1       1.630   9.010  18.738  0.00  0.00    +0.000 A 
ATOM      7  C   UNL     1       1.972   7.747  19.234  0.00  0.00    +0.000 A 
ATOM      8  C   UNL     1       1.799   7.453  20.590  0.00  0.00    +0.000 A 
ATOM      9  C   UNL     1       1.253   8.419  21.438  0.00  0.00    +0.000 A 
ATOM     10  C   UNL     1       0.882   9.661  20.920  0.00  0.00    +0.000 A 
ATOM     11  F   UNL     1       0.339  10.573  21.743  0.00  0.00    +0.000 F 
BRANCH   5  15
ATOM     12  C   UNL     1      -0.767  12.940  18.127  0.00  0.00    +0.000 C 
ATOM     13  C   UNL     1      -0.665  11.554  18.707  0.00  0.00    +0.000 C 
ATOM     14  O   UNL     1      -1.658  10.842  18.810  0.00  0.00    +0.000 OA
ATOM     15  N   UNL     1       0.628  11.226  19.084  0.00  0.00    +0.000 N 
ATOM     16  H   UNL     1       1.318  11.968  19.137  0.00  0.00    +0.000 HD
ENDBRANCH   5  15
ENDBRANCH   1   7
BRANCH   3  17
ATOM     17  C   UNL     1       2.382   4.415  17.524  0.00  0.00    +0.000 C 
BRANCH  17  18
ATOM     18  C   UNL     1       3.432   3.481  18.122  0.00  0.00    +0.000 C 
ATOM     19  C   UNL     1       3.124   1.998  18.305  0.00  0.00    +0.000 C 
ATOM     20  C   UNL     1       3.251   2.881  19.512  0.00  0.00    +0.000 C 
BRANCH  18  21
ATOM     21  C   UNL     1       4.836   3.883  17.686  0.00  0.00    +0.000 A 
ATOM     22  C   UNL     1       5.223   3.819  16.334  0.00  0.00    +0.000 A 
ATOM     23  C   UNL     1       6.442   4.347  15.901  0.00  0.00    +0.000 A 
ATOM     24  C   UNL     1       7.301   4.950  16.814  0.00  0.00    +0.000 A 
ATOM     25  C   UNL     1       6.952   4.994  18.160  0.00  0.00    +0.000 A 
ATOM     26 CL   UNL     1       8.001   5.759  19.291  0.00  0.00    +0.000 Cl
ATOM     27  C   UNL     1       5.740   4.459  18.596  0.00  0.00    +0.000 A 
ENDBRANCH  18  21
ENDBRANCH  17  18
ENDBRANCH   3  17
TORSDOF 5
ENDMDL
MODEL 4
REMARK VINA RESULT:      -7.9      3.759      7.401
REMARK  Name = 
REMARK  6 active torsions:
REMARK  status: ('A' for Active; 'I' for Inactive)
REMARK    1  A    between atoms: C_1  and  C_2
REMARK    2  A    between atoms: N_4  and  C_5
REMARK    3  A    between atoms: C_7  and  C_8
REMARK    4  A    between atoms: N_10  and  C_11
REMARK    5  A    between atoms: C_11  and  C_12
REMARK    6  A    between atoms: C_12  and  C_13
REMARK                            x       y       z     vdW  Elec       q    Type
REMARK                         _______ _______ _______ _____ _____    ______ ____
ROOT
ATOM      1  C   UNL     1       4.268   3.179  17.833  0.00  0.00    +0.000 C 
ATOM      2  O   UNL     1       3.615   2.205  17.482  0.00  0.00    +0.000 OA
ATOM      3  N   UNL     1       4.248   3.712  19.103  0.00  0.00    +0.000 N 
ATOM      4  H   UNL     1       4.930   4.405  19.371  0.00  0.00    +0.000 HD
ENDROOT
BRANCH   1   7
ATOM      5  C   UNL     1       6.555   5.775  16.317  0.00  0.00    +0.000 A 
ATOM      6  C   UNL     1       5.664   5.137  17.174  0.00  0.00    +0.000 A 
ATOM      7  C   UNL     1       5.171   3.862  16.874  0.00  0.00    +0.000 A 
ATOM      8  C   UNL     1       5.513   3.242  15.668  0.00  0.00    +0.000 A 
ATOM      9  C   UNL     1       6.375   3.890  14.782  0.00  0.00    +0.000 A 
ATOM     10  C   UNL     1       6.888   5.145  15.113  0.00  0.00    +0.000 A 
ATOM     11  F   UNL     1       7.732   5.749  14.261  0.00  0.00    +0.000 F 
BRANCH   5  15
ATOM     12  C   UNL     1       8.162   8.813  17.867  0.00  0.00    +0.000 C 
ATOM     13  C   UNL     1       7.767   7.361  17.804  0.00  0.00    +0.000 C 
ATOM     14  O   UNL     1       8.020   6.601  18.732  0.00  0.00    +0.000 OA
ATOM     15  N   UNL     1       7.125   7.032  16.620  0.00  0.00    +0.000 N 
ATOM     16  H   UNL     1       7.159   7.696  15.853  0.00  0.00    +0.000 HD
ENDBRANCH   5  15
ENDBRANCH   1   7
BRANCH   3  17
ATOM     17  C   UNL     1       3.383   3.166  20.116  0.00  0.00    +0.000 C 
BRANCH  17  18
ATOM     18  C   UNL     1       1.933   3.638  20.052  0.00  0.00    +0.000 C 
ATOM     19  C   UNL     1       0.857   2.927  20.868  0.00  0.00    +0.000 C 
ATOM     20  C   UNL     1       0.859   2.795  19.373  0.00  0.00    +0.000 C 
BRANCH  18  21
ATOM     21  C   UNL     1       1.855   5.155  19.913  0.00  0.00    +0.000 A 
ATOM     22  C   UNL     1       1.437   5.962  20.986  0.00  0.00    +0.000 A 
ATOM     23  C   UNL     1       1.529   7.355  20.928  0.00  0.00    +0.000 A 
ATOM     24  C   UNL     1       2.041   7.969  19.790  0.00  0.00    +0.000 A 
ATOM     25  C   UNL     1       2.431   7.191  18.704  0.00  0.00    +0.000 A 
ATOM     26 CL   UNL     1       3.086   7.945  17.303  0.00  0.00    +0.000 Cl
ATOM     27  C   UNL     1       2.330   5.800  18.758  0.00  0.00    +0.000 A 
ENDBRANCH  18  21
ENDBRANCH  17  18
ENDBRANCH   3  17
TORSDOF 5
ENDMDL
MODEL 5
REMARK VINA RESULT:      -7.9      4.143      8.471
REMARK  Name = 
REMARK  6 active torsions:
REMARK  status: ('A' for Active; 'I' for Inactive)
REMARK    1  A    between atoms: C_1  and  C_2
REMARK    2  A    between atoms: N_4  and  C_5
REMARK    3  A    between atoms: C_7  and  C_8
REMARK    4  A    between atoms: N_10  and  C_11
REMARK    5  A    between atoms: C_11  and  C_12
REMARK    6  A    between atoms: C_12  and  C_13
REMARK                            x       y       z     vdW  Elec       q    Type
REMARK                         _______ _______ _______ _____ _____    ______ ____
ROOT
ATOM      1  C   UNL     1       4.412   3.535  17.655  0.00  0.00    +0.000 C 
ATOM      2  O   UNL     1       3.693   2.571  17.425  0.00  0.00    +0.000 OA
ATOM      3  N   UNL     1       4.459   4.199  18.861  0.00  0.00    +0.000 N 
ATOM      4  H   UNL     1       5.188   4.873  19.039  0.00  0.00    +0.000 HD
ENDROOT
BRANCH   1   7
ATOM      5  C   UNL     1       6.352   3.804  14.425  0.00  0.00    +0.000 A 
ATOM      6  C   UNL     1       5.543   3.312  15.444  0.00  0.00    +0.000 A 
ATOM      7  C   UNL     1       5.325   4.058  16.609  0.00  0.00    +0.000 A 
ATOM      8  C   UNL     1       5.979   5.279  16.794  0.00  0.00    +0.000 A 
ATOM      9  C   UNL     1       6.825   5.765  15.795  0.00  0.00    +0.000 A 
ATOM     10  C   UNL     1       7.002   5.027  14.623  0.00  0.00    +0.000 A 
ATOM     11  F   UNL     1       7.802   5.515  13.662  0.00  0.00    +0.000 F 
BRANCH   5  15
ATOM     12  C   UNL     1       6.065   2.112  11.069  0.00  0.00    +0.000 C 
ATOM     13  C   UNL     1       5.611   3.017  12.183  0.00  0.00    +0.000 C 
ATOM     14  O   UNL     1       4.526   3.586  12.127  0.00  0.00    +0.000 OA
ATOM     15  N   UNL     1       6.540   3.111  13.208  0.00  0.00    +0.000 N 
ATOM     16  H   UNL     1       7.477   2.759  13.043  0.00  0.00    +0.000 HD
ENDBRANCH   5  15
ENDBRANCH   1   7
BRANCH   3  17
ATOM     17  C   UNL     1       3.593   3.815  19.946  0.00  0.00    +0.000 C 
BRANCH  17  18
ATOM     18  C   UNL     1       2.172   4.366  19.865  0.00  0.00    +0.000 C 
ATOM     19  C   UNL     1       1.071   3.781  20.745  0.00  0.00    +0.000 C 
ATOM     20  C   UNL     1       1.041   3.539  19.265  0.00  0.00    +0.000 C 
BRANCH  18  21
ATOM     21  C   UNL     1       2.179   5.870  19.614  0.00  0.00    +0.000 A 
ATOM     22  C   UNL     1       2.391   6.389  18.323  0.00  0.00    +0.000 A 
ATOM     23  C   UNL     1       2.227   7.749  18.050  0.00  0.00    +0.000 A 
ATOM     24  C   UNL     1       1.847   8.620  19.067  0.00  0.00    +0.000 A 
ATOM     25  C   UNL     1       1.663   8.132  20.357  0.00  0.00    +0.000 A 
ATOM     26 CL   UNL     1       1.171   9.201  21.613  0.00  0.00    +0.000 Cl
ATOM     27  C   UNL     1       1.837   6.776  20.633  0.00  0.00    +0.000 A 
ENDBRANCH  18  21
ENDBRANCH  17  18
ENDBRANCH   3  17
TORSDOF 5
ENDMDL
MODEL 6
REMARK VINA RESULT:      -7.9      2.198      3.440
REMARK  Name = 
REMARK  6 active torsions:
REMARK  status: ('A' for Active; 'I' for Inactive)
REMARK    1  A    between atoms: C_1  and  C_2
REMARK    2  A    between atoms: N_4  and  C_5
REMARK    3  A    between atoms: C_7  and  C_8
REMARK    4  A    between atoms: N_10  and  C_11
REMARK    5  A    between atoms: C_11  and  C_12
REMARK    6  A    between atoms: C_12  and  C_13
REMARK                            x       y       z     vdW  Elec       q    Type
REMARK                         _______ _______ _______ _____ _____    ______ ____
ROOT
ATOM      1  C   UNL     1       2.513   6.820  18.381  0.00  0.00    +0.000 C 
ATOM      2  O   UNL     1       3.353   7.141  17.551  0.00  0.00    +0.000 OA
ATOM      3  N   UNL     1       2.042   5.538  18.557  0.00  0.00    +0.000 N 
ATOM      4  H   UNL     1       1.481   5.311  19.364  0.00  0.00    +0.000 HD
ENDROOT
BRANCH   1   7
ATOM      5  C   UNL     1       1.042  10.064  19.641  0.00  0.00    +0.000 A 
ATOM      6  C   UNL     1       1.631   9.112  18.814  0.00  0.00    +0.000 A 
ATOM      7  C   UNL     1       1.940   7.836  19.299  0.00  0.00    +0.000 A 
ATOM      8  C   UNL     1       1.727   7.525  20.646  0.00  0.00    +0.000 A 
ATOM      9  C   UNL     1       1.174   8.486  21.494  0.00  0.00    +0.000 A 
ATOM     10  C   UNL     1       0.836   9.742  20.986  0.00  0.00    +0.000 A 
ATOM     11  F   UNL     1       0.287  10.650  21.809  0.00  0.00    +0.000 F 
BRANCH   5  15
ATOM     12  C   UNL     1      -0.678  13.082  18.177  0.00  0.00    +0.000 C 
ATOM     13  C   UNL     1      -0.613  11.681  18.726  0.00  0.00    +0.000 C 
ATOM     14  O   UNL     1      -1.613  10.971  18.754  0.00  0.00    +0.000 OA
ATOM     15  N   UNL     1       0.655  11.338  19.169  0.00  0.00    +0.000 N 
ATOM     16  H   UNL     1       1.342  12.076  19.279  0.00  0.00    +0.000 HD
ENDBRANCH   5  15
ENDBRANCH   1   7
BRANCH   3  17
ATOM     17  C   UNL     1       2.490   4.467  17.704  0.00  0.00    +0.000 C 
BRANCH  17  18
ATOM     18  C   UNL     1       3.718   3.712  18.204  0.00  0.00    +0.000 C 
ATOM     19  C   UNL     1       3.596   2.258  18.651  0.00  0.00    +0.000 C 
ATOM     20  C   UNL     1       3.860   3.326  19.673  0.00  0.00    +0.000 C 
BRANCH  18  21
ATOM     21  C   UNL     1       4.971   4.135  17.445  0.00  0.00    +0.000 A 
ATOM     22  C   UNL     1       6.130   4.548  18.127  0.00  0.00    +0.000 A 
ATOM     23  C   UNL     1       7.332   4.769  17.452  0.00  0.00    +0.000 A 
ATOM     24  C   UNL     1       7.399   4.581  16.075  0.00  0.00    +0.000 A 
ATOM     25  C   UNL     1       6.257   4.204  15.376  0.00  0.00    +0.000 A 
ATOM     26 CL   UNL     1       6.340   3.948  13.676  0.00  0.00    +0.000 Cl
ATOM     27  C   UNL     1       5.053   3.993  16.048  0.00  0.00    +0.000 A 
ENDBRANCH  18  21
ENDBRANCH  17  18
ENDBRANCH   3  17
TORSDOF 5
ENDMDL
MODEL 7
REMARK VINA RESULT:      -7.8      1.261      1.752
REMARK  Name = 
REMARK  6 active torsions:
REMARK  status: ('A' for Active; 'I' for Inactive)
REMARK    1  A    between atoms: C_1  and  C_2
REMARK    2  A    between atoms: N_4  and  C_5
REMARK    3  A    between atoms: C_7  and  C_8
REMARK    4  A    between atoms: N_10  and  C_11
REMARK    5  A    between atoms: C_11  and  C_12
REMARK    6  A    between atoms: C_12  and  C_13
REMARK                            x       y       z     vdW  Elec       q    Type
REMARK                         _______ _______ _______ _____ _____    ______ ____
ROOT
ATOM      1  C   UNL     1       3.186   6.147  18.370  0.00  0.00    +0.000 C 
ATOM      2  O   UNL     1       2.635   5.203  17.818  0.00  0.00    +0.000 OA
ATOM      3  N   UNL     1       4.498   6.144  18.790  0.00  0.00    +0.000 N 
ATOM      4  H   UNL     1       4.937   7.004  19.082  0.00  0.00    +0.000 HD
ENDROOT
BRANCH   1   7
ATOM      5  C   UNL     1       1.394   8.939  20.177  0.00  0.00    +0.000 A 
ATOM      6  C   UNL     1       2.041   7.736  19.914  0.00  0.00    +0.000 A 
ATOM      7  C   UNL     1       2.446   7.410  18.614  0.00  0.00    +0.000 A 
ATOM      8  C   UNL     1       2.139   8.261  17.548  0.00  0.00    +0.000 A 
ATOM      9  C   UNL     1       1.454   9.452  17.795  0.00  0.00    +0.000 A 
ATOM     10  C   UNL     1       1.090   9.781  19.102  0.00  0.00    +0.000 A 
ATOM     11  F   UNL     1       0.450  10.939  19.327  0.00  0.00    +0.000 F 
BRANCH   5  15
ATOM     12  C   UNL     1      -0.271   9.610  23.492  0.00  0.00    +0.000 C 
ATOM     13  C   UNL     1      -0.109   8.926  22.160  0.00  0.00    +0.000 C 
ATOM     14  O   UNL     1      -0.932   8.103  21.774  0.00  0.00    +0.000 OA
ATOM     15  N   UNL     1       1.032   9.331  21.485  0.00  0.00    +0.000 N 
ATOM     16  H   UNL     1       1.732   9.859  21.996  0.00  0.00    +0.000 HD
ENDBRANCH   5  15
ENDBRANCH   1   7
BRANCH   3  17
ATOM     17  C   UNL     1       5.313   4.966  18.647  0.00  0.00    +0.000 C 
BRANCH  17  18
ATOM     18  C   UNL     1       6.620   5.172  17.885  0.00  0.00    +0.000 C 
ATOM     19  C   UNL     1       7.958   5.009  18.599  0.00  0.00    +0.000 C 
ATOM     20  C   UNL     1       7.513   6.375  18.167  0.00  0.00    +0.000 C 
BRANCH  18  21
ATOM     21  C   UNL     1       6.499   4.683  16.446  0.00  0.00    +0.000 A 
ATOM     22  C   UNL     1       5.445   3.839  16.052  0.00  0.00    +0.000 A 
ATOM     23  C   UNL     1       5.225   3.528  14.708  0.00  0.00    +0.000 A 
ATOM     24  C   UNL     1       6.060   4.056  13.728  0.00  0.00    +0.000 A 
ATOM     25  C   UNL     1       7.129   4.867  14.099  0.00  0.00    +0.000 A 
ATOM     26 CL   UNL     1       8.151   5.541  12.890  0.00  0.00    +0.000 Cl
ATOM     27  C   UNL     1       7.354   5.170  15.442  0.00  0.00    +0.000 A 
ENDBRANCH  18  21
ENDBRANCH  17  18
ENDBRANCH   3  17
TORSDOF 5
ENDMDL
MODEL 8
REMARK VINA RESULT:      -7.8      3.813      8.278
REMARK  Name = 
REMARK  6 active torsions:
REMARK  status: ('A' for Active; 'I' for Inactive)
REMARK    1  A    between atoms: C_1  and  C_2
REMARK    2  A    between atoms: N_4  and  C_5
REMARK    3  A    between atoms: C_7  and  C_8
REMARK    4  A    between atoms: N_10  and  C_11
REMARK    5  A    between atoms: C_11  and  C_12
REMARK    6  A    between atoms: C_12  and  C_13
REMARK                            x       y       z     vdW  Elec       q    Type
REMARK                         _______ _______ _______ _____ _____    ______ ____
ROOT
ATOM      1  C   UNL     1       5.425   4.063  18.142  0.00  0.00    +0.000 C 
ATOM      2  O   UNL     1       6.061   4.394  19.135  0.00  0.00    +0.000 OA
ATOM      3  N   UNL     1       4.191   3.452  18.178  0.00  0.00    +0.000 N 
ATOM      4  H   UNL     1       3.649   3.360  17.332  0.00  0.00    +0.000 HD
ENDROOT
BRANCH   1   7
ATOM      5  C   UNL     1       5.644   4.313  14.379  0.00  0.00    +0.000 A 
ATOM      6  C   UNL     1       5.185   4.024  15.661  0.00  0.00    +0.000 A 
ATOM      7  C   UNL     1       5.962   4.328  16.784  0.00  0.00    +0.000 A 
ATOM      8  C   UNL     1       7.245   4.862  16.629  0.00  0.00    +0.000 A 
ATOM      9  C   UNL     1       7.732   5.118  15.346  0.00  0.00    +0.000 A 
ATOM     10  C   UNL     1       6.930   4.845  14.236  0.00  0.00    +0.000 A 
ATOM     11  F   UNL     1       7.402   5.115  13.009  0.00  0.00    +0.000 F 
BRANCH   5  15
ATOM     12  C   UNL     1       4.200   3.278  11.054  0.00  0.00    +0.000 C 
ATOM     13  C   UNL     1       5.180   3.212  12.196  0.00  0.00    +0.000 C 
ATOM     14  O   UNL     1       6.137   2.446  12.159  0.00  0.00    +0.000 OA
ATOM     15  N   UNL     1       4.860   4.082  13.227  0.00  0.00    +0.000 N 
ATOM     16  H   UNL     1       3.939   4.509  13.228  0.00  0.00    +0.000 HD
ENDBRANCH   5  15
ENDBRANCH   1   7
BRANCH   3  17
ATOM     17  C   UNL     1       3.578   3.105  19.433  0.00  0.00    +0.000 C 
BRANCH  17  18
ATOM     18  C   UNL     1       2.110   3.502  19.568  0.00  0.00    +0.000 C 
ATOM     19  C   UNL     1       1.155   2.640  20.388  0.00  0.00    +0.000 C 
ATOM     20  C   UNL     1       1.011   2.688  18.895  0.00  0.00    +0.000 C 
BRANCH  18  21
ATOM     21  C   UNL     1       1.954   5.017  19.627  0.00  0.00    +0.000 A 
ATOM     22  C   UNL     1       1.555   5.661  20.813  0.00  0.00    +0.000 A 
ATOM     23  C   UNL     1       1.578   7.053  20.929  0.00  0.00    +0.000 A 
ATOM     24  C   UNL     1       2.001   7.831  19.856  0.00  0.00    +0.000 A 
ATOM     25  C   UNL     1       2.369   7.217  18.663  0.00  0.00    +0.000 A 
ATOM     26 CL   UNL     1       2.915   8.174  17.341  0.00  0.00    +0.000 Cl
ATOM     27  C   UNL     1       2.337   5.827  18.543  0.00  0.00    +0.000 A 
ENDBRANCH  18  21
ENDBRANCH  17  18
ENDBRANCH   3  17
TORSDOF 5
ENDMDL
MODEL 9
REMARK VINA RESULT:      -7.7      3.737      5.618
REMARK  Name = 
REMARK  6 active torsions:
REMARK  status: ('A' for Active; 'I' for Inactive)
REMARK    1  A    between atoms: C_1  and  C_2
REMARK    2  A    between atoms: N_4  and  C_5
REMARK    3  A    between atoms: C_7  and  C_8
REMARK    4  A    between atoms: N_10  and  C_11
REMARK    5  A    between atoms: C_11  and  C_12
REMARK    6  A    between atoms: C_12  and  C_13
REMARK                            x       y       z     vdW  Elec       q    Type
REMARK                         _______ _______ _______ _____ _____    ______ ____
ROOT
ATOM      1  C   UNL     1       1.633   9.191  18.905  0.00  0.00    +0.000 C 
ATOM      2  O   UNL     1       1.691   9.999  17.988  0.00  0.00    +0.000 OA
ATOM      3  N   UNL     1       2.227   7.949  18.886  0.00  0.00    +0.000 N 
ATOM      4  H   UNL     1       2.284   7.403  19.733  0.00  0.00    +0.000 HD
ENDROOT
BRANCH   1   7
ATOM      5  C   UNL     1      -0.516  11.056  21.390  0.00  0.00    +0.000 A 
ATOM      6  C   UNL     1       0.222  10.744  20.253  0.00  0.00    +0.000 A 
ATOM      7  C   UNL     1       0.901   9.524  20.153  0.00  0.00    +0.000 A 
ATOM      8  C   UNL     1       0.904   8.631  21.228  0.00  0.00    +0.000 A 
ATOM      9  C   UNL     1       0.199   8.951  22.390  0.00  0.00    +0.000 A 
ATOM     10  C   UNL     1      -0.503  10.156  22.460  0.00  0.00    +0.000 A 
ATOM     11  F   UNL     1      -1.193  10.442  23.576  0.00  0.00    +0.000 F 
BRANCH   5  15
ATOM     12  C   UNL     1      -1.892  14.488  22.128  0.00  0.00    +0.000 C 
ATOM     13  C   UNL     1      -0.816  13.437  22.051  0.00  0.00    +0.000 C 
ATOM     14  O   UNL     1       0.320  13.673  22.447  0.00  0.00    +0.000 OA
ATOM     15  N   UNL     1      -1.268  12.248  21.499  0.00  0.00    +0.000 N 
ATOM     16  H   UNL     1      -2.165  12.246  21.027  0.00  0.00    +0.000 HD
ENDBRANCH   5  15
ENDBRANCH   1   7
BRANCH   3  17
ATOM     17  C   UNL     1       2.934   7.490  17.719  0.00  0.00    +0.000 C 
BRANCH  17  18
ATOM     18  C   UNL     1       3.589   6.118  17.857  0.00  0.00    +0.000 C 
ATOM     19  C   UNL     1       5.076   6.006  18.178  0.00  0.00    +0.000 C 
ATOM     20  C   UNL     1       4.582   5.611  16.817  0.00  0.00    +0.000 C 
BRANCH  18  21
ATOM     21  C   UNL     1       2.632   5.114  18.491  0.00  0.00    +0.000 A 
ATOM     22  C   UNL     1       1.719   4.386  17.706  0.00  0.00    +0.000 A 
ATOM     23  C   UNL     1       0.963   3.343  18.247  0.00  0.00    +0.000 A 
ATOM     24  C   UNL     1       1.106   3.008  19.590  0.00  0.00    +0.000 A 
ATOM     25  C   UNL     1       1.980   3.736  20.392  0.00  0.00    +0.000 A 
ATOM     26 CL   UNL     1       2.176   3.310  22.048  0.00  0.00    +0.000 Cl
ATOM     27  C   UNL     1       2.727   4.784  19.854  0.00  0.00    +0.000 A 
ENDBRANCH  18  21
ENDBRANCH  17  18
ENDBRANCH   3  17
TORSDOF 5
ENDMDL
