MODEL 1
REMARK VINA RESULT:      -8.9      0.000      0.000
REMARK  Name = 
REMARK  8 active torsions:
REMARK  status: ('A' for Active; 'I' for Inactive)
REMARK    1  A    between atoms: C_1  and  C_2
REMARK    2  A    between atoms: C_4  and  C_5
REMARK    3  A    between atoms: C_5  and  S_6
REMARK    4  A    between atoms: S_6  and  C_7
REMARK    5  A    between atoms: C_10  and  C_11
REMARK    6  A    between atoms: N_18  and  C_19
REMARK    7  A    between atoms: C_19  and  C_20
REMARK    8  A    between atoms: C_20  and  C_21
REMARK                            x       y       z     vdW  Elec       q    Type
REMARK                         _______ _______ _______ _____ _____    ______ ____
ROOT
ATOM      1  C   UNL     1       2.843   7.248  18.361  0.00  0.00    +0.000 A 
ATOM      2  N   UNL     1       2.645   8.376  17.728  0.00  0.00    +0.000 NA
ATOM      3  N   UNL     1       1.862   9.171  18.520  0.00  0.00    +0.000 NA
ATOM      4  C   UNL     1       1.575   8.530  19.642  0.00  0.00    +0.000 A 
ATOM      5  N   UNL     1       2.174   7.264  19.569  0.00  0.00    +0.000 N 
ENDROOT
BRANCH   4   6
ATOM      6  C   UNL     1       0.809   9.124  20.762  0.00  0.00    +0.000 A 
ATOM      7  C   UNL     1       1.090   8.864  22.114  0.00  0.00    +0.000 A 
ATOM      8  C   UNL     1       0.372   9.489  23.147  0.00  0.00    +0.000 A 
ATOM      9  C   UNL     1      -0.682  10.343  22.851  0.00  0.00    +0.000 A 
ATOM     10  C   UNL     1      -1.022  10.569  21.521  0.00  0.00    +0.000 A 
ATOM     11  C   UNL     1      -0.283   9.969  20.496  0.00  0.00    +0.000 A 
ATOM     12  F   UNL     1      -0.649  10.241  19.236  0.00  0.00    +0.000 F 
ENDBRANCH   4   6
BRANCH   1  13
ATOM     13  S   UNL     1       3.828   5.956  17.768  0.00  0.00    +0.000 S 
BRANCH  13  14
ATOM     14  C   UNL     1       5.379   6.747  17.266  0.00  0.00    +0.000 C 
BRANCH  14  18
ATOM     15  C   UNL     1       6.462   3.791  13.212  0.00  0.00    +0.000 C 
ATOM     16  C   UNL     1       6.380   4.682  14.387  0.00  0.00    +0.000 A 
ATOM     17  C   UNL     1       5.364   5.126  15.193  0.00  0.00    +0.000 A 
ATOM     18  C   UNL     1       5.998   5.967  16.144  0.00  0.00    +0.000 A 
ATOM     19  N   UNL     1       7.320   6.020  15.920  0.00  0.00    +0.000 NA
ATOM     20  O   UNL     1       7.554   5.215  14.818  0.00  0.00    +0.000 OA
ENDBRANCH  14  18
ENDBRANCH  13  14
ENDBRANCH   1  13
BRANCH   5  21
ATOM     21  C   UNL     1       2.091   6.262  20.627  0.00  0.00    +0.000 C 
BRANCH  21  22
ATOM     22  C   UNL     1       1.274   4.990  20.405  0.00  0.00    +0.000 C 
BRANCH  22  23
ATOM     23  C   UNL     1       1.976   3.793  19.808  0.00  0.00    +0.000 A 
ATOM     24  C   UNL     1       1.491   3.295  18.585  0.00  0.00    +0.000 A 
ATOM     25  C   UNL     1       2.138   2.254  17.925  0.00  0.00    +0.000 A 
ATOM     26  C   UNL     1       3.292   1.700  18.473  0.00  0.00    +0.000 A 
ATOM     27  C   UNL     1       3.786   2.184  19.684  0.00  0.00    +0.000 A 
ATOM     28  C   UNL     1       3.136   3.229  20.349  0.00  0.00    +0.000 A 
ENDBRANCH  22  23
ENDBRANCH  21  22
ENDBRANCH   5  21
TORSDOF 7
ENDMDL
MODEL 2
REMARK VINA RESULT:      -8.9      2.636      5.446
REMARK  Name = 
REMARK  8 active torsions:
REMARK  status: ('A' for Active; 'I' for Inactive)
REMARK    1  A    between atoms: C_1  and  C_2
REMARK    2  A    between atoms: C_4  and  C_5
REMARK    3  A    between atoms: C_5  and  S_6
REMARK    4  A    between atoms: S_6  and  C_7
REMARK    5  A    between atoms: C_10  and  C_11
REMARK    6  A    between atoms: N_18  and  C_19
REMARK    7  A    between atoms: C_19  and  C_20
REMARK    8  A    between atoms: C_20  and  C_21
REMARK                            x       y       z     vdW  Elec       q    Type
REMARK                         _______ _______ _______ _____ _____    ______ ____
ROOT
ATOM      1  C   UNL     1       5.848   5.262  17.779  0.00  0.00    +0.000 A 
ATOM      2  N   UNL     1       6.483   4.417  18.551  0.00  0.00    +0.000 NA
ATOM      3  N   UNL     1       5.557   3.787  19.337  0.00  0.00    +0.000 NA
ATOM      4  C   UNL     1       4.349   4.248  19.052  0.00  0.00    +0.000 A 
ATOM      5  N   UNL     1       4.496   5.228  18.059  0.00  0.00    +0.000 N 
ENDROOT
BRANCH   4   6
ATOM      6  C   UNL     1       3.101   3.732  19.660  0.00  0.00    +0.000 A 
ATOM      7  C   UNL     1       2.764   3.922  21.011  0.00  0.00    +0.000 A 
ATOM      8  C   UNL     1       1.546   3.461  21.536  0.00  0.00    +0.000 A 
ATOM      9  C   UNL     1       0.663   2.748  20.736  0.00  0.00    +0.000 A 
ATOM     10  C   UNL     1       1.000   2.492  19.411  0.00  0.00    +0.000 A 
ATOM     11  C   UNL     1       2.200   2.981  18.885  0.00  0.00    +0.000 A 
ATOM     12  F   UNL     1       2.458   2.716  17.597  0.00  0.00    +0.000 F 
ENDBRANCH   4   6
BRANCH   1  13
ATOM     13  S   UNL     1       6.607   6.241  16.573  0.00  0.00    +0.000 S 
BRANCH  13  14
ATOM     14  C   UNL     1       7.773   5.133  15.740  0.00  0.00    +0.000 C 
BRANCH  14  18
ATOM     15  C   UNL     1       5.120   3.087  11.851  0.00  0.00    +0.000 C 
ATOM     16  C   UNL     1       6.007   3.785  12.804  0.00  0.00    +0.000 A 
ATOM     17  C   UNL     1       6.133   3.804  14.170  0.00  0.00    +0.000 A 
ATOM     18  C   UNL     1       7.201   4.703  14.422  0.00  0.00    +0.000 A 
ATOM     19  N   UNL     1       7.688   5.193  13.271  0.00  0.00    +0.000 NA
ATOM     20  O   UNL     1       6.935   4.616  12.262  0.00  0.00    +0.000 OA
ENDBRANCH  14  18
ENDBRANCH  13  14
ENDBRANCH   1  13
BRANCH   5  21
ATOM     21  C   UNL     1       3.382   5.966  17.473  0.00  0.00    +0.000 C 
BRANCH  21  22
ATOM     22  C   UNL     1       3.311   7.485  17.631  0.00  0.00    +0.000 C 
BRANCH  22  23
ATOM     23  C   UNL     1       2.313   8.048  18.615  0.00  0.00    +0.000 A 
ATOM     24  C   UNL     1       2.168   7.387  19.847  0.00  0.00    +0.000 A 
ATOM     25  C   UNL     1       1.338   7.895  20.843  0.00  0.00    +0.000 A 
ATOM     26  C   UNL     1       0.646   9.083  20.625  0.00  0.00    +0.000 A 
ATOM     27  C   UNL     1       0.780   9.751  19.409  0.00  0.00    +0.000 A 
ATOM     28  C   UNL     1       1.613   9.241  18.407  0.00  0.00    +0.000 A 
ENDBRANCH  22  23
ENDBRANCH  21  22
ENDBRANCH   5  21
TORSDOF 7
ENDMDL
MODEL 3
REMARK VINA RESULT:      -8.8      3.609      6.918
REMARK  Name = 
REMARK  8 active torsions:
REMARK  status: ('A' for Active; 'I' for Inactive)
REMARK    1  A    between atoms: C_1  and  C_2
REMARK    2  A    between atoms: C_4  and  C_5
REMARK    3  A    between atoms: C_5  and  S_6
REMARK    4  A    between atoms: S_6  and  C_7
REMARK    5  A    between atoms: C_10  and  C_11
REMARK    6  A    between atoms: N_18  and  C_19
REMARK    7  A    between atoms: C_19  and  C_20
REMARK    8  A    between atoms: C_20  and  C_21
REMARK                            x       y       z     vdW  Elec       q    Type
REMARK                         _______ _______ _______ _____ _____    ______ ____
ROOT
ATOM      1  C   UNL     1       1.499   9.154  18.900  0.00  0.00    +0.000 A 
ATOM      2  N   UNL     1       1.796   9.435  17.657  0.00  0.00    +0.000 NA
ATOM      3  N   UNL     1       2.587   8.427  17.176  0.00  0.00    +0.000 NA
ATOM      4  C   UNL     1       2.779   7.524  18.125  0.00  0.00    +0.000 A 
ATOM      5  N   UNL     1       2.108   7.971  19.273  0.00  0.00    +0.000 N 
ENDROOT
BRANCH   4   6
ATOM      6  C   UNL     1       3.523   6.259  17.927  0.00  0.00    +0.000 A 
ATOM      7  C   UNL     1       4.917   6.152  18.072  0.00  0.00    +0.000 A 
ATOM      8  C   UNL     1       5.578   4.922  17.925  0.00  0.00    +0.000 A 
ATOM      9  C   UNL     1       4.868   3.782  17.574  0.00  0.00    +0.000 A 
ATOM     10  C   UNL     1       3.496   3.872  17.363  0.00  0.00    +0.000 A 
ATOM     11  C   UNL     1       2.838   5.094  17.542  0.00  0.00    +0.000 A 
ATOM     12  F   UNL     1       1.513   5.111  17.342  0.00  0.00    +0.000 F 
ENDBRANCH   4   6
BRANCH   1  13
ATOM     13  S   UNL     1       0.467  10.118  19.898  0.00  0.00    +0.000 S 
BRANCH  13  14
ATOM     14  C   UNL     1      -0.166  11.413  18.800  0.00  0.00    +0.000 C 
BRANCH  14  18
ATOM     15  C   UNL     1      -5.188  11.085  17.792  0.00  0.00    +0.000 C 
ATOM     16  C   UNL     1      -3.723  10.985  17.954  0.00  0.00    +0.000 A 
ATOM     17  C   UNL     1      -2.773  11.715  18.621  0.00  0.00    +0.000 A 
ATOM     18  C   UNL     1      -1.550  11.052  18.347  0.00  0.00    +0.000 A 
ATOM     19  N   UNL     1      -1.756   9.984  17.561  0.00  0.00    +0.000 NA
ATOM     20  O   UNL     1      -3.119   9.948  17.316  0.00  0.00    +0.000 OA
ENDBRANCH  14  18
ENDBRANCH  13  14
ENDBRANCH   1  13
BRANCH   5  21
ATOM     21  C   UNL     1       2.077   7.239  20.535  0.00  0.00    +0.000 C 
BRANCH  21  22
ATOM     22  C   UNL     1       1.013   6.166  20.765  0.00  0.00    +0.000 C 
BRANCH  22  23
ATOM     23  C   UNL     1       1.434   4.719  20.661  0.00  0.00    +0.000 A 
ATOM     24  C   UNL     1       0.571   3.837  19.986  0.00  0.00    +0.000 A 
ATOM     25  C   UNL     1       0.928   2.509  19.768  0.00  0.00    +0.000 A 
ATOM     26  C   UNL     1       2.163   2.044  20.211  0.00  0.00    +0.000 A 
ATOM     27  C   UNL     1       3.030   2.907  20.880  0.00  0.00    +0.000 A 
ATOM     28  C   UNL     1       2.672   4.241  21.101  0.00  0.00    +0.000 A 
ENDBRANCH  22  23
ENDBRANCH  21  22
ENDBRANCH   5  21
TORSDOF 7
ENDMDL
MODEL 4
REMARK VINA RESULT:      -8.8      3.015      5.854
REMARK  Name = 
REMARK  8 active torsions:
REMARK  status: ('A' for Active; 'I' for Inactive)
REMARK    1  A    between atoms: C_1  and  C_2
REMARK    2  A    between atoms: C_4  and  C_5
REMARK    3  A    between atoms: C_5  and  S_6
REMARK    4  A    between atoms: S_6  and  C_7
REMARK    5  A    between atoms: C_10  and  C_11
REMARK    6  A    between atoms: N_18  and  C_19
REMARK    7  A    between atoms: C_19  and  C_20
REMARK    8  A    between atoms: C_20  and  C_21
REMARK                            x       y       z     vdW  Elec       q    Type
REMARK                         _______ _______ _______ _____ _____    ______ ____
ROOT
ATOM      1  C   UNL     1       5.017   4.427  16.286  0.00  0.00    +0.000 A 
ATOM      2  N   UNL     1       4.884   3.135  16.129  0.00  0.00    +0.000 NA
ATOM      3  N   UNL     1       4.141   2.659  17.175  0.00  0.00    +0.000 NA
ATOM      4  C   UNL     1       3.819   3.660  17.980  0.00  0.00    +0.000 A 
ATOM      5  N   UNL     1       4.391   4.826  17.451  0.00  0.00    +0.000 N 
ENDROOT
BRANCH   4   6
ATOM      6  C   UNL     1       2.953   3.517  19.173  0.00  0.00    +0.000 A 
ATOM      7  C   UNL     1       1.643   4.020  19.241  0.00  0.00    +0.000 A 
ATOM      8  C   UNL     1       0.837   3.819  20.373  0.00  0.00    +0.000 A 
ATOM      9  C   UNL     1       1.342   3.159  21.485  0.00  0.00    +0.000 A 
ATOM     10  C   UNL     1       2.657   2.706  21.468  0.00  0.00    +0.000 A 
ATOM     11  C   UNL     1       3.445   2.882  20.326  0.00  0.00    +0.000 A 
ATOM     12  F   UNL     1       4.697   2.406  20.366  0.00  0.00    +0.000 F 
ENDBRANCH   4   6
BRANCH   1  13
ATOM     13  S   UNL     1       5.833   5.466  15.170  0.00  0.00    +0.000 S 
BRANCH  13  14
ATOM     14  C   UNL     1       6.870   4.360  14.177  0.00  0.00    +0.000 C 
BRANCH  14  18
ATOM     15  C   UNL     1       3.375   3.151  10.617  0.00  0.00    +0.000 C 
ATOM     16  C   UNL     1       4.502   3.317  11.558  0.00  0.00    +0.000 A 
ATOM     17  C   UNL     1       4.783   4.182  12.585  0.00  0.00    +0.000 A 
ATOM     18  C   UNL     1       6.051   3.769  13.068  0.00  0.00    +0.000 A 
ATOM     19  N   UNL     1       6.502   2.715  12.371  0.00  0.00    +0.000 NA
ATOM     20  O   UNL     1       5.529   2.438  11.425  0.00  0.00    +0.000 OA
ENDBRANCH  14  18
ENDBRANCH  13  14
ENDBRANCH   1  13
BRANCH   5  21
ATOM     21  C   UNL     1       4.251   6.147  18.054  0.00  0.00    +0.000 C 
BRANCH  21  22
ATOM     22  C   UNL     1       3.287   7.163  17.442  0.00  0.00    +0.000 C 
BRANCH  22  23
ATOM     23  C   UNL     1       2.354   7.903  18.372  0.00  0.00    +0.000 A 
ATOM     24  C   UNL     1       2.237   7.430  19.690  0.00  0.00    +0.000 A 
ATOM     25  C   UNL     1       1.470   8.109  20.633  0.00  0.00    +0.000 A 
ATOM     26  C   UNL     1       0.814   9.283  20.273  0.00  0.00    +0.000 A 
ATOM     27  C   UNL     1       0.921   9.766  18.970  0.00  0.00    +0.000 A 
ATOM     28  C   UNL     1       1.691   9.084  18.021  0.00  0.00    +0.000 A 
ENDBRANCH  22  23
ENDBRANCH  21  22
ENDBRANCH   5  21
TORSDOF 7
ENDMDL
MODEL 5
REMARK VINA RESULT:      -8.8      1.248      1.688
REMARK  Name = 
REMARK  8 active torsions:
REMARK  status: ('A' for Active; 'I' for Inactive)
REMARK    1  A    between atoms: C_1  and  C_2
REMARK    2  A    between atoms: C_4  and  C_5
REMARK    3  A    between atoms: C_5  and  S_6
REMARK    4  A    between atoms: S_6  and  C_7
REMARK    5  A    between atoms: C_10  and  C_11
REMARK    6  A    between atoms: N_18  and  C_19
REMARK    7  A    between atoms: C_19  and  C_20
REMARK    8  A    between atoms: C_20  and  C_21
REMARK                            x       y       z     vdW  Elec       q    Type
REMARK                         _______ _______ _______ _____ _____    ______ ____
ROOT
ATOM      1  C   UNL     1       3.126   7.337  18.100  0.00  0.00    +0.000 A 
ATOM      2  N   UNL     1       3.026   8.131  17.065  0.00  0.00    +0.000 NA
ATOM      3  N   UNL     1       2.120   9.110  17.370  0.00  0.00    +0.000 NA
ATOM      4  C   UNL     1       1.659   8.917  18.597  0.00  0.00    +0.000 A 
ATOM      5  N   UNL     1       2.270   7.759  19.099  0.00  0.00    +0.000 N 
ENDROOT
BRANCH   4   6
ATOM      6  C   UNL     1       0.718   9.834  19.281  0.00  0.00    +0.000 A 
ATOM      7  C   UNL     1       0.957  10.377  20.554  0.00  0.00    +0.000 A 
ATOM      8  C   UNL     1       0.063  11.283  21.146  0.00  0.00    +0.000 A 
ATOM      9  C   UNL     1      -1.120  11.623  20.502  0.00  0.00    +0.000 A 
ATOM     10  C   UNL     1      -1.411  11.051  19.268  0.00  0.00    +0.000 A 
ATOM     11  C   UNL     1      -0.501  10.173  18.669  0.00  0.00    +0.000 A 
ATOM     12  F   UNL     1      -0.832   9.671  17.472  0.00  0.00    +0.000 F 
ENDBRANCH   4   6
BRANCH   1  13
ATOM     13  S   UNL     1       4.202   5.987  18.194  0.00  0.00    +0.000 S 
BRANCH  13  14
ATOM     14  C   UNL     1       5.798   6.622  17.619  0.00  0.00    +0.000 C 
BRANCH  14  18
ATOM     15  C   UNL     1       6.170   3.775  13.365  0.00  0.00    +0.000 C 
ATOM     16  C   UNL     1       6.289   4.644  14.553  0.00  0.00    +0.000 A 
ATOM     17  C   UNL     1       5.436   5.031  15.555  0.00  0.00    +0.000 A 
ATOM     18  C   UNL     1       6.212   5.887  16.379  0.00  0.00    +0.000 A 
ATOM     19  N   UNL     1       7.459   6.003  15.898  0.00  0.00    +0.000 NA
ATOM     20  O   UNL     1       7.501   5.225  14.753  0.00  0.00    +0.000 OA
ENDBRANCH  14  18
ENDBRANCH  13  14
ENDBRANCH   1  13
BRANCH   5  21
ATOM     21  C   UNL     1       2.023   7.222  20.433  0.00  0.00    +0.000 C 
BRANCH  21  22
ATOM     22  C   UNL     1       0.998   6.104  20.624  0.00  0.00    +0.000 C 
BRANCH  22  23
ATOM     23  C   UNL     1       1.448   4.682  20.384  0.00  0.00    +0.000 A 
ATOM     24  C   UNL     1       2.145   4.036  21.420  0.00  0.00    +0.000 A 
ATOM     25  C   UNL     1       2.514   2.697  21.312  0.00  0.00    +0.000 A 
ATOM     26  C   UNL     1       2.179   1.979  20.168  0.00  0.00    +0.000 A 
ATOM     27  C   UNL     1       1.487   2.606  19.133  0.00  0.00    +0.000 A 
ATOM     28  C   UNL     1       1.117   3.951  19.239  0.00  0.00    +0.000 A 
ENDBRANCH  22  23
ENDBRANCH  21  22
ENDBRANCH   5  21
TORSDOF 7
ENDMDL
MODEL 6
REMARK VINA RESULT:      -8.7      4.207      6.830
REMARK  Name = 
REMARK  8 active torsions:
REMARK  status: ('A' for Active; 'I' for Inactive)
REMARK    1  A    between atoms: C_1  and  C_2
REMARK    2  A    between atoms: C_4  and  C_5
REMARK    3  A    between atoms: C_5  and  S_6
REMARK    4  A    between atoms: S_6  and  C_7
REMARK    5  A    between atoms: C_10  and  C_11
REMARK    6  A    between atoms: N_18  and  C_19
REMARK    7  A    between atoms: C_19  and  C_20
REMARK    8  A    between atoms: C_20  and  C_21
REMARK                            x       y       z     vdW  Elec       q    Type
REMARK                         _______ _______ _______ _____ _____    ______ ____
ROOT
ATOM      1  C   UNL     1       7.173   6.956  18.085  0.00  0.00    +0.000 A 
ATOM      2  N   UNL     1       7.986   6.231  18.809  0.00  0.00    +0.000 NA
ATOM      3  N   UNL     1       7.371   5.035  19.063  0.00  0.00    +0.000 NA
ATOM      4  C   UNL     1       6.175   5.025  18.495  0.00  0.00    +0.000 A 
ATOM      5  N   UNL     1       5.996   6.267  17.868  0.00  0.00    +0.000 N 
ENDROOT
BRANCH   4   6
ATOM      6  C   UNL     1       5.265   3.856  18.503  0.00  0.00    +0.000 A 
ATOM      7  C   UNL     1       4.810   3.239  19.679  0.00  0.00    +0.000 A 
ATOM      8  C   UNL     1       3.906   2.164  19.643  0.00  0.00    +0.000 A 
ATOM      9  C   UNL     1       3.482   1.646  18.427  0.00  0.00    +0.000 A 
ATOM     10  C   UNL     1       3.966   2.198  17.245  0.00  0.00    +0.000 A 
ATOM     11  C   UNL     1       4.842   3.289  17.288  0.00  0.00    +0.000 A 
ATOM     12  F   UNL     1       5.257   3.787  16.116  0.00  0.00    +0.000 F 
ENDBRANCH   4   6
BRANCH   1  13
ATOM     13  S   UNL     1       7.551   8.528  17.472  0.00  0.00    +0.000 S 
BRANCH  13  14
ATOM     14  C   UNL     1       8.717   9.227  18.670  0.00  0.00    +0.000 C 
BRANCH  14  18
ATOM     15  C   UNL     1      11.058  13.645  17.511  0.00  0.00    +0.000 C 
ATOM     16  C   UNL     1      10.191  12.476  17.763  0.00  0.00    +0.000 A 
ATOM     17  C   UNL     1      10.383  11.229  18.301  0.00  0.00    +0.000 A 
ATOM     18  C   UNL     1       9.109  10.609  18.240  0.00  0.00    +0.000 A 
ATOM     19  N   UNL     1       8.204  11.440  17.698  0.00  0.00    +0.000 NA
ATOM     20  O   UNL     1       8.888  12.607  17.400  0.00  0.00    +0.000 OA
ENDBRANCH  14  18
ENDBRANCH  13  14
ENDBRANCH   1  13
BRANCH   5  21
ATOM     21  C   UNL     1       4.797   6.637  17.123  0.00  0.00    +0.000 C 
BRANCH  21  22
ATOM     22  C   UNL     1       3.551   7.105  17.874  0.00  0.00    +0.000 C 
BRANCH  22  23
ATOM     23  C   UNL     1       2.709   6.060  18.569  0.00  0.00    +0.000 A 
ATOM     24  C   UNL     1       2.616   6.124  19.970  0.00  0.00    +0.000 A 
ATOM     25  C   UNL     1       1.788   5.256  20.677  0.00  0.00    +0.000 A 
ATOM     26  C   UNL     1       1.028   4.314  19.989  0.00  0.00    +0.000 A 
ATOM     27  C   UNL     1       1.109   4.239  18.599  0.00  0.00    +0.000 A 
ATOM     28  C   UNL     1       1.941   5.110  17.888  0.00  0.00    +0.000 A 
ENDBRANCH  22  23
ENDBRANCH  21  22
ENDBRANCH   5  21
TORSDOF 7
ENDMDL
MODEL 7
REMARK VINA RESULT:      -8.7      2.418      5.436
REMARK  Name = 
REMARK  8 active torsions:
REMARK  status: ('A' for Active; 'I' for Inactive)
REMARK    1  A    between atoms: C_1  and  C_2
REMARK    2  A    between atoms: C_4  and  C_5
REMARK    3  A    between atoms: C_5  and  S_6
REMARK    4  A    between atoms: S_6  and  C_7
REMARK    5  A    between atoms: C_10  and  C_11
REMARK    6  A    between atoms: N_18  and  C_19
REMARK    7  A    between atoms: C_19  and  C_20
REMARK    8  A    between atoms: C_20  and  C_21
REMARK                            x       y       z     vdW  Elec       q    Type
REMARK                         _______ _______ _______ _____ _____    ______ ____
ROOT
ATOM      1  C   UNL     1       4.874   4.906  16.771  0.00  0.00    +0.000 A 
ATOM      2  N   UNL     1       4.960   3.626  16.511  0.00  0.00    +0.000 NA
ATOM      3  N   UNL     1       4.275   2.952  17.486  0.00  0.00    +0.000 NA
ATOM      4  C   UNL     1       3.768   3.819  18.349  0.00  0.00    +0.000 A 
ATOM      5  N   UNL     1       4.155   5.102  17.935  0.00  0.00    +0.000 N 
ENDROOT
BRANCH   4   6
ATOM      6  C   UNL     1       2.902   3.441  19.490  0.00  0.00    +0.000 A 
ATOM      7  C   UNL     1       3.389   2.848  20.666  0.00  0.00    +0.000 A 
ATOM      8  C   UNL     1       2.540   2.552  21.746  0.00  0.00    +0.000 A 
ATOM      9  C   UNL     1       1.176   2.791  21.650  0.00  0.00    +0.000 A 
ATOM     10  C   UNL     1       0.658   3.320  20.473  0.00  0.00    +0.000 A 
ATOM     11  C   UNL     1       1.513   3.641  19.413  0.00  0.00    +0.000 A 
ATOM     12  F   UNL     1       0.955   4.165  18.313  0.00  0.00    +0.000 F 
ENDBRANCH   4   6
BRANCH   1  13
ATOM     13  S   UNL     1       5.540   6.151  15.773  0.00  0.00    +0.000 S 
BRANCH  13  14
ATOM     14  C   UNL     1       7.154   5.514  15.249  0.00  0.00    +0.000 C 
BRANCH  14  18
ATOM     15  C   UNL     1       5.922   2.445  11.324  0.00  0.00    +0.000 C 
ATOM     16  C   UNL     1       6.419   3.434  12.302  0.00  0.00    +0.000 A 
ATOM     17  C   UNL     1       6.191   3.676  13.633  0.00  0.00    +0.000 A 
ATOM     18  C   UNL     1       7.007   4.794  13.942  0.00  0.00    +0.000 A 
ATOM     19  N   UNL     1       7.688   5.197  12.858  0.00  0.00    +0.000 NA
ATOM     20  O   UNL     1       7.314   4.343  11.834  0.00  0.00    +0.000 OA
ENDBRANCH  14  18
ENDBRANCH  13  14
ENDBRANCH   1  13
BRANCH   5  21
ATOM     21  C   UNL     1       3.782   6.329  18.629  0.00  0.00    +0.000 C 
BRANCH  21  22
ATOM     22  C   UNL     1       2.957   7.392  17.903  0.00  0.00    +0.000 C 
BRANCH  22  23
ATOM     23  C   UNL     1       2.037   8.260  18.729  0.00  0.00    +0.000 A 
ATOM     24  C   UNL     1       1.320   9.269  18.062  0.00  0.00    +0.000 A 
ATOM     25  C   UNL     1       0.385  10.051  18.734  0.00  0.00    +0.000 A 
ATOM     26  C   UNL     1       0.142   9.827  20.086  0.00  0.00    +0.000 A 
ATOM     27  C   UNL     1       0.843   8.829  20.761  0.00  0.00    +0.000 A 
ATOM     28  C   UNL     1       1.784   8.044  20.087  0.00  0.00    +0.000 A 
ENDBRANCH  22  23
ENDBRANCH  21  22
ENDBRANCH   5  21
TORSDOF 7
ENDMDL
MODEL 8
REMARK VINA RESULT:      -8.7      2.791      5.701
REMARK  Name = 
REMARK  8 active torsions:
REMARK  status: ('A' for Active; 'I' for Inactive)
REMARK    1  A    between atoms: C_1  and  C_2
REMARK    2  A    between atoms: C_4  and  C_5
REMARK    3  A    between atoms: C_5  and  S_6
REMARK    4  A    between atoms: S_6  and  C_7
REMARK    5  A    between atoms: C_10  and  C_11
REMARK    6  A    between atoms: N_18  and  C_19
REMARK    7  A    between atoms: C_19  and  C_20
REMARK    8  A    between atoms: C_20  and  C_21
REMARK                            x       y       z     vdW  Elec       q    Type
REMARK                         _______ _______ _______ _____ _____    ______ ____
ROOT
ATOM      1  C   UNL     1       4.862   4.872  16.710  0.00  0.00    +0.000 A 
ATOM      2  N   UNL     1       4.872   3.589  16.451  0.00  0.00    +0.000 NA
ATOM      3  N   UNL     1       4.166   2.956  17.438  0.00  0.00    +0.000 NA
ATOM      4  C   UNL     1       3.724   3.850  18.308  0.00  0.00    +0.000 A 
ATOM      5  N   UNL     1       4.176   5.109  17.885  0.00  0.00    +0.000 N 
ENDROOT
BRANCH   4   6
ATOM      6  C   UNL     1       2.857   3.523  19.464  0.00  0.00    +0.000 A 
ATOM      7  C   UNL     1       1.532   3.974  19.587  0.00  0.00    +0.000 A 
ATOM      8  C   UNL     1       0.727   3.598  20.675  0.00  0.00    +0.000 A 
ATOM      9  C   UNL     1       1.247   2.809  21.693  0.00  0.00    +0.000 A 
ATOM     10  C   UNL     1       2.574   2.400  21.626  0.00  0.00    +0.000 A 
ATOM     11  C   UNL     1       3.362   2.752  20.524  0.00  0.00    +0.000 A 
ATOM     12  F   UNL     1       4.627   2.311  20.511  0.00  0.00    +0.000 F 
ENDBRANCH   4   6
BRANCH   1  13
ATOM     13  S   UNL     1       5.581   6.076  15.699  0.00  0.00    +0.000 S 
BRANCH  13  14
ATOM     14  C   UNL     1       7.139   5.342  15.135  0.00  0.00    +0.000 C 
BRANCH  14  18
ATOM     15  C   UNL     1       5.548   2.342  11.286  0.00  0.00    +0.000 C 
ATOM     16  C   UNL     1       6.161   3.288  12.240  0.00  0.00    +0.000 A 
ATOM     17  C   UNL     1       5.959   3.594  13.562  0.00  0.00    +0.000 A 
ATOM     18  C   UNL     1       6.908   4.609  13.846  0.00  0.00    +0.000 A 
ATOM     19  N   UNL     1       7.638   4.894  12.757  0.00  0.00    +0.000 NA
ATOM     20  O   UNL     1       7.164   4.065  11.753  0.00  0.00    +0.000 OA
ENDBRANCH  14  18
ENDBRANCH  13  14
ENDBRANCH   1  13
BRANCH   5  21
ATOM     21  C   UNL     1       3.884   6.356  18.584  0.00  0.00    +0.000 C 
BRANCH  21  22
ATOM     22  C   UNL     1       3.094   7.456  17.876  0.00  0.00    +0.000 C 
BRANCH  22  23
ATOM     23  C   UNL     1       2.052   8.205  18.673  0.00  0.00    +0.000 A 
ATOM     24  C   UNL     1       1.895   7.860  20.027  0.00  0.00    +0.000 A 
ATOM     25  C   UNL     1       1.023   8.564  20.853  0.00  0.00    +0.000 A 
ATOM     26  C   UNL     1       0.300   9.636  20.338  0.00  0.00    +0.000 A 
ATOM     27  C   UNL     1       0.446   9.992  18.998  0.00  0.00    +0.000 A 
ATOM     28  C   UNL     1       1.321   9.285  18.167  0.00  0.00    +0.000 A 
ENDBRANCH  22  23
ENDBRANCH  21  22
ENDBRANCH   5  21
TORSDOF 7
ENDMDL
MODEL 9
REMARK VINA RESULT:      -8.7      3.176      7.138
REMARK  Name = 
REMARK  8 active torsions:
REMARK  status: ('A' for Active; 'I' for Inactive)
REMARK    1  A    between atoms: C_1  and  C_2
REMARK    2  A    between atoms: C_4  and  C_5
REMARK    3  A    between atoms: C_5  and  S_6
REMARK    4  A    between atoms: S_6  and  C_7
REMARK    5  A    between atoms: C_10  and  C_11
REMARK    6  A    between atoms: N_18  and  C_19
REMARK    7  A    between atoms: C_19  and  C_20
REMARK    8  A    between atoms: C_20  and  C_21
REMARK                            x       y       z     vdW  Elec       q    Type
REMARK                         _______ _______ _______ _____ _____    ______ ____
ROOT
ATOM      1  C   UNL     1       1.784   8.345  19.597  0.00  0.00    +0.000 A 
ATOM      2  N   UNL     1       1.414   7.760  20.707  0.00  0.00    +0.000 NA
ATOM      3  N   UNL     1       1.739   6.434  20.612  0.00  0.00    +0.000 NA
ATOM      4  C   UNL     1       2.307   6.202  19.439  0.00  0.00    +0.000 A 
ATOM      5  N   UNL     1       2.334   7.415  18.736  0.00  0.00    +0.000 N 
ENDROOT
BRANCH   4   6
ATOM      6  C   UNL     1       2.855   4.887  19.030  0.00  0.00    +0.000 A 
ATOM      7  C   UNL     1       4.012   4.324  19.593  0.00  0.00    +0.000 A 
ATOM      8  C   UNL     1       4.469   3.051  19.212  0.00  0.00    +0.000 A 
ATOM      9  C   UNL     1       3.811   2.338  18.219  0.00  0.00    +0.000 A 
ATOM     10  C   UNL     1       2.698   2.900  17.601  0.00  0.00    +0.000 A 
ATOM     11  C   UNL     1       2.230   4.155  18.006  0.00  0.00    +0.000 A 
ATOM     12  F   UNL     1       1.143   4.632  17.385  0.00  0.00    +0.000 F 
ENDBRANCH   4   6
BRANCH   1  13
ATOM     13  S   UNL     1       1.627  10.039  19.288  0.00  0.00    +0.000 S 
BRANCH  13  14
ATOM     14  C   UNL     1      -0.008  10.481  19.933  0.00  0.00    +0.000 C 
BRANCH  14  18
ATOM     15  C   UNL     1      -3.911  11.330  16.711  0.00  0.00    +0.000 C 
ATOM     16  C   UNL     1      -2.708  10.940  17.474  0.00  0.00    +0.000 A 
ATOM     17  C   UNL     1      -2.203  11.257  18.709  0.00  0.00    +0.000 A 
ATOM     18  C   UNL     1      -0.998  10.515  18.807  0.00  0.00    +0.000 A 
ATOM     19  N   UNL     1      -0.794   9.793  17.694  0.00  0.00    +0.000 NA
ATOM     20  O   UNL     1      -1.867  10.064  16.862  0.00  0.00    +0.000 OA
ENDBRANCH  14  18
ENDBRANCH  13  14
ENDBRANCH   1  13
BRANCH   5  21
ATOM     21  C   UNL     1       2.895   7.568  17.398  0.00  0.00    +0.000 C 
BRANCH  21  22
ATOM     22  C   UNL     1       4.394   7.815  17.227  0.00  0.00    +0.000 C 
BRANCH  22  23
ATOM     23  C   UNL     1       5.275   6.628  16.916  0.00  0.00    +0.000 A 
ATOM     24  C   UNL     1       6.441   6.464  17.685  0.00  0.00    +0.000 A 
ATOM     25  C   UNL     1       7.258   5.347  17.523  0.00  0.00    +0.000 A 
ATOM     26  C   UNL     1       6.913   4.369  16.595  0.00  0.00    +0.000 A 
ATOM     27  C   UNL     1       5.759   4.517  15.827  0.00  0.00    +0.000 A 
ATOM     28  C   UNL     1       4.938   5.639  15.988  0.00  0.00    +0.000 A 
ENDBRANCH  22  23
ENDBRANCH  21  22
ENDBRANCH   5  21
TORSDOF 7
ENDMDL
