MODEL 1
REMARK VINA RESULT:      -8.4      0.000      0.000
REMARK  Name = 
REMARK  9 active torsions:
REMARK  status: ('A' for Active; 'I' for Inactive)
REMARK    1  A    between atoms: C_2  and  C_20
REMARK    2  A    between atoms: N_3  and  C_4
REMARK    3  A    between atoms: C_8  and  C_9
REMARK    4  A    between atoms: C_9  and  O_10
REMARK    5  A    between atoms: O_10  and  C_11
REMARK    6  A    between atoms: C_11  and  C_12
REMARK    7  A    between atoms: C_12  and  C_13
REMARK    8  A    between atoms: C_25  and  C_26
REMARK    9  A    between atoms: C_26  and  O_28
REMARK                            x       y       z     vdW  Elec       q    Type
REMARK                         _______ _______ _______ _____ _____    ______ ____
ROOT
ATOM      1  C   UNL     1       5.014   3.934  16.843  0.00  0.00    +0.000 A 
ATOM      2  C   UNL     1       5.636   3.556  15.647  0.00  0.00    +0.000 A 
ATOM      3  C   UNL     1       6.576   4.371  15.033  0.00  0.00    +0.000 A 
ATOM      4  C   UNL     1       6.885   5.603  15.584  0.00  0.00    +0.000 A 
ATOM      5  C   UNL     1       6.230   6.044  16.746  0.00  0.00    +0.000 A 
ATOM      6  C   UNL     1       5.285   5.202  17.366  0.00  0.00    +0.000 A 
ENDROOT
BRANCH   1   9
ATOM      7  O   UNL     1       2.142   3.812  16.580  0.00  0.00    +0.000 OA
ATOM      8  C   UNL     1       2.751   3.076  17.377  0.00  0.00    +0.000 C 
ATOM      9  N   UNL     1       4.132   3.069  17.535  0.00  0.00    +0.000 N 
ATOM     10  H   UNL     1       4.549   2.314  18.064  0.00  0.00    +0.000 HD
BRANCH   8  11
ATOM     11  C   UNL     1       1.964   2.067  18.262  0.00  0.00    +0.000 C 
ATOM     12  C   UNL     1       0.843   2.668  19.161  0.00  0.00    +0.000 C 
ATOM     13  C   UNL     1       1.921   2.817  20.172  0.00  0.00    +0.000 C 
ATOM     14  C   UNL     1       2.683   1.681  19.587  0.00  0.00    +0.000 C 
ATOM     15  C   UNL     1       1.824   3.168  21.613  0.00  0.00    +0.000 C 
ATOM     16  C   UNL     1       2.504   4.126  20.652  0.00  0.00    +0.000 C 
BRANCH  16  17
ATOM     17  C   UNL     1       1.860   5.432  20.344  0.00  0.00    +0.000 C 
ATOM     18  O   UNL     1       1.300   6.113  21.187  0.00  0.00    +0.000 OA
BRANCH  17  19
ATOM     19  O   UNL     1       1.974   5.802  19.046  0.00  0.00    +0.000 OA
ATOM     20  H   UNL     1       2.708   6.438  18.921  0.00  0.00    +0.000 HD
ENDBRANCH  17  19
ENDBRANCH  16  17
ENDBRANCH   8  11
ENDBRANCH   1   9
BRANCH   5  21
ATOM     21  C   UNL     1       6.539   7.410  17.298  0.00  0.00    +0.000 C 
BRANCH  21  22
ATOM     22  O   UNL     1       7.946   7.626  17.250  0.00  0.00    +0.000 OA
BRANCH  22  23
ATOM     23  C   UNL     1       8.376   8.480  18.313  0.00  0.00    +0.000 C 
BRANCH  23  24
ATOM     24  C   UNL     1       8.420   9.910  17.790  0.00  0.00    +0.000 C 
BRANCH  24  25
ATOM     25  C   UNL     1       9.416  10.761  18.531  0.00  0.00    +0.000 A 
ATOM     26  C   UNL     1       9.426  10.788  19.932  0.00  0.00    +0.000 A 
ATOM     27  C   UNL     1      10.371  11.553  20.616  0.00  0.00    +0.000 A 
ATOM     28  C   UNL     1      11.307  12.304  19.906  0.00  0.00    +0.000 A 
ATOM     29  C   UNL     1      11.290  12.301  18.512  0.00  0.00    +0.000 A 
ATOM     30  C   UNL     1      10.344  11.538  17.826  0.00  0.00    +0.000 A 
ENDBRANCH  24  25
ENDBRANCH  23  24
ENDBRANCH  22  23
ENDBRANCH  21  22
ENDBRANCH   5  21
TORSDOF 9
ENDMDL
MODEL 2
REMARK VINA RESULT:      -8.1      0.984      1.340
REMARK  Name = 
REMARK  9 active torsions:
REMARK  status: ('A' for Active; 'I' for Inactive)
REMARK    1  A    between atoms: C_2  and  C_20
REMARK    2  A    between atoms: N_3  and  C_4
REMARK    3  A    between atoms: C_8  and  C_9
REMARK    4  A    between atoms: C_9  and  O_10
REMARK    5  A    between atoms: O_10  and  C_11
REMARK    6  A    between atoms: C_11  and  C_12
REMARK    7  A    between atoms: C_12  and  C_13
REMARK    8  A    between atoms: C_25  and  C_26
REMARK    9  A    between atoms: C_26  and  O_28
REMARK                            x       y       z     vdW  Elec       q    Type
REMARK                         _______ _______ _______ _____ _____    ______ ____
ROOT
ATOM      1  C   UNL     1       4.913   4.535  16.371  0.00  0.00    +0.000 A 
ATOM      2  C   UNL     1       5.442   4.386  15.084  0.00  0.00    +0.000 A 
ATOM      3  C   UNL     1       6.690   4.892  14.751  0.00  0.00    +0.000 A 
ATOM      4  C   UNL     1       7.422   5.595  15.694  0.00  0.00    +0.000 A 
ATOM      5  C   UNL     1       6.893   5.823  16.975  0.00  0.00    +0.000 A 
ATOM      6  C   UNL     1       5.629   5.293  17.304  0.00  0.00    +0.000 A 
ENDROOT
BRANCH   1   9
ATOM      7  O   UNL     1       4.548   2.418  18.299  0.00  0.00    +0.000 OA
ATOM      8  C   UNL     1       3.585   2.901  17.676  0.00  0.00    +0.000 C 
ATOM      9  N   UNL     1       3.690   3.935  16.754  0.00  0.00    +0.000 N 
ATOM     10  H   UNL     1       2.839   4.385  16.441  0.00  0.00    +0.000 HD
BRANCH   8  11
ATOM     11  C   UNL     1       2.148   2.360  17.926  0.00  0.00    +0.000 C 
ATOM     12  C   UNL     1       1.074   3.415  18.324  0.00  0.00    +0.000 C 
ATOM     13  C   UNL     1       1.499   3.126  19.717  0.00  0.00    +0.000 C 
ATOM     14  C   UNL     1       1.931   1.752  19.342  0.00  0.00    +0.000 C 
ATOM     15  C   UNL     1       0.875   3.536  21.002  0.00  0.00    +0.000 C 
ATOM     16  C   UNL     1       2.244   4.075  20.628  0.00  0.00    +0.000 C 
BRANCH  16  17
ATOM     17  C   UNL     1       2.397   5.518  20.299  0.00  0.00    +0.000 C 
ATOM     18  O   UNL     1       1.651   6.382  20.731  0.00  0.00    +0.000 OA
BRANCH  17  19
ATOM     19  O   UNL     1       3.454   5.785  19.496  0.00  0.00    +0.000 OA
ATOM     20  H   UNL     1       3.748   6.713  19.592  0.00  0.00    +0.000 HD
ENDBRANCH  17  19
ENDBRANCH  16  17
ENDBRANCH   8  11
ENDBRANCH   1   9
BRANCH   5  21
ATOM     21  C   UNL     1       7.680   6.637  17.968  0.00  0.00    +0.000 C 
BRANCH  21  22
ATOM     22  O   UNL     1       7.857   7.955  17.455  0.00  0.00    +0.000 OA
BRANCH  22  23
ATOM     23  C   UNL     1       8.422   8.823  18.441  0.00  0.00    +0.000 C 
BRANCH  23  24
ATOM     24  C   UNL     1       8.636  10.191  17.806  0.00  0.00    +0.000 C 
BRANCH  24  25
ATOM     25  C   UNL     1       9.712  10.982  18.500  0.00  0.00    +0.000 A 
ATOM     26  C   UNL     1      10.726  11.606  17.761  0.00  0.00    +0.000 A 
ATOM     27  C   UNL     1      11.705  12.363  18.405  0.00  0.00    +0.000 A 
ATOM     28  C   UNL     1      11.683  12.497  19.793  0.00  0.00    +0.000 A 
ATOM     29  C   UNL     1      10.691  11.862  20.538  0.00  0.00    +0.000 A 
ATOM     30  C   UNL     1       9.713  11.101  19.896  0.00  0.00    +0.000 A 
ENDBRANCH  24  25
ENDBRANCH  23  24
ENDBRANCH  22  23
ENDBRANCH  21  22
ENDBRANCH   5  21
TORSDOF 9
ENDMDL
MODEL 3
REMARK VINA RESULT:      -7.9      5.182      7.045
REMARK  Name = 
REMARK  9 active torsions:
REMARK  status: ('A' for Active; 'I' for Inactive)
REMARK    1  A    between atoms: C_2  and  C_20
REMARK    2  A    between atoms: N_3  and  C_4
REMARK    3  A    between atoms: C_8  and  C_9
REMARK    4  A    between atoms: C_9  and  O_10
REMARK    5  A    between atoms: O_10  and  C_11
REMARK    6  A    between atoms: C_11  and  C_12
REMARK    7  A    between atoms: C_12  and  C_13
REMARK    8  A    between atoms: C_25  and  C_26
REMARK    9  A    between atoms: C_26  and  O_28
REMARK                            x       y       z     vdW  Elec       q    Type
REMARK                         _______ _______ _______ _____ _____    ______ ____
ROOT
ATOM      1  C   UNL     1       2.365   7.238  18.728  0.00  0.00    +0.000 A 
ATOM      2  C   UNL     1       2.116   8.219  17.760  0.00  0.00    +0.000 A 
ATOM      3  C   UNL     1       1.542   9.436  18.095  0.00  0.00    +0.000 A 
ATOM      4  C   UNL     1       1.166   9.683  19.406  0.00  0.00    +0.000 A 
ATOM      5  C   UNL     1       1.338   8.696  20.390  0.00  0.00    +0.000 A 
ATOM      6  C   UNL     1       1.934   7.468  20.039  0.00  0.00    +0.000 A 
ENDROOT
BRANCH   1   9
ATOM      7  O   UNL     1       1.226   4.849  17.578  0.00  0.00    +0.000 OA
ATOM      8  C   UNL     1       2.430   4.910  17.885  0.00  0.00    +0.000 C 
ATOM      9  N   UNL     1       3.045   6.035  18.420  0.00  0.00    +0.000 N 
ATOM     10  H   UNL     1       4.056   6.054  18.462  0.00  0.00    +0.000 HD
BRANCH   8  11
ATOM     11  C   UNL     1       3.354   3.679  17.655  0.00  0.00    +0.000 C 
ATOM     12  C   UNL     1       2.902   2.344  18.317  0.00  0.00    +0.000 C 
ATOM     13  C   UNL     1       3.696   2.809  19.483  0.00  0.00    +0.000 C 
ATOM     14  C   UNL     1       4.585   3.617  18.606  0.00  0.00    +0.000 C 
ATOM     15  C   UNL     1       4.097   2.070  20.709  0.00  0.00    +0.000 C 
ATOM     16  C   UNL     1       3.133   3.238  20.818  0.00  0.00    +0.000 C 
BRANCH  16  17
ATOM     17  C   UNL     1       1.716   2.983  21.190  0.00  0.00    +0.000 C 
ATOM     18  O   UNL     1       1.391   2.291  22.142  0.00  0.00    +0.000 OA
BRANCH  17  19
ATOM     19  O   UNL     1       0.821   3.609  20.389  0.00  0.00    +0.000 OA
ATOM     20  H   UNL     1       1.203   4.418  19.992  0.00  0.00    +0.000 HD
ENDBRANCH  17  19
ENDBRANCH  16  17
ENDBRANCH   8  11
ENDBRANCH   1   9
BRANCH   5  21
ATOM     21  C   UNL     1       0.872   8.964  21.797  0.00  0.00    +0.000 C 
BRANCH  21  22
ATOM     22  O   UNL     1      -0.427   9.546  21.756  0.00  0.00    +0.000 OA
BRANCH  22  23
ATOM     23  C   UNL     1      -0.559  10.587  22.727  0.00  0.00    +0.000 C 
BRANCH  23  24
ATOM     24  C   UNL     1      -1.389  11.710  22.116  0.00  0.00    +0.000 C 
BRANCH  24  25
ATOM     25  C   UNL     1      -0.722  12.326  20.916  0.00  0.00    +0.000 A 
ATOM     26  C   UNL     1       0.570  12.858  21.014  0.00  0.00    +0.000 A 
ATOM     27  C   UNL     1       1.198  13.401  19.892  0.00  0.00    +0.000 A 
ATOM     28  C   UNL     1       0.536  13.423  18.666  0.00  0.00    +0.000 A 
ATOM     29  C   UNL     1      -0.759  12.916  18.563  0.00  0.00    +0.000 A 
ATOM     30  C   UNL     1      -1.388  12.375  19.684  0.00  0.00    +0.000 A 
ENDBRANCH  24  25
ENDBRANCH  23  24
ENDBRANCH  22  23
ENDBRANCH  21  22
ENDBRANCH   5  21
TORSDOF 9
ENDMDL
MODEL 4
REMARK VINA RESULT:      -7.9      1.317      1.704
REMARK  Name = 
REMARK  9 active torsions:
REMARK  status: ('A' for Active; 'I' for Inactive)
REMARK    1  A    between atoms: C_2  and  C_20
REMARK    2  A    between atoms: N_3  and  C_4
REMARK    3  A    between atoms: C_8  and  C_9
REMARK    4  A    between atoms: C_9  and  O_10
REMARK    5  A    between atoms: O_10  and  C_11
REMARK    6  A    between atoms: C_11  and  C_12
REMARK    7  A    between atoms: C_12  and  C_13
REMARK    8  A    between atoms: C_25  and  C_26
REMARK    9  A    between atoms: C_26  and  O_28
REMARK                            x       y       z     vdW  Elec       q    Type
REMARK                         _______ _______ _______ _____ _____    ______ ____
ROOT
ATOM      1  C   UNL     1       5.175   4.311  16.935  0.00  0.00    +0.000 A 
ATOM      2  C   UNL     1       5.741   3.902  15.722  0.00  0.00    +0.000 A 
ATOM      3  C   UNL     1       6.955   4.411  15.283  0.00  0.00    +0.000 A 
ATOM      4  C   UNL     1       7.611   5.373  16.034  0.00  0.00    +0.000 A 
ATOM      5  C   UNL     1       7.039   5.856  17.222  0.00  0.00    +0.000 A 
ATOM      6  C   UNL     1       5.811   5.322  17.662  0.00  0.00    +0.000 A 
ENDROOT
BRANCH   1   9
ATOM      7  O   UNL     1       4.961   2.507  19.178  0.00  0.00    +0.000 OA
ATOM      8  C   UNL     1       3.960   2.844  18.519  0.00  0.00    +0.000 C 
ATOM      9  N   UNL     1       3.991   3.725  17.445  0.00  0.00    +0.000 N 
ATOM     10  H   UNL     1       3.112   4.083  17.094  0.00  0.00    +0.000 HD
BRANCH   8  11
ATOM     11  C   UNL     1       2.557   2.287  18.897  0.00  0.00    +0.000 C 
ATOM     12  C   UNL     1       1.342   3.210  18.585  0.00  0.00    +0.000 C 
ATOM     13  C   UNL     1       1.572   3.747  19.951  0.00  0.00    +0.000 C 
ATOM     14  C   UNL     1       2.181   2.465  20.396  0.00  0.00    +0.000 C 
ATOM     15  C   UNL     1       0.721   4.652  20.766  0.00  0.00    +0.000 C 
ATOM     16  C   UNL     1       2.076   5.133  20.280  0.00  0.00    +0.000 C 
BRANCH  16  17
ATOM     17  C   UNL     1       2.145   6.207  19.252  0.00  0.00    +0.000 C 
ATOM     18  O   UNL     1       2.248   5.980  18.058  0.00  0.00    +0.000 OA
BRANCH  17  19
ATOM     19  O   UNL     1       2.060   7.458  19.765  0.00  0.00    +0.000 OA
ATOM     20  H   UNL     1       2.713   7.594  20.481  0.00  0.00    +0.000 HD
ENDBRANCH  17  19
ENDBRANCH  16  17
ENDBRANCH   8  11
ENDBRANCH   1   9
BRANCH   5  21
ATOM     21  C   UNL     1       7.740   6.942  17.994  0.00  0.00    +0.000 C 
BRANCH  21  22
ATOM     22  O   UNL     1       7.943   8.065  17.142  0.00  0.00    +0.000 OA
BRANCH  22  23
ATOM     23  C   UNL     1       7.684   9.291  17.830  0.00  0.00    +0.000 C 
BRANCH  23  24
ATOM     24  C   UNL     1       8.914   9.645  18.657  0.00  0.00    +0.000 C 
BRANCH  24  25
ATOM     25  C   UNL     1       9.533  10.950  18.233  0.00  0.00    +0.000 A 
ATOM     26  C   UNL     1       8.726  12.036  17.870  0.00  0.00    +0.000 A 
ATOM     27  C   UNL     1       9.302  13.254  17.507  0.00  0.00    +0.000 A 
ATOM     28  C   UNL     1      10.689  13.393  17.497  0.00  0.00    +0.000 A 
ATOM     29  C   UNL     1      11.501  12.311  17.836  0.00  0.00    +0.000 A 
ATOM     30  C   UNL     1      10.926  11.092  18.196  0.00  0.00    +0.000 A 
ENDBRANCH  24  25
ENDBRANCH  23  24
ENDBRANCH  22  23
ENDBRANCH  21  22
ENDBRANCH   5  21
TORSDOF 9
ENDMDL
MODEL 5
REMARK VINA RESULT:      -7.8      0.557      1.205
REMARK  Name = 
REMARK  9 active torsions:
REMARK  status: ('A' for Active; 'I' for Inactive)
REMARK    1  A    between atoms: C_2  and  C_20
REMARK    2  A    between atoms: N_3  and  C_4
REMARK    3  A    between atoms: C_8  and  C_9
REMARK    4  A    between atoms: C_9  and  O_10
REMARK    5  A    between atoms: O_10  and  C_11
REMARK    6  A    between atoms: C_11  and  C_12
REMARK    7  A    between atoms: C_12  and  C_13
REMARK    8  A    between atoms: C_25  and  C_26
REMARK    9  A    between atoms: C_26  and  O_28
REMARK                            x       y       z     vdW  Elec       q    Type
REMARK                         _______ _______ _______ _____ _____    ______ ____
ROOT
ATOM      1  C   UNL     1       5.128   4.052  17.009  0.00  0.00    +0.000 A 
ATOM      2  C   UNL     1       5.832   3.552  15.907  0.00  0.00    +0.000 A 
ATOM      3  C   UNL     1       6.772   4.324  15.238  0.00  0.00    +0.000 A 
ATOM      4  C   UNL     1       6.997   5.632  15.636  0.00  0.00    +0.000 A 
ATOM      5  C   UNL     1       6.260   6.189  16.694  0.00  0.00    +0.000 A 
ATOM      6  C   UNL     1       5.317   5.390  17.372  0.00  0.00    +0.000 A 
ENDROOT
BRANCH   1   9
ATOM      7  O   UNL     1       2.321   3.609  16.502  0.00  0.00    +0.000 OA
ATOM      8  C   UNL     1       2.894   3.090  17.478  0.00  0.00    +0.000 C 
ATOM      9  N   UNL     1       4.245   3.244  17.764  0.00  0.00    +0.000 N 
ATOM     10  H   UNL     1       4.658   2.639  18.462  0.00  0.00    +0.000 HD
BRANCH   8  11
ATOM     11  C   UNL     1       2.094   2.183  18.457  0.00  0.00    +0.000 C 
ATOM     12  C   UNL     1       0.995   2.887  19.306  0.00  0.00    +0.000 C 
ATOM     13  C   UNL     1       2.085   3.106  20.291  0.00  0.00    +0.000 C 
ATOM     14  C   UNL     1       2.818   1.905  19.806  0.00  0.00    +0.000 C 
ATOM     15  C   UNL     1       2.009   3.589  21.694  0.00  0.00    +0.000 C 
ATOM     16  C   UNL     1       2.700   4.440  20.644  0.00  0.00    +0.000 C 
BRANCH  16  17
ATOM     17  C   UNL     1       2.081   5.725  20.222  0.00  0.00    +0.000 C 
ATOM     18  O   UNL     1       1.923   6.036  19.052  0.00  0.00    +0.000 OA
BRANCH  17  19
ATOM     19  O   UNL     1       1.688   6.507  21.256  0.00  0.00    +0.000 OA
ATOM     20  H   UNL     1       1.218   5.986  21.938  0.00  0.00    +0.000 HD
ENDBRANCH  17  19
ENDBRANCH  16  17
ENDBRANCH   8  11
ENDBRANCH   1   9
BRANCH   5  21
ATOM     21  C   UNL     1       6.481   7.628  17.074  0.00  0.00    +0.000 C 
BRANCH  21  22
ATOM     22  O   UNL     1       7.742   7.752  17.725  0.00  0.00    +0.000 OA
BRANCH  22  23
ATOM     23  C   UNL     1       8.154   9.118  17.803  0.00  0.00    +0.000 C 
BRANCH  23  24
ATOM     24  C   UNL     1       8.974   9.299  19.074  0.00  0.00    +0.000 C 
BRANCH  24  25
ATOM     25  C   UNL     1       9.634  10.650  19.142  0.00  0.00    +0.000 A 
ATOM     26  C   UNL     1      10.015  11.316  17.970  0.00  0.00    +0.000 A 
ATOM     27  C   UNL     1      10.599  12.582  18.036  0.00  0.00    +0.000 A 
ATOM     28  C   UNL     1      10.813  13.188  19.272  0.00  0.00    +0.000 A 
ATOM     29  C   UNL     1      10.457  12.523  20.445  0.00  0.00    +0.000 A 
ATOM     30  C   UNL     1       9.876  11.256  20.382  0.00  0.00    +0.000 A 
ENDBRANCH  24  25
ENDBRANCH  23  24
ENDBRANCH  22  23
ENDBRANCH  21  22
ENDBRANCH   5  21
TORSDOF 9
ENDMDL
MODEL 6
REMARK VINA RESULT:      -7.8      4.813      7.804
REMARK  Name = 
REMARK  9 active torsions:
REMARK  status: ('A' for Active; 'I' for Inactive)
REMARK    1  A    between atoms: C_2  and  C_20
REMARK    2  A    between atoms: N_3  and  C_4
REMARK    3  A    between atoms: C_8  and  C_9
REMARK    4  A    between atoms: C_9  and  O_10
REMARK    5  A    between atoms: O_10  and  C_11
REMARK    6  A    between atoms: C_11  and  C_12
REMARK    7  A    between atoms: C_12  and  C_13
REMARK    8  A    between atoms: C_25  and  C_26
REMARK    9  A    between atoms: C_26  and  O_28
REMARK                            x       y       z     vdW  Elec       q    Type
REMARK                         _______ _______ _______ _____ _____    ______ ____
ROOT
ATOM      1  C   UNL     1       2.230   7.287  19.700  0.00  0.00    +0.000 A 
ATOM      2  C   UNL     1       2.119   8.166  18.616  0.00  0.00    +0.000 A 
ATOM      3  C   UNL     1       1.393   9.344  18.712  0.00  0.00    +0.000 A 
ATOM      4  C   UNL     1       0.725   9.648  19.887  0.00  0.00    +0.000 A 
ATOM      5  C   UNL     1       0.757   8.757  20.972  0.00  0.00    +0.000 A 
ATOM      6  C   UNL     1       1.509   7.570  20.866  0.00  0.00    +0.000 A 
ENDROOT
BRANCH   1   9
ATOM      7  O   UNL     1       1.590   4.750  18.483  0.00  0.00    +0.000 OA
ATOM      8  C   UNL     1       2.673   4.934  19.067  0.00  0.00    +0.000 C 
ATOM      9  N   UNL     1       3.052   6.136  19.652  0.00  0.00    +0.000 N 
ATOM     10  H   UNL     1       4.017   6.247  19.935  0.00  0.00    +0.000 HD
BRANCH   8  11
ATOM     11  C   UNL     1       3.715   3.781  19.155  0.00  0.00    +0.000 C 
ATOM     12  C   UNL     1       5.192   4.162  18.846  0.00  0.00    +0.000 C 
ATOM     13  C   UNL     1       4.843   3.831  17.441  0.00  0.00    +0.000 C 
ATOM     14  C   UNL     1       3.785   2.884  17.885  0.00  0.00    +0.000 C 
ATOM     15  C   UNL     1       5.729   3.675  16.258  0.00  0.00    +0.000 C 
ATOM     16  C   UNL     1       4.733   4.819  16.303  0.00  0.00    +0.000 C 
BRANCH  16  17
ATOM     17  C   UNL     1       5.229   6.216  16.427  0.00  0.00    +0.000 C 
ATOM     18  O   UNL     1       4.638   7.079  17.056  0.00  0.00    +0.000 OA
BRANCH  17  19
ATOM     19  O   UNL     1       6.408   6.434  15.797  0.00  0.00    +0.000 OA
ATOM     20  H   UNL     1       6.288   6.489  14.827  0.00  0.00    +0.000 HD
ENDBRANCH  17  19
ENDBRANCH  16  17
ENDBRANCH   8  11
ENDBRANCH   1   9
BRANCH   5  21
ATOM     21  C   UNL     1      -0.020   9.080  22.220  0.00  0.00    +0.000 C 
BRANCH  21  22
ATOM     22  O   UNL     1       0.189  10.448  22.560  0.00  0.00    +0.000 OA
BRANCH  22  23
ATOM     23  C   UNL     1      -1.017  11.055  23.028  0.00  0.00    +0.000 C 
BRANCH  23  24
ATOM     24  C   UNL     1      -1.033  12.507  22.564  0.00  0.00    +0.000 C 
BRANCH  24  25
ATOM     25  C   UNL     1      -0.889  12.632  21.071  0.00  0.00    +0.000 A 
ATOM     26  C   UNL     1      -1.874  12.120  20.216  0.00  0.00    +0.000 A 
ATOM     27  C   UNL     1      -1.752  12.265  18.833  0.00  0.00    +0.000 A 
ATOM     28  C   UNL     1      -0.644  12.916  18.295  0.00  0.00    +0.000 A 
ATOM     29  C   UNL     1       0.352  13.409  19.137  0.00  0.00    +0.000 A 
ATOM     30  C   UNL     1       0.234  13.262  20.520  0.00  0.00    +0.000 A 
ENDBRANCH  24  25
ENDBRANCH  23  24
ENDBRANCH  22  23
ENDBRANCH  21  22
ENDBRANCH   5  21
TORSDOF 9
ENDMDL
MODEL 7
REMARK VINA RESULT:      -7.8      5.169      8.265
REMARK  Name = 
REMARK  9 active torsions:
REMARK  status: ('A' for Active; 'I' for Inactive)
REMARK    1  A    between atoms: C_2  and  C_20
REMARK    2  A    between atoms: N_3  and  C_4
REMARK    3  A    between atoms: C_8  and  C_9
REMARK    4  A    between atoms: C_9  and  O_10
REMARK    5  A    between atoms: O_10  and  C_11
REMARK    6  A    between atoms: C_11  and  C_12
REMARK    7  A    between atoms: C_12  and  C_13
REMARK    8  A    between atoms: C_25  and  C_26
REMARK    9  A    between atoms: C_26  and  O_28
REMARK                            x       y       z     vdW  Elec       q    Type
REMARK                         _______ _______ _______ _____ _____    ______ ____
ROOT
ATOM      1  C   UNL     1       2.377   7.329  18.670  0.00  0.00    +0.000 A 
ATOM      2  C   UNL     1       1.961   8.313  17.766  0.00  0.00    +0.000 A 
ATOM      3  C   UNL     1       1.309   9.460  18.194  0.00  0.00    +0.000 A 
ATOM      4  C   UNL     1       1.023   9.629  19.539  0.00  0.00    +0.000 A 
ATOM      5  C   UNL     1       1.365   8.631  20.467  0.00  0.00    +0.000 A 
ATOM      6  C   UNL     1       2.038   7.476  20.020  0.00  0.00    +0.000 A 
ENDROOT
BRANCH   1   9
ATOM      7  O   UNL     1       1.356   4.811  17.697  0.00  0.00    +0.000 OA
ATOM      8  C   UNL     1       2.578   5.011  17.821  0.00  0.00    +0.000 C 
ATOM      9  N   UNL     1       3.134   6.206  18.261  0.00  0.00    +0.000 N 
ATOM     10  H   UNL     1       4.132   6.338  18.152  0.00  0.00    +0.000 HD
BRANCH   8  11
ATOM     11  C   UNL     1       3.590   3.888  17.453  0.00  0.00    +0.000 C 
ATOM     12  C   UNL     1       3.240   2.454  17.949  0.00  0.00    +0.000 C 
ATOM     13  C   UNL     1       4.001   2.835  19.166  0.00  0.00    +0.000 C 
ATOM     14  C   UNL     1       4.825   3.806  18.396  0.00  0.00    +0.000 C 
ATOM     15  C   UNL     1       4.459   1.988  20.298  0.00  0.00    +0.000 C 
ATOM     16  C   UNL     1       3.412   3.060  20.539  0.00  0.00    +0.000 C 
BRANCH  16  17
ATOM     17  C   UNL     1       2.018   2.659  20.870  0.00  0.00    +0.000 C 
ATOM     18  O   UNL     1       1.657   2.377  22.002  0.00  0.00    +0.000 OA
BRANCH  17  19
ATOM     19  O   UNL     1       1.183   2.658  19.804  0.00  0.00    +0.000 OA
ATOM     20  H   UNL     1       0.246   2.629  20.085  0.00  0.00    +0.000 HD
ENDBRANCH  17  19
ENDBRANCH  16  17
ENDBRANCH   8  11
ENDBRANCH   1   9
BRANCH   5  21
ATOM     21  C   UNL     1       0.996   8.808  21.915  0.00  0.00    +0.000 C 
BRANCH  21  22
ATOM     22  O   UNL     1      -0.399   9.078  22.013  0.00  0.00    +0.000 OA
BRANCH  22  23
ATOM     23  C   UNL     1      -0.674  10.019  23.053  0.00  0.00    +0.000 C 
BRANCH  23  24
ATOM     24  C   UNL     1      -0.585  11.422  22.464  0.00  0.00    +0.000 C 
BRANCH  24  25
ATOM     25  C   UNL     1      -1.940  12.036  22.239  0.00  0.00    +0.000 A 
ATOM     26  C   UNL     1      -2.324  12.464  20.962  0.00  0.00    +0.000 A 
ATOM     27  C   UNL     1      -3.594  13.004  20.750  0.00  0.00    +0.000 A 
ATOM     28  C   UNL     1      -4.485  13.127  21.815  0.00  0.00    +0.000 A 
ATOM     29  C   UNL     1      -4.103  12.724  23.094  0.00  0.00    +0.000 A 
ATOM     30  C   UNL     1      -2.834  12.187  23.307  0.00  0.00    +0.000 A 
ENDBRANCH  24  25
ENDBRANCH  23  24
ENDBRANCH  22  23
ENDBRANCH  21  22
ENDBRANCH   5  21
TORSDOF 9
ENDMDL
MODEL 8
REMARK VINA RESULT:      -7.8      0.921      1.080
REMARK  Name = 
REMARK  9 active torsions:
REMARK  status: ('A' for Active; 'I' for Inactive)
REMARK    1  A    between atoms: C_2  and  C_20
REMARK    2  A    between atoms: N_3  and  C_4
REMARK    3  A    between atoms: C_8  and  C_9
REMARK    4  A    between atoms: C_9  and  O_10
REMARK    5  A    between atoms: O_10  and  C_11
REMARK    6  A    between atoms: C_11  and  C_12
REMARK    7  A    between atoms: C_12  and  C_13
REMARK    8  A    between atoms: C_25  and  C_26
REMARK    9  A    between atoms: C_26  and  O_28
REMARK                            x       y       z     vdW  Elec       q    Type
REMARK                         _______ _______ _______ _____ _____    ______ ____
ROOT
ATOM      1  C   UNL     1       5.714   4.286  17.279  0.00  0.00    +0.000 A 
ATOM      2  C   UNL     1       5.795   4.329  15.882  0.00  0.00    +0.000 A 
ATOM      3  C   UNL     1       6.572   5.276  15.232  0.00  0.00    +0.000 A 
ATOM      4  C   UNL     1       7.257   6.229  15.969  0.00  0.00    +0.000 A 
ATOM      5  C   UNL     1       7.144   6.258  17.369  0.00  0.00    +0.000 A 
ATOM      6  C   UNL     1       6.360   5.282  18.017  0.00  0.00    +0.000 A 
ENDROOT
BRANCH   1   9
ATOM      7  O   UNL     1       2.891   3.709  17.097  0.00  0.00    +0.000 OA
ATOM      8  C   UNL     1       3.641   3.051  17.842  0.00  0.00    +0.000 C 
ATOM      9  N   UNL     1       5.010   3.262  17.958  0.00  0.00    +0.000 N 
ATOM     10  H   UNL     1       5.562   2.565  18.440  0.00  0.00    +0.000 HD
BRANCH   8  11
ATOM     11  C   UNL     1       3.060   1.893  18.704  0.00  0.00    +0.000 C 
ATOM     12  C   UNL     1       1.713   2.183  19.429  0.00  0.00    +0.000 C 
ATOM     13  C   UNL     1       2.570   2.671  20.540  0.00  0.00    +0.000 C 
ATOM     14  C   UNL     1       3.685   1.778  20.125  0.00  0.00    +0.000 C 
ATOM     15  C   UNL     1       2.198   3.033  21.932  0.00  0.00    +0.000 C 
ATOM     16  C   UNL     1       2.700   4.109  20.987  0.00  0.00    +0.000 C 
BRANCH  16  17
ATOM     17  C   UNL     1       1.763   5.164  20.516  0.00  0.00    +0.000 C 
ATOM     18  O   UNL     1       0.581   4.955  20.297  0.00  0.00    +0.000 OA
BRANCH  17  19
ATOM     19  O   UNL     1       2.339   6.382  20.376  0.00  0.00    +0.000 OA
ATOM     20  H   UNL     1       1.912   6.898  19.662  0.00  0.00    +0.000 HD
ENDBRANCH  17  19
ENDBRANCH  16  17
ENDBRANCH   8  11
ENDBRANCH   1   9
BRANCH   5  21
ATOM     21  C   UNL     1       7.851   7.335  18.147  0.00  0.00    +0.000 C 
BRANCH  21  22
ATOM     22  O   UNL     1       8.240   8.377  17.257  0.00  0.00    +0.000 OA
BRANCH  22  23
ATOM     23  C   UNL     1       8.038   9.664  17.845  0.00  0.00    +0.000 C 
BRANCH  23  24
ATOM     24  C   UNL     1       8.887   9.751  19.107  0.00  0.00    +0.000 C 
BRANCH  24  25
ATOM     25  C   UNL     1       9.965  10.796  19.001  0.00  0.00    +0.000 A 
ATOM     26  C   UNL     1      10.660  11.220  20.141  0.00  0.00    +0.000 A 
ATOM     27  C   UNL     1      11.681  12.166  20.035  0.00  0.00    +0.000 A 
ATOM     28  C   UNL     1      12.008  12.701  18.790  0.00  0.00    +0.000 A 
ATOM     29  C   UNL     1      11.307  12.302  17.653  0.00  0.00    +0.000 A 
ATOM     30  C   UNL     1      10.285  11.358  17.758  0.00  0.00    +0.000 A 
ENDBRANCH  24  25
ENDBRANCH  23  24
ENDBRANCH  22  23
ENDBRANCH  21  22
ENDBRANCH   5  21
TORSDOF 9
ENDMDL
MODEL 9
REMARK VINA RESULT:      -7.7      1.026      1.196
REMARK  Name = 
REMARK  9 active torsions:
REMARK  status: ('A' for Active; 'I' for Inactive)
REMARK    1  A    between atoms: C_2  and  C_20
REMARK    2  A    between atoms: N_3  and  C_4
REMARK    3  A    between atoms: C_8  and  C_9
REMARK    4  A    between atoms: C_9  and  O_10
REMARK    5  A    between atoms: O_10  and  C_11
REMARK    6  A    between atoms: C_11  and  C_12
REMARK    7  A    between atoms: C_12  and  C_13
REMARK    8  A    between atoms: C_25  and  C_26
REMARK    9  A    between atoms: C_26  and  O_28
REMARK                            x       y       z     vdW  Elec       q    Type
REMARK                         _______ _______ _______ _____ _____    ______ ____
ROOT
ATOM      1  C   UNL     1       4.911   4.295  16.224  0.00  0.00    +0.000 A 
ATOM      2  C   UNL     1       5.647   3.786  15.147  0.00  0.00    +0.000 A 
ATOM      3  C   UNL     1       6.842   4.367  14.749  0.00  0.00    +0.000 A 
ATOM      4  C   UNL     1       7.307   5.499  15.398  0.00  0.00    +0.000 A 
ATOM      5  C   UNL     1       6.561   6.077  16.438  0.00  0.00    +0.000 A 
ATOM      6  C   UNL     1       5.354   5.470  16.840  0.00  0.00    +0.000 A 
ENDROOT
BRANCH   1   9
ATOM      7  O   UNL     1       4.689   2.659  18.591  0.00  0.00    +0.000 OA
ATOM      8  C   UNL     1       3.712   2.858  17.847  0.00  0.00    +0.000 C 
ATOM      9  N   UNL     1       3.746   3.652  16.707  0.00  0.00    +0.000 N 
ATOM     10  H   UNL     1       2.867   3.905  16.274  0.00  0.00    +0.000 HD
BRANCH   8  11
ATOM     11  C   UNL     1       2.335   2.214  18.182  0.00  0.00    +0.000 C 
ATOM     12  C   UNL     1       1.151   3.199  18.409  0.00  0.00    +0.000 C 
ATOM     13  C   UNL     1       1.583   3.180  19.830  0.00  0.00    +0.000 C 
ATOM     14  C   UNL     1       2.162   1.818  19.677  0.00  0.00    +0.000 C 
ATOM     15  C   UNL     1       0.899   3.720  21.034  0.00  0.00    +0.000 C 
ATOM     16  C   UNL     1       2.210   4.334  20.577  0.00  0.00    +0.000 C 
BRANCH  16  17
ATOM     17  C   UNL     1       2.216   5.715  20.023  0.00  0.00    +0.000 C 
ATOM     18  O   UNL     1       2.381   5.957  18.838  0.00  0.00    +0.000 OA
BRANCH  17  19
ATOM     19  O   UNL     1       2.000   6.676  20.953  0.00  0.00    +0.000 OA
ATOM     20  H   UNL     1       2.308   7.551  20.640  0.00  0.00    +0.000 HD
ENDBRANCH  17  19
ENDBRANCH  16  17
ENDBRANCH   8  11
ENDBRANCH   1   9
BRANCH   5  21
ATOM     21  C   UNL     1       7.057   7.339  17.093  0.00  0.00    +0.000 C 
BRANCH  21  22
ATOM     22  O   UNL     1       7.583   7.022  18.378  0.00  0.00    +0.000 OA
BRANCH  22  23
ATOM     23  C   UNL     1       8.557   7.983  18.791  0.00  0.00    +0.000 C 
BRANCH  23  24
ATOM     24  C   UNL     1       8.302   9.279  18.031  0.00  0.00    +0.000 C 
BRANCH  24  25
ATOM     25  C   UNL     1       8.953  10.466  18.688  0.00  0.00    +0.000 A 
ATOM     26  C   UNL     1       9.425  10.381  20.004  0.00  0.00    +0.000 A 
ATOM     27  C   UNL     1      10.056  11.474  20.600  0.00  0.00    +0.000 A 
ATOM     28  C   UNL     1      10.213  12.662  19.888  0.00  0.00    +0.000 A 
ATOM     29  C   UNL     1       9.727  12.763  18.585  0.00  0.00    +0.000 A 
ATOM     30  C   UNL     1       9.094  11.672  17.989  0.00  0.00    +0.000 A 
ENDBRANCH  24  25
ENDBRANCH  23  24
ENDBRANCH  22  23
ENDBRANCH  21  22
ENDBRANCH   5  21
TORSDOF 9
ENDMDL
