MODEL 1
REMARK VINA RESULT:      -9.1      0.000      0.000
REMARK  Name = 
REMARK  5 active torsions:
REMARK  status: ('A' for Active; 'I' for Inactive)
REMARK    1  A    between atoms: C_2  and  C_4
REMARK    2  A    between atoms: C_8  and  C_9
REMARK    3  A    between atoms: C_9  and  N_10
REMARK    4  A    between atoms: C_12  and  C_13
REMARK    5  A    between atoms: C_20  and  C_21
REMARK                            x       y       z     vdW  Elec       q    Type
REMARK                         _______ _______ _______ _____ _____    ______ ____
ROOT
ATOM      1  N   UNL     1       3.138   4.166  17.973  0.00  0.00    +0.000 N 
ATOM      2  N   UNL     1       2.849   5.526  17.961  0.00  0.00    +0.000 NA
ATOM      3  C   UNL     1       2.431   6.060  19.067  0.00  0.00    +0.000 A 
ATOM      4  C   UNL     1       2.224   5.291  20.310  0.00  0.00    +0.000 A 
ATOM      5  C   UNL     1       2.515   3.985  20.316  0.00  0.00    +0.000 A 
ATOM      6  C   UNL     1       3.033   3.347  19.095  0.00  0.00    +0.000 A 
ATOM      7  O   UNL     1       3.325   2.157  19.085  0.00  0.00    +0.000 OA
ENDROOT
BRANCH   3   8
ATOM      8  C   UNL     1       2.066   7.512  19.134  0.00  0.00    +0.000 A 
ATOM      9  C   UNL     1       2.187   8.302  17.984  0.00  0.00    +0.000 A 
ATOM     10  C   UNL     1       1.721   9.622  17.990  0.00  0.00    +0.000 A 
ATOM     11  C   UNL     1       1.142  10.161  19.141  0.00  0.00    +0.000 A 
ATOM     12  C   UNL     1       1.059   9.395  20.299  0.00  0.00    +0.000 A 
ATOM     13  C   UNL     1       1.532   8.081  20.301  0.00  0.00    +0.000 A 
ENDBRANCH   3   8
BRANCH   5  14
ATOM     14  C   UNL     1       2.295   3.149  21.516  0.00  0.00    +0.000 C 
ATOM     15  F   UNL     1       3.189   2.163  21.758  0.00  0.00    +0.000 F 
ATOM     16  F   UNL     1       2.263   3.922  22.636  0.00  0.00    +0.000 F 
ATOM     17  F   UNL     1       1.073   2.547  21.454  0.00  0.00    +0.000 F 
ENDBRANCH   5  14
BRANCH   1  18
ATOM     18  C   UNL     1       3.623   3.573  16.726  0.00  0.00    +0.000 C 
BRANCH  18  23
ATOM     19  C   UNL     1       6.703   4.579  14.724  0.00  0.00    +0.000 A 
ATOM     20  C   UNL     1       7.589   4.967  15.736  0.00  0.00    +0.000 A 
ATOM     21  C   UNL     1       7.201   4.879  17.072  0.00  0.00    +0.000 A 
ATOM     22  C   UNL     1       5.926   4.411  17.402  0.00  0.00    +0.000 A 
ATOM     23  C   UNL     1       5.029   4.018  16.398  0.00  0.00    +0.000 A 
ATOM     24  C   UNL     1       5.434   4.093  15.058  0.00  0.00    +0.000 A 
BRANCH  19  26
ATOM     25  N   UNL     1       8.063   5.654  13.017  0.00  0.00    +0.000 N 
ATOM     26  C   UNL     1       7.135   4.690  13.306  0.00  0.00    +0.000 C 
ATOM     27  O   UNL     1       6.716   3.937  12.441  0.00  0.00    +0.000 OA
ATOM     28  H   UNL     1       8.430   5.657  12.075  0.00  0.00    +0.000 HD
ATOM     29  H   UNL     1       8.608   6.112  13.735  0.00  0.00    +0.000 HD
ENDBRANCH  19  26
ENDBRANCH  18  23
ENDBRANCH   1  18
TORSDOF 5
ENDMDL
MODEL 2
REMARK VINA RESULT:      -9.0      1.683      2.208
REMARK  Name = 
REMARK  5 active torsions:
REMARK  status: ('A' for Active; 'I' for Inactive)
REMARK    1  A    between atoms: C_2  and  C_4
REMARK    2  A    between atoms: C_8  and  C_9
REMARK    3  A    between atoms: C_9  and  N_10
REMARK    4  A    between atoms: C_12  and  C_13
REMARK    5  A    between atoms: C_20  and  C_21
REMARK                            x       y       z     vdW  Elec       q    Type
REMARK                         _______ _______ _______ _____ _____    ______ ____
ROOT
ATOM      1  N   UNL     1       3.129   4.266  17.896  0.00  0.00    +0.000 N 
ATOM      2  N   UNL     1       2.816   5.620  17.956  0.00  0.00    +0.000 NA
ATOM      3  C   UNL     1       2.407   6.090  19.094  0.00  0.00    +0.000 A 
ATOM      4  C   UNL     1       2.233   5.256  20.300  0.00  0.00    +0.000 A 
ATOM      5  C   UNL     1       2.546   3.957  20.235  0.00  0.00    +0.000 A 
ATOM      6  C   UNL     1       3.055   3.390  18.976  0.00  0.00    +0.000 A 
ATOM      7  O   UNL     1       3.367   2.207  18.900  0.00  0.00    +0.000 OA
ENDROOT
BRANCH   3   8
ATOM      8  C   UNL     1       2.018   7.530  19.240  0.00  0.00    +0.000 A 
ATOM      9  C   UNL     1       2.068   8.369  18.121  0.00  0.00    +0.000 A 
ATOM     10  C   UNL     1       1.578   9.678  18.206  0.00  0.00    +0.000 A 
ATOM     11  C   UNL     1       1.047  10.156  19.404  0.00  0.00    +0.000 A 
ATOM     12  C   UNL     1       1.035   9.342  20.532  0.00  0.00    +0.000 A 
ATOM     13  C   UNL     1       1.533   8.039  20.455  0.00  0.00    +0.000 A 
ENDBRANCH   3   8
BRANCH   5  14
ATOM     14  C   UNL     1       2.360   3.057  21.394  0.00  0.00    +0.000 C 
ATOM     15  F   UNL     1       1.285   2.236  21.377  0.00  0.00    +0.000 F 
ATOM     16  F   UNL     1       3.451   2.258  21.557  0.00  0.00    +0.000 F 
ATOM     17  F   UNL     1       2.266   3.783  22.545  0.00  0.00    +0.000 F 
ENDBRANCH   5  14
BRANCH   1  18
ATOM     18  C   UNL     1       3.604   3.746  16.613  0.00  0.00    +0.000 C 
BRANCH  18  23
ATOM     19  C   UNL     1       6.833   5.759  16.771  0.00  0.00    +0.000 A 
ATOM     20  C   UNL     1       7.461   5.389  15.576  0.00  0.00    +0.000 A 
ATOM     21  C   UNL     1       6.829   4.505  14.702  0.00  0.00    +0.000 A 
ATOM     22  C   UNL     1       5.573   3.983  15.022  0.00  0.00    +0.000 A 
ATOM     23  C   UNL     1       4.932   4.348  16.215  0.00  0.00    +0.000 A 
ATOM     24  C   UNL     1       5.567   5.250  17.079  0.00  0.00    +0.000 A 
BRANCH  19  26
ATOM     25  N   UNL     1       7.638   7.997  17.282  0.00  0.00    +0.000 N 
ATOM     26  C   UNL     1       7.531   6.696  17.691  0.00  0.00    +0.000 C 
ATOM     27  O   UNL     1       7.956   6.337  18.777  0.00  0.00    +0.000 OA
ATOM     28  H   UNL     1       8.019   8.649  17.954  0.00  0.00    +0.000 HD
ATOM     29  H   UNL     1       7.085   8.373  16.524  0.00  0.00    +0.000 HD
ENDBRANCH  19  26
ENDBRANCH  18  23
ENDBRANCH   1  18
TORSDOF 5
ENDMDL
MODEL 3
REMARK VINA RESULT:      -9.0      1.932      2.349
REMARK  Name = 
REMARK  5 active torsions:
REMARK  status: ('A' for Active; 'I' for Inactive)
REMARK    1  A    between atoms: C_2  and  C_4
REMARK    2  A    between atoms: C_8  and  C_9
REMARK    3  A    between atoms: C_9  and  N_10
REMARK    4  A    between atoms: C_12  and  C_13
REMARK    5  A    between atoms: C_20  and  C_21
REMARK                            x       y       z     vdW  Elec       q    Type
REMARK                         _______ _______ _______ _____ _____    ______ ____
ROOT
ATOM      1  N   UNL     1       3.028   4.481  18.118  0.00  0.00    +0.000 N 
ATOM      2  N   UNL     1       2.689   5.823  18.245  0.00  0.00    +0.000 NA
ATOM      3  C   UNL     1       2.264   6.227  19.403  0.00  0.00    +0.000 A 
ATOM      4  C   UNL     1       2.099   5.330  20.564  0.00  0.00    +0.000 A 
ATOM      5  C   UNL     1       2.438   4.042  20.435  0.00  0.00    +0.000 A 
ATOM      6  C   UNL     1       2.965   3.550  19.153  0.00  0.00    +0.000 A 
ATOM      7  O   UNL     1       3.301   2.379  19.019  0.00  0.00    +0.000 OA
ENDROOT
BRANCH   3   8
ATOM      8  C   UNL     1       1.846   7.650  19.619  0.00  0.00    +0.000 A 
ATOM      9  C   UNL     1       1.847   8.536  18.535  0.00  0.00    +0.000 A 
ATOM     10  C   UNL     1       1.329   9.828  18.686  0.00  0.00    +0.000 A 
ATOM     11  C   UNL     1       0.819  10.244  19.917  0.00  0.00    +0.000 A 
ATOM     12  C   UNL     1       0.856   9.383  21.010  0.00  0.00    +0.000 A 
ATOM     13  C   UNL     1       1.381   8.097  20.866  0.00  0.00    +0.000 A 
ENDBRANCH   3   8
BRANCH   5  14
ATOM     14  C   UNL     1       2.263   3.081  21.546  0.00  0.00    +0.000 C 
ATOM     15  F   UNL     1       3.210   2.127  21.698  0.00  0.00    +0.000 F 
ATOM     16  F   UNL     1       2.186   3.738  22.737  0.00  0.00    +0.000 F 
ATOM     17  F   UNL     1       1.076   2.422  21.417  0.00  0.00    +0.000 F 
ENDBRANCH   5  14
BRANCH   1  18
ATOM     18  C   UNL     1       3.521   4.035  16.814  0.00  0.00    +0.000 C 
BRANCH  18  23
ATOM     19  C   UNL     1       6.969   5.552  17.374  0.00  0.00    +0.000 A 
ATOM     20  C   UNL     1       7.608   5.268  16.161  0.00  0.00    +0.000 A 
ATOM     21  C   UNL     1       6.915   4.607  15.148  0.00  0.00    +0.000 A 
ATOM     22  C   UNL     1       5.586   4.221  15.344  0.00  0.00    +0.000 A 
ATOM     23  C   UNL     1       4.934   4.501  16.554  0.00  0.00    +0.000 A 
ATOM     24  C   UNL     1       5.633   5.182  17.560  0.00  0.00    +0.000 A 
BRANCH  19  26
ATOM     25  N   UNL     1       8.017   5.527  19.569  0.00  0.00    +0.000 N 
ATOM     26  C   UNL     1       7.731   6.249  18.443  0.00  0.00    +0.000 C 
ATOM     27  O   UNL     1       8.119   7.400  18.314  0.00  0.00    +0.000 OA
ATOM     28  H   UNL     1       8.623   5.971  20.246  0.00  0.00    +0.000 HD
ATOM     29  H   UNL     1       7.936   4.520  19.600  0.00  0.00    +0.000 HD
ENDBRANCH  19  26
ENDBRANCH  18  23
ENDBRANCH   1  18
TORSDOF 5
ENDMDL
MODEL 4
REMARK VINA RESULT:      -8.9      1.311      1.701
REMARK  Name = 
REMARK  5 active torsions:
REMARK  status: ('A' for Active; 'I' for Inactive)
REMARK    1  A    between atoms: C_2  and  C_4
REMARK    2  A    between atoms: C_8  and  C_9
REMARK    3  A    between atoms: C_9  and  N_10
REMARK    4  A    between atoms: C_12  and  C_13
REMARK    5  A    between atoms: C_20  and  C_21
REMARK                            x       y       z     vdW  Elec       q    Type
REMARK                         _______ _______ _______ _____ _____    ______ ____
ROOT
ATOM      1  N   UNL     1       4.502   4.449  19.529  0.00  0.00    +0.000 N 
ATOM      2  N   UNL     1       4.071   5.764  19.391  0.00  0.00    +0.000 NA
ATOM      3  C   UNL     1       2.804   5.998  19.543  0.00  0.00    +0.000 A 
ATOM      4  C   UNL     1       1.812   4.940  19.821  0.00  0.00    +0.000 A 
ATOM      5  C   UNL     1       2.237   3.679  19.962  0.00  0.00    +0.000 A 
ATOM      6  C   UNL     1       3.672   3.375  19.841  0.00  0.00    +0.000 A 
ATOM      7  O   UNL     1       4.086   2.230  19.987  0.00  0.00    +0.000 OA
ENDROOT
BRANCH   3   8
ATOM      8  C   UNL     1       2.249   7.380  19.381  0.00  0.00    +0.000 A 
ATOM      9  C   UNL     1       2.327   8.007  18.132  0.00  0.00    +0.000 A 
ATOM     10  C   UNL     1       1.692   9.238  17.926  0.00  0.00    +0.000 A 
ATOM     11  C   UNL     1       0.987   9.851  18.963  0.00  0.00    +0.000 A 
ATOM     12  C   UNL     1       0.943   9.255  20.219  0.00  0.00    +0.000 A 
ATOM     13  C   UNL     1       1.584   8.032  20.432  0.00  0.00    +0.000 A 
ENDBRANCH   3   8
BRANCH   5  14
ATOM     14  C   UNL     1       1.294   2.566  20.204  0.00  0.00    +0.000 C 
ATOM     15  F   UNL     1       1.450   1.447  19.462  0.00  0.00    +0.000 F 
ATOM     16  F   UNL     1       1.344   2.174  21.507  0.00  0.00    +0.000 F 
ATOM     17  F   UNL     1       0.011   2.982  19.999  0.00  0.00    +0.000 F 
ENDBRANCH   5  14
BRANCH   1  18
ATOM     18  C   UNL     1       5.935   4.194  19.371  0.00  0.00    +0.000 C 
BRANCH  18  23
ATOM     19  C   UNL     1       6.986   5.327  15.890  0.00  0.00    +0.000 A 
ATOM     20  C   UNL     1       7.528   6.590  16.150  0.00  0.00    +0.000 A 
ATOM     21  C   UNL     1       7.579   7.069  17.459  0.00  0.00    +0.000 A 
ATOM     22  C   UNL     1       7.082   6.293  18.509  0.00  0.00    +0.000 A 
ATOM     23  C   UNL     1       6.538   5.024  18.261  0.00  0.00    +0.000 A 
ATOM     24  C   UNL     1       6.507   4.543  16.945  0.00  0.00    +0.000 A 
BRANCH  19  26
ATOM     25  N   UNL     1       7.783   5.438  13.594  0.00  0.00    +0.000 N 
ATOM     26  C   UNL     1       6.934   4.841  14.486  0.00  0.00    +0.000 C 
ATOM     27  O   UNL     1       6.198   3.928  14.144  0.00  0.00    +0.000 OA
ATOM     28  H   UNL     1       7.818   5.034  12.667  0.00  0.00    +0.000 HD
ATOM     29  H   UNL     1       8.566   6.004  13.890  0.00  0.00    +0.000 HD
ENDBRANCH  19  26
ENDBRANCH  18  23
ENDBRANCH   1  18
TORSDOF 5
ENDMDL
MODEL 5
REMARK VINA RESULT:      -8.9      1.456      2.044
REMARK  Name = 
REMARK  5 active torsions:
REMARK  status: ('A' for Active; 'I' for Inactive)
REMARK    1  A    between atoms: C_2  and  C_4
REMARK    2  A    between atoms: C_8  and  C_9
REMARK    3  A    between atoms: C_9  and  N_10
REMARK    4  A    between atoms: C_12  and  C_13
REMARK    5  A    between atoms: C_20  and  C_21
REMARK                            x       y       z     vdW  Elec       q    Type
REMARK                         _______ _______ _______ _____ _____    ______ ____
ROOT
ATOM      1  N   UNL     1       4.522   4.534  19.520  0.00  0.00    +0.000 N 
ATOM      2  N   UNL     1       4.039   5.828  19.352  0.00  0.00    +0.000 NA
ATOM      3  C   UNL     1       2.758   6.007  19.457  0.00  0.00    +0.000 A 
ATOM      4  C   UNL     1       1.804   4.909  19.712  0.00  0.00    +0.000 A 
ATOM      5  C   UNL     1       2.279   3.670  19.882  0.00  0.00    +0.000 A 
ATOM      6  C   UNL     1       3.729   3.428  19.814  0.00  0.00    +0.000 A 
ATOM      7  O   UNL     1       4.187   2.304  19.988  0.00  0.00    +0.000 OA
ENDROOT
BRANCH   3   8
ATOM      8  C   UNL     1       2.149   7.362  19.260  0.00  0.00    +0.000 A 
ATOM      9  C   UNL     1       1.526   7.996  20.341  0.00  0.00    +0.000 A 
ATOM     10  C   UNL     1       1.076   9.316  20.214  0.00  0.00    +0.000 A 
ATOM     11  C   UNL     1       1.238  10.003  19.009  0.00  0.00    +0.000 A 
ATOM     12  C   UNL     1       1.816   9.364  17.918  0.00  0.00    +0.000 A 
ATOM     13  C   UNL     1       2.257   8.044  18.037  0.00  0.00    +0.000 A 
ENDBRANCH   3   8
BRANCH   5  14
ATOM     14  C   UNL     1       1.377   2.519  20.103  0.00  0.00    +0.000 C 
ATOM     15  F   UNL     1       1.583   1.414  19.351  0.00  0.00    +0.000 F 
ATOM     16  F   UNL     1       1.431   2.114  21.403  0.00  0.00    +0.000 F 
ATOM     17  F   UNL     1       0.081   2.888  19.891  0.00  0.00    +0.000 F 
ENDBRANCH   5  14
BRANCH   1  18
ATOM     18  C   UNL     1       5.969   4.342  19.415  0.00  0.00    +0.000 C 
BRANCH  18  23
ATOM     19  C   UNL     1       6.991   5.308  15.875  0.00  0.00    +0.000 A 
ATOM     20  C   UNL     1       7.531   6.584  16.071  0.00  0.00    +0.000 A 
ATOM     21  C   UNL     1       7.591   7.126  17.355  0.00  0.00    +0.000 A 
ATOM     22  C   UNL     1       7.104   6.399  18.444  0.00  0.00    +0.000 A 
ATOM     23  C   UNL     1       6.561   5.118  18.262  0.00  0.00    +0.000 A 
ATOM     24  C   UNL     1       6.522   4.575  16.971  0.00  0.00    +0.000 A 
BRANCH  19  26
ATOM     25  N   UNL     1       6.245   3.582  14.331  0.00  0.00    +0.000 N 
ATOM     26  C   UNL     1       6.930   4.755  14.497  0.00  0.00    +0.000 C 
ATOM     27  O   UNL     1       7.431   5.334  13.546  0.00  0.00    +0.000 OA
ATOM     28  H   UNL     1       6.118   3.266  13.379  0.00  0.00    +0.000 HD
ATOM     29  H   UNL     1       5.616   3.220  15.035  0.00  0.00    +0.000 HD
ENDBRANCH  19  26
ENDBRANCH  18  23
ENDBRANCH   1  18
TORSDOF 5
ENDMDL
MODEL 6
REMARK VINA RESULT:      -8.8      1.147      1.633
REMARK  Name = 
REMARK  5 active torsions:
REMARK  status: ('A' for Active; 'I' for Inactive)
REMARK    1  A    between atoms: C_2  and  C_4
REMARK    2  A    between atoms: C_8  and  C_9
REMARK    3  A    between atoms: C_9  and  N_10
REMARK    4  A    between atoms: C_12  and  C_13
REMARK    5  A    between atoms: C_20  and  C_21
REMARK                            x       y       z     vdW  Elec       q    Type
REMARK                         _______ _______ _______ _____ _____    ______ ____
ROOT
ATOM      1  N   UNL     1       4.798   4.938  18.765  0.00  0.00    +0.000 N 
ATOM      2  N   UNL     1       4.170   6.177  18.693  0.00  0.00    +0.000 NA
ATOM      3  C   UNL     1       3.046   6.317  19.325  0.00  0.00    +0.000 A 
ATOM      4  C   UNL     1       2.400   5.226  20.080  0.00  0.00    +0.000 A 
ATOM      5  C   UNL     1       3.016   4.040  20.153  0.00  0.00    +0.000 A 
ATOM      6  C   UNL     1       4.314   3.850  19.487  0.00  0.00    +0.000 A 
ATOM      7  O   UNL     1       4.905   2.779  19.558  0.00  0.00    +0.000 OA
ENDROOT
BRANCH   3   8
ATOM      8  C   UNL     1       2.287   7.608  19.274  0.00  0.00    +0.000 A 
ATOM      9  C   UNL     1       2.184   8.295  18.058  0.00  0.00    +0.000 A 
ATOM     10  C   UNL     1       1.365   9.426  17.960  0.00  0.00    +0.000 A 
ATOM     11  C   UNL     1       0.655   9.881  19.073  0.00  0.00    +0.000 A 
ATOM     12  C   UNL     1       0.788   9.230  20.295  0.00  0.00    +0.000 A 
ATOM     13  C   UNL     1       1.612   8.107  20.399  0.00  0.00    +0.000 A 
ENDBRANCH   3   8
BRANCH   5  14
ATOM     14  C   UNL     1       2.406   2.893  20.861  0.00  0.00    +0.000 C 
ATOM     15  F   UNL     1       3.120   2.331  21.862  0.00  0.00    +0.000 F 
ATOM     16  F   UNL     1       1.206   3.248  21.398  0.00  0.00    +0.000 F 
ATOM     17  F   UNL     1       2.129   1.889  19.981  0.00  0.00    +0.000 F 
ENDBRANCH   5  14
BRANCH   1  18
ATOM     18  C   UNL     1       6.073   4.792  18.062  0.00  0.00    +0.000 C 
BRANCH  18  23
ATOM     19  C   UNL     1       6.740   4.758  14.313  0.00  0.00    +0.000 A 
ATOM     20  C   UNL     1       5.625   4.064  13.829  0.00  0.00    +0.000 A 
ATOM     21  C   UNL     1       4.640   3.627  14.713  0.00  0.00    +0.000 A 
ATOM     22  C   UNL     1       4.768   3.875  16.082  0.00  0.00    +0.000 A 
ATOM     23  C   UNL     1       5.880   4.570  16.580  0.00  0.00    +0.000 A 
ATOM     24  C   UNL     1       6.856   5.021  15.682  0.00  0.00    +0.000 A 
BRANCH  19  26
ATOM     25  N   UNL     1       7.636   4.806  12.051  0.00  0.00    +0.000 N 
ATOM     26  C   UNL     1       7.782   5.206  13.352  0.00  0.00    +0.000 C 
ATOM     27  O   UNL     1       8.707   5.927  13.691  0.00  0.00    +0.000 OA
ATOM     28  H   UNL     1       8.287   5.198  11.384  0.00  0.00    +0.000 HD
ATOM     29  H   UNL     1       6.767   4.432  11.695  0.00  0.00    +0.000 HD
ENDBRANCH  19  26
ENDBRANCH  18  23
ENDBRANCH   1  18
TORSDOF 5
ENDMDL
MODEL 7
REMARK VINA RESULT:      -8.8      1.674      2.292
REMARK  Name = 
REMARK  5 active torsions:
REMARK  status: ('A' for Active; 'I' for Inactive)
REMARK    1  A    between atoms: C_2  and  C_4
REMARK    2  A    between atoms: C_8  and  C_9
REMARK    3  A    between atoms: C_9  and  N_10
REMARK    4  A    between atoms: C_12  and  C_13
REMARK    5  A    between atoms: C_20  and  C_21
REMARK                            x       y       z     vdW  Elec       q    Type
REMARK                         _______ _______ _______ _____ _____    ______ ____
ROOT
ATOM      1  N   UNL     1       3.183   4.160  17.920  0.00  0.00    +0.000 N 
ATOM      2  N   UNL     1       2.819   5.502  17.897  0.00  0.00    +0.000 NA
ATOM      3  C   UNL     1       2.359   6.016  18.996  0.00  0.00    +0.000 A 
ATOM      4  C   UNL     1       2.180   5.242  20.240  0.00  0.00    +0.000 A 
ATOM      5  C   UNL     1       2.543   3.955  20.255  0.00  0.00    +0.000 A 
ATOM      6  C   UNL     1       3.110   3.342  19.044  0.00  0.00    +0.000 A 
ATOM      7  O   UNL     1       3.468   2.169  19.042  0.00  0.00    +0.000 OA
ENDROOT
BRANCH   3   8
ATOM      8  C   UNL     1       1.913   7.446  19.051  0.00  0.00    +0.000 A 
ATOM      9  C   UNL     1       1.453   7.973  20.264  0.00  0.00    +0.000 A 
ATOM     10  C   UNL     1       1.165   9.339  20.369  0.00  0.00    +0.000 A 
ATOM     11  C   UNL     1       1.326  10.181  19.267  0.00  0.00    +0.000 A 
ATOM     12  C   UNL     1       1.739   9.655  18.047  0.00  0.00    +0.000 A 
ATOM     13  C   UNL     1       2.018   8.291  17.935  0.00  0.00    +0.000 A 
ENDBRANCH   3   8
BRANCH   5  14
ATOM     14  C   UNL     1       2.356   3.112  21.456  0.00  0.00    +0.000 C 
ATOM     15  F   UNL     1       3.303   2.183  21.718  0.00  0.00    +0.000 F 
ATOM     16  F   UNL     1       2.260   3.888  22.572  0.00  0.00    +0.000 F 
ATOM     17  F   UNL     1       1.173   2.438  21.380  0.00  0.00    +0.000 F 
ENDBRANCH   5  14
BRANCH   1  18
ATOM     18  C   UNL     1       3.716   3.590  16.681  0.00  0.00    +0.000 C 
BRANCH  18  23
ATOM     19  C   UNL     1       6.847   5.757  16.768  0.00  0.00    +0.000 A 
ATOM     20  C   UNL     1       7.430   5.468  15.529  0.00  0.00    +0.000 A 
ATOM     21  C   UNL     1       6.798   4.590  14.650  0.00  0.00    +0.000 A 
ATOM     22  C   UNL     1       5.587   3.992  15.007  0.00  0.00    +0.000 A 
ATOM     23  C   UNL     1       4.990   4.275  16.245  0.00  0.00    +0.000 A 
ATOM     24  C   UNL     1       5.624   5.172  17.115  0.00  0.00    +0.000 A 
BRANCH  19  26
ATOM     25  N   UNL     1       7.689   7.984  17.271  0.00  0.00    +0.000 N 
ATOM     26  C   UNL     1       7.544   6.689  17.693  0.00  0.00    +0.000 C 
ATOM     27  O   UNL     1       7.937   6.335  18.793  0.00  0.00    +0.000 OA
ATOM     28  H   UNL     1       8.069   8.635  17.944  0.00  0.00    +0.000 HD
ATOM     29  H   UNL     1       7.161   8.362  16.497  0.00  0.00    +0.000 HD
ENDBRANCH  19  26
ENDBRANCH  18  23
ENDBRANCH   1  18
TORSDOF 5
ENDMDL
MODEL 8
REMARK VINA RESULT:      -8.7      0.626      1.329
REMARK  Name = 
REMARK  5 active torsions:
REMARK  status: ('A' for Active; 'I' for Inactive)
REMARK    1  A    between atoms: C_2  and  C_4
REMARK    2  A    between atoms: C_8  and  C_9
REMARK    3  A    between atoms: C_9  and  N_10
REMARK    4  A    between atoms: C_12  and  C_13
REMARK    5  A    between atoms: C_20  and  C_21
REMARK                            x       y       z     vdW  Elec       q    Type
REMARK                         _______ _______ _______ _____ _____    ______ ____
ROOT
ATOM      1  N   UNL     1       3.159   4.105  17.948  0.00  0.00    +0.000 N 
ATOM      2  N   UNL     1       2.819   5.452  17.895  0.00  0.00    +0.000 NA
ATOM      3  C   UNL     1       2.357   5.997  18.978  0.00  0.00    +0.000 A 
ATOM      4  C   UNL     1       2.153   5.252  20.236  0.00  0.00    +0.000 A 
ATOM      5  C   UNL     1       2.493   3.959  20.281  0.00  0.00    +0.000 A 
ATOM      6  C   UNL     1       3.061   3.311  19.088  0.00  0.00    +0.000 A 
ATOM      7  O   UNL     1       3.398   2.133  19.114  0.00  0.00    +0.000 OA
ENDROOT
BRANCH   3   8
ATOM      8  C   UNL     1       1.936   7.435  19.000  0.00  0.00    +0.000 A 
ATOM      9  C   UNL     1       1.476   7.995  20.197  0.00  0.00    +0.000 A 
ATOM     10  C   UNL     1       1.211   9.368  20.271  0.00  0.00    +0.000 A 
ATOM     11  C   UNL     1       1.396  10.184  19.154  0.00  0.00    +0.000 A 
ATOM     12  C   UNL     1       1.810   9.626  17.949  0.00  0.00    +0.000 A 
ATOM     13  C   UNL     1       2.065   8.254  17.867  0.00  0.00    +0.000 A 
ENDBRANCH   3   8
BRANCH   5  14
ATOM     14  C   UNL     1       2.280   3.145  21.497  0.00  0.00    +0.000 C 
ATOM     15  F   UNL     1       1.138   2.423  21.570  0.00  0.00    +0.000 F 
ATOM     16  F   UNL     1       3.303   2.262  21.665  0.00  0.00    +0.000 F 
ATOM     17  F   UNL     1       2.299   3.938  22.606  0.00  0.00    +0.000 F 
ENDBRANCH   5  14
BRANCH   1  18
ATOM     18  C   UNL     1       3.693   3.500  16.727  0.00  0.00    +0.000 C 
BRANCH  18  23
ATOM     19  C   UNL     1       6.743   4.623  14.741  0.00  0.00    +0.000 A 
ATOM     20  C   UNL     1       7.602   5.059  15.757  0.00  0.00    +0.000 A 
ATOM     21  C   UNL     1       7.206   4.967  17.091  0.00  0.00    +0.000 A 
ATOM     22  C   UNL     1       5.950   4.446  17.414  0.00  0.00    +0.000 A 
ATOM     23  C   UNL     1       5.081   4.004  16.406  0.00  0.00    +0.000 A 
ATOM     24  C   UNL     1       5.494   4.084  15.069  0.00  0.00    +0.000 A 
BRANCH  19  26
ATOM     25  N   UNL     1       6.630   3.862  12.433  0.00  0.00    +0.000 N 
ATOM     26  C   UNL     1       7.183   4.740  13.326  0.00  0.00    +0.000 C 
ATOM     27  O   UNL     1       7.970   5.599  12.963  0.00  0.00    +0.000 OA
ATOM     28  H   UNL     1       6.853   4.013  11.458  0.00  0.00    +0.000 HD
ATOM     29  H   UNL     1       5.804   3.321  12.648  0.00  0.00    +0.000 HD
ENDBRANCH  19  26
ENDBRANCH  18  23
ENDBRANCH   1  18
TORSDOF 5
ENDMDL
MODEL 9
REMARK VINA RESULT:      -8.7      3.210      7.445
REMARK  Name = 
REMARK  5 active torsions:
REMARK  status: ('A' for Active; 'I' for Inactive)
REMARK    1  A    between atoms: C_2  and  C_4
REMARK    2  A    between atoms: C_8  and  C_9
REMARK    3  A    between atoms: C_9  and  N_10
REMARK    4  A    between atoms: C_12  and  C_13
REMARK    5  A    between atoms: C_20  and  C_21
REMARK                            x       y       z     vdW  Elec       q    Type
REMARK                         _______ _______ _______ _____ _____    ______ ____
ROOT
ATOM      1  N   UNL     1       4.407   5.111  17.696  0.00  0.00    +0.000 N 
ATOM      2  N   UNL     1       4.640   4.866  16.348  0.00  0.00    +0.000 NA
ATOM      3  C   UNL     1       5.874   4.845  15.947  0.00  0.00    +0.000 A 
ATOM      4  C   UNL     1       7.021   5.096  16.842  0.00  0.00    +0.000 A 
ATOM      5  C   UNL     1       6.788   5.320  18.140  0.00  0.00    +0.000 A 
ATOM      6  C   UNL     1       5.406   5.310  18.646  0.00  0.00    +0.000 A 
ATOM      7  O   UNL     1       5.172   5.493  19.835  0.00  0.00    +0.000 OA
ENDROOT
BRANCH   3   8
ATOM      8  C   UNL     1       6.213   4.620  14.505  0.00  0.00    +0.000 A 
ATOM      9  C   UNL     1       7.337   5.253  13.959  0.00  0.00    +0.000 A 
ATOM     10  C   UNL     1       7.749   4.946  12.657  0.00  0.00    +0.000 A 
ATOM     11  C   UNL     1       7.040   4.018  11.892  0.00  0.00    +0.000 A 
ATOM     12  C   UNL     1       5.898   3.418  12.413  0.00  0.00    +0.000 A 
ATOM     13  C   UNL     1       5.477   3.729  13.708  0.00  0.00    +0.000 A 
ENDBRANCH   3   8
BRANCH   5  14
ATOM     14  C   UNL     1       7.888   5.616  19.084  0.00  0.00    +0.000 C 
ATOM     15  F   UNL     1       7.588   5.631  20.402  0.00  0.00    +0.000 F 
ATOM     16  F   UNL     1       8.901   4.718  18.931  0.00  0.00    +0.000 F 
ATOM     17  F   UNL     1       8.435   6.833  18.804  0.00  0.00    +0.000 F 
ENDBRANCH   5  14
BRANCH   1  18
ATOM     18  C   UNL     1       3.014   5.119  18.145  0.00  0.00    +0.000 C 
BRANCH  18  23
ATOM     19  C   UNL     1       1.557   8.105  20.008  0.00  0.00    +0.000 A 
ATOM     20  C   UNL     1       1.714   9.132  19.070  0.00  0.00    +0.000 A 
ATOM     21  C   UNL     1       2.268   8.856  17.821  0.00  0.00    +0.000 A 
ATOM     22  C   UNL     1       2.675   7.557  17.507  0.00  0.00    +0.000 A 
ATOM     23  C   UNL     1       2.522   6.518  18.437  0.00  0.00    +0.000 A 
ATOM     24  C   UNL     1       1.947   6.801  19.683  0.00  0.00    +0.000 A 
BRANCH  19  26
ATOM     25  N   UNL     1       1.829   8.906  22.289  0.00  0.00    +0.000 N 
ATOM     26  C   UNL     1       0.972   8.425  21.336  0.00  0.00    +0.000 C 
ATOM     27  O   UNL     1      -0.222   8.303  21.563  0.00  0.00    +0.000 OA
ATOM     28  H   UNL     1       1.409   9.219  23.154  0.00  0.00    +0.000 HD
ATOM     29  H   UNL     1       2.750   9.253  22.061  0.00  0.00    +0.000 HD
ENDBRANCH  19  26
ENDBRANCH  18  23
ENDBRANCH   1  18
TORSDOF 5
ENDMDL
