MODEL 1
REMARK VINA RESULT:      -8.0      0.000      0.000
REMARK  Name = 
REMARK  4 active torsions:
REMARK  status: ('A' for Active; 'I' for Inactive)
REMARK    1  A    between atoms: C_1  and  C_2
REMARK    2  A    between atoms: C_2  and  C_4
REMARK    3  A    between atoms: C_8  and  N_9
REMARK    4  A    between atoms: C_16  and  C_17
REMARK                            x       y       z     vdW  Elec       q    Type
REMARK                         _______ _______ _______ _____ _____    ______ ____
ROOT
ATOM      1  N   UNL     1       4.028   4.650  19.196  0.00  0.00    +0.000 N 
ATOM      2  C   UNL     1       5.396   5.215  19.304  0.00  0.00    +0.000 C 
ATOM      3  C   UNL     1       5.924   5.028  17.915  0.00  0.00    +0.000 A 
ATOM      4  C   UNL     1       5.263   3.926  17.365  0.00  0.00    +0.000 A 
ATOM      5  C   UNL     1       5.391   3.554  16.039  0.00  0.00    +0.000 A 
ATOM      6  C   UNL     1       6.216   4.337  15.234  0.00  0.00    +0.000 A 
ATOM      7  C   UNL     1       6.870   5.465  15.766  0.00  0.00    +0.000 A 
ATOM      8  C   UNL     1       6.734   5.836  17.122  0.00  0.00    +0.000 A 
ATOM      9  C   UNL     1       4.129   3.585  18.264  0.00  0.00    +0.000 C 
ATOM     10  O   UNL     1       3.356   2.670  18.056  0.00  0.00    +0.000 OA
ENDROOT
BRANCH   1  15
ATOM     11  C   UNL     1       2.011   7.654  19.797  0.00  0.00    +0.000 A 
ATOM     12  C   UNL     1       2.389   8.392  18.667  0.00  0.00    +0.000 A 
ATOM     13  C   UNL     1       2.953   7.753  17.569  0.00  0.00    +0.000 A 
ATOM     14  C   UNL     1       3.238   6.393  17.629  0.00  0.00    +0.000 A 
ATOM     15  C   UNL     1       3.086   5.703  18.843  0.00  0.00    +0.000 A 
ATOM     16  C   UNL     1       2.346   6.296  19.871  0.00  0.00    +0.000 A 
BRANCH  11  18
ATOM     17  C   UNL     1       0.745   9.677  20.463  0.00  0.00    +0.000 C 
ATOM     18  C   UNL     1       1.267   8.325  20.924  0.00  0.00    +0.000 C 
ATOM     19  F   UNL     1       0.202   7.592  21.366  0.00  0.00    +0.000 F 
ENDBRANCH  11  18
ENDBRANCH   1  15
BRANCH   8  20
ATOM     20  C   UNL     1       7.359   7.122  17.600  0.00  0.00    +0.000 C 
ATOM     21  F   UNL     1       8.102   6.997  18.733  0.00  0.00    +0.000 F 
ATOM     22  F   UNL     1       8.193   7.665  16.672  0.00  0.00    +0.000 F 
ATOM     23  F   UNL     1       6.429   8.079  17.871  0.00  0.00    +0.000 F 
ENDBRANCH   8  20
TORSDOF 3
ENDMDL
MODEL 2
REMARK VINA RESULT:      -7.9      2.109      3.004
REMARK  Name = 
REMARK  4 active torsions:
REMARK  status: ('A' for Active; 'I' for Inactive)
REMARK    1  A    between atoms: C_1  and  C_2
REMARK    2  A    between atoms: C_2  and  C_4
REMARK    3  A    between atoms: C_8  and  N_9
REMARK    4  A    between atoms: C_16  and  C_17
REMARK                            x       y       z     vdW  Elec       q    Type
REMARK                         _______ _______ _______ _____ _____    ______ ____
ROOT
ATOM      1  N   UNL     1       3.270   5.835  20.206  0.00  0.00    +0.000 N 
ATOM      2  C   UNL     1       4.433   5.532  19.335  0.00  0.00    +0.000 C 
ATOM      3  C   UNL     1       3.963   4.316  18.596  0.00  0.00    +0.000 A 
ATOM      4  C   UNL     1       3.044   3.660  19.419  0.00  0.00    +0.000 A 
ATOM      5  C   UNL     1       2.294   2.577  18.999  0.00  0.00    +0.000 A 
ATOM      6  C   UNL     1       2.474   2.148  17.686  0.00  0.00    +0.000 A 
ATOM      7  C   UNL     1       3.378   2.814  16.835  0.00  0.00    +0.000 A 
ATOM      8  C   UNL     1       4.141   3.917  17.274  0.00  0.00    +0.000 A 
ATOM      9  C   UNL     1       2.707   4.576  20.541  0.00  0.00    +0.000 C 
ATOM     10  O   UNL     1       1.925   4.296  21.429  0.00  0.00    +0.000 OA
ENDROOT
BRANCH   1  15
ATOM     11  C   UNL     1       1.227   8.865  19.890  0.00  0.00    +0.000 A 
ATOM     12  C   UNL     1       1.717   9.322  18.659  0.00  0.00    +0.000 A 
ATOM     13  C   UNL     1       2.378   8.452  17.800  0.00  0.00    +0.000 A 
ATOM     14  C   UNL     1       2.645   7.149  18.206  0.00  0.00    +0.000 A 
ATOM     15  C   UNL     1       2.373   6.761  19.528  0.00  0.00    +0.000 A 
ATOM     16  C   UNL     1       1.544   7.568  20.313  0.00  0.00    +0.000 A 
BRANCH  11  18
ATOM     17  C   UNL     1      -0.551  10.590  19.877  0.00  0.00    +0.000 C 
ATOM     18  C   UNL     1       0.385   9.772  20.752  0.00  0.00    +0.000 C 
ATOM     19  F   UNL     1      -0.375   9.086  21.656  0.00  0.00    +0.000 F 
ENDBRANCH  11  18
ENDBRANCH   1  15
BRANCH   8  20
ATOM     20  C   UNL     1       4.996   4.663  16.282  0.00  0.00    +0.000 C 
ATOM     21  F   UNL     1       4.625   5.956  16.082  0.00  0.00    +0.000 F 
ATOM     22  F   UNL     1       6.302   4.711  16.663  0.00  0.00    +0.000 F 
ATOM     23  F   UNL     1       4.988   4.080  15.051  0.00  0.00    +0.000 F 
ENDBRANCH   8  20
TORSDOF 3
ENDMDL
MODEL 3
REMARK VINA RESULT:      -7.7      3.555      4.846
REMARK  Name = 
REMARK  4 active torsions:
REMARK  status: ('A' for Active; 'I' for Inactive)
REMARK    1  A    between atoms: C_1  and  C_2
REMARK    2  A    between atoms: C_2  and  C_4
REMARK    3  A    between atoms: C_8  and  N_9
REMARK    4  A    between atoms: C_16  and  C_17
REMARK                            x       y       z     vdW  Elec       q    Type
REMARK                         _______ _______ _______ _____ _____    ______ ____
ROOT
ATOM      1  N   UNL     1       2.687   6.206  17.528  0.00  0.00    +0.000 N 
ATOM      2  C   UNL     1       1.758   5.080  17.799  0.00  0.00    +0.000 C 
ATOM      3  C   UNL     1       2.623   4.142  18.584  0.00  0.00    +0.000 A 
ATOM      4  C   UNL     1       3.944   4.366  18.189  0.00  0.00    +0.000 A 
ATOM      5  C   UNL     1       5.029   3.781  18.816  0.00  0.00    +0.000 A 
ATOM      6  C   UNL     1       4.764   2.941  19.895  0.00  0.00    +0.000 A 
ATOM      7  C   UNL     1       3.440   2.723  20.323  0.00  0.00    +0.000 A 
ATOM      8  C   UNL     1       2.339   3.324  19.674  0.00  0.00    +0.000 A 
ATOM      9  C   UNL     1       3.968   5.615  17.382  0.00  0.00    +0.000 C 
ATOM     10  O   UNL     1       4.980   6.084  16.895  0.00  0.00    +0.000 OA
ENDROOT
BRANCH   1  15
ATOM     11  C   UNL     1       1.383   9.246  19.112  0.00  0.00    +0.000 A 
ATOM     12  C   UNL     1       1.051   8.707  20.362  0.00  0.00    +0.000 A 
ATOM     13  C   UNL     1       1.617   7.509  20.782  0.00  0.00    +0.000 A 
ATOM     14  C   UNL     1       2.436   6.790  19.918  0.00  0.00    +0.000 A 
ATOM     15  C   UNL     1       2.574   7.203  18.584  0.00  0.00    +0.000 A 
ATOM     16  C   UNL     1       2.167   8.494  18.229  0.00  0.00    +0.000 A 
BRANCH  11  18
ATOM     17  C   UNL     1      -0.611  10.559  18.448  0.00  0.00    +0.000 C 
ATOM     18  C   UNL     1       0.884  10.615  18.723  0.00  0.00    +0.000 C 
ATOM     19  F   UNL     1       1.098  11.552  19.693  0.00  0.00    +0.000 F 
ENDBRANCH  11  18
ENDBRANCH   1  15
BRANCH   8  20
ATOM     20  C   UNL     1       0.958   3.152  20.255  0.00  0.00    +0.000 C 
ATOM     21  F   UNL     1       0.927   2.478  21.436  0.00  0.00    +0.000 F 
ATOM     22  F   UNL     1       0.349   4.345  20.496  0.00  0.00    +0.000 F 
ATOM     23  F   UNL     1       0.127   2.470  19.418  0.00  0.00    +0.000 F 
ENDBRANCH   8  20
TORSDOF 3
ENDMDL
MODEL 4
REMARK VINA RESULT:      -7.7      2.361      6.080
REMARK  Name = 
REMARK  4 active torsions:
REMARK  status: ('A' for Active; 'I' for Inactive)
REMARK    1  A    between atoms: C_1  and  C_2
REMARK    2  A    between atoms: C_2  and  C_4
REMARK    3  A    between atoms: C_8  and  N_9
REMARK    4  A    between atoms: C_16  and  C_17
REMARK                            x       y       z     vdW  Elec       q    Type
REMARK                         _______ _______ _______ _____ _____    ______ ____
ROOT
ATOM      1  N   UNL     1       2.585   3.869  17.199  0.00  0.00    +0.000 N 
ATOM      2  C   UNL     1       1.630   4.765  17.897  0.00  0.00    +0.000 C 
ATOM      3  C   UNL     1       1.763   4.319  19.321  0.00  0.00    +0.000 A 
ATOM      4  C   UNL     1       2.149   2.976  19.300  0.00  0.00    +0.000 A 
ATOM      5  C   UNL     1       2.511   2.277  20.438  0.00  0.00    +0.000 A 
ATOM      6  C   UNL     1       2.492   2.972  21.645  0.00  0.00    +0.000 A 
ATOM      7  C   UNL     1       2.129   4.332  21.681  0.00  0.00    +0.000 A 
ATOM      8  C   UNL     1       1.759   5.036  20.514  0.00  0.00    +0.000 A 
ATOM      9  C   UNL     1       2.537   2.639  17.905  0.00  0.00    +0.000 C 
ATOM     10  O   UNL     1       2.927   1.539  17.560  0.00  0.00    +0.000 OA
ENDROOT
BRANCH   1  15
ATOM     11  C   UNL     1       5.743   4.826  15.597  0.00  0.00    +0.000 A 
ATOM     12  C   UNL     1       5.722   6.196  15.892  0.00  0.00    +0.000 A 
ATOM     13  C   UNL     1       4.918   6.681  16.917  0.00  0.00    +0.000 A 
ATOM     14  C   UNL     1       4.055   5.820  17.586  0.00  0.00    +0.000 A 
ATOM     15  C   UNL     1       3.896   4.501  17.131  0.00  0.00    +0.000 A 
ATOM     16  C   UNL     1       4.835   3.974  16.239  0.00  0.00    +0.000 A 
BRANCH  11  18
ATOM     17  C   UNL     1       5.974   3.780  13.363  0.00  0.00    +0.000 C 
ATOM     18  C   UNL     1       6.723   4.285  14.587  0.00  0.00    +0.000 C 
ATOM     19  F   UNL     1       7.625   5.222  14.171  0.00  0.00    +0.000 F 
ENDBRANCH  11  18
ENDBRANCH   1  15
BRANCH   8  20
ATOM     20  C   UNL     1       1.503   6.519  20.599  0.00  0.00    +0.000 C 
ATOM     21  F   UNL     1       0.198   6.854  20.787  0.00  0.00    +0.000 F 
ATOM     22  F   UNL     1       2.183   7.101  21.625  0.00  0.00    +0.000 F 
ATOM     23  F   UNL     1       1.895   7.177  19.471  0.00  0.00    +0.000 F 
ENDBRANCH   8  20
TORSDOF 3
ENDMDL
MODEL 5
REMARK VINA RESULT:      -7.6      3.186      4.892
REMARK  Name = 
REMARK  4 active torsions:
REMARK  status: ('A' for Active; 'I' for Inactive)
REMARK    1  A    between atoms: C_1  and  C_2
REMARK    2  A    between atoms: C_2  and  C_4
REMARK    3  A    between atoms: C_8  and  N_9
REMARK    4  A    between atoms: C_16  and  C_17
REMARK                            x       y       z     vdW  Elec       q    Type
REMARK                         _______ _______ _______ _____ _____    ______ ____
ROOT
ATOM      1  N   UNL     1       2.712   6.183  17.523  0.00  0.00    +0.000 N 
ATOM      2  C   UNL     1       1.780   5.061  17.800  0.00  0.00    +0.000 C 
ATOM      3  C   UNL     1       2.646   4.119  18.580  0.00  0.00    +0.000 A 
ATOM      4  C   UNL     1       3.965   4.337  18.175  0.00  0.00    +0.000 A 
ATOM      5  C   UNL     1       5.052   3.746  18.794  0.00  0.00    +0.000 A 
ATOM      6  C   UNL     1       4.791   2.908  19.875  0.00  0.00    +0.000 A 
ATOM      7  C   UNL     1       3.468   2.697  20.313  0.00  0.00    +0.000 A 
ATOM      8  C   UNL     1       2.366   3.303  19.672  0.00  0.00    +0.000 A 
ATOM      9  C   UNL     1       3.990   5.585  17.367  0.00  0.00    +0.000 C 
ATOM     10  O   UNL     1       5.000   6.048  16.872  0.00  0.00    +0.000 OA
ENDROOT
BRANCH   1  15
ATOM     11  C   UNL     1       1.574   9.320  19.043  0.00  0.00    +0.000 A 
ATOM     12  C   UNL     1       1.104   8.807  20.260  0.00  0.00    +0.000 A 
ATOM     13  C   UNL     1       1.529   7.560  20.706  0.00  0.00    +0.000 A 
ATOM     14  C   UNL     1       2.341   6.775  19.895  0.00  0.00    +0.000 A 
ATOM     15  C   UNL     1       2.612   7.181  18.579  0.00  0.00    +0.000 A 
ATOM     16  C   UNL     1       2.349   8.504  18.211  0.00  0.00    +0.000 A 
BRANCH  11  18
ATOM     17  C   UNL     1       0.862  11.547  19.864  0.00  0.00    +0.000 C 
ATOM     18  C   UNL     1       1.228  10.730  18.635  0.00  0.00    +0.000 C 
ATOM     19  F   UNL     1       2.258  11.364  17.999  0.00  0.00    +0.000 F 
ENDBRANCH  11  18
ENDBRANCH   1  15
BRANCH   8  20
ATOM     20  C   UNL     1       0.989   3.138  20.263  0.00  0.00    +0.000 C 
ATOM     21  F   UNL     1       0.110   2.476  19.462  0.00  0.00    +0.000 F 
ATOM     22  F   UNL     1       1.012   2.445  21.434  0.00  0.00    +0.000 F 
ATOM     23  F   UNL     1       0.401   4.334  20.548  0.00  0.00    +0.000 F 
ENDBRANCH   8  20
TORSDOF 3
ENDMDL
MODEL 6
REMARK VINA RESULT:      -7.6      1.565      2.444
REMARK  Name = 
REMARK  4 active torsions:
REMARK  status: ('A' for Active; 'I' for Inactive)
REMARK    1  A    between atoms: C_1  and  C_2
REMARK    2  A    between atoms: C_2  and  C_4
REMARK    3  A    between atoms: C_8  and  N_9
REMARK    4  A    between atoms: C_16  and  C_17
REMARK                            x       y       z     vdW  Elec       q    Type
REMARK                         _______ _______ _______ _____ _____    ______ ____
ROOT
ATOM      1  N   UNL     1       4.065   3.179  18.642  0.00  0.00    +0.000 N 
ATOM      2  C   UNL     1       5.538   3.344  18.710  0.00  0.00    +0.000 C 
ATOM      3  C   UNL     1       5.769   4.497  17.782  0.00  0.00    +0.000 A 
ATOM      4  C   UNL     1       4.737   4.483  16.840  0.00  0.00    +0.000 A 
ATOM      5  C   UNL     1       4.545   5.494  15.915  0.00  0.00    +0.000 A 
ATOM      6  C   UNL     1       5.430   6.569  15.955  0.00  0.00    +0.000 A 
ATOM      7  C   UNL     1       6.460   6.611  16.914  0.00  0.00    +0.000 A 
ATOM      8  C   UNL     1       6.649   5.572  17.852  0.00  0.00    +0.000 A 
ATOM      9  C   UNL     1       3.705   3.523  17.314  0.00  0.00    +0.000 C 
ATOM     10  O   UNL     1       2.674   3.289  16.712  0.00  0.00    +0.000 OA
ENDROOT
BRANCH   1  15
ATOM     11  C   UNL     1       2.299   6.088  20.011  0.00  0.00    +0.000 A 
ATOM     12  C   UNL     1       1.268   5.414  20.680  0.00  0.00    +0.000 A 
ATOM     13  C   UNL     1       1.403   4.067  21.000  0.00  0.00    +0.000 A 
ATOM     14  C   UNL     1       2.519   3.360  20.564  0.00  0.00    +0.000 A 
ATOM     15  C   UNL     1       3.431   3.970  19.688  0.00  0.00    +0.000 A 
ATOM     16  C   UNL     1       3.395   5.360  19.532  0.00  0.00    +0.000 A 
BRANCH  11  18
ATOM     17  C   UNL     1       2.339   7.894  18.315  0.00  0.00    +0.000 C 
ATOM     18  C   UNL     1       2.212   7.578  19.797  0.00  0.00    +0.000 C 
ATOM     19  F   UNL     1       1.035   8.109  20.241  0.00  0.00    +0.000 F 
ENDBRANCH  11  18
ENDBRANCH   1  15
BRANCH   8  20
ATOM     20  C   UNL     1       7.689   5.734  18.931  0.00  0.00    +0.000 C 
ATOM     21  F   UNL     1       7.193   5.713  20.197  0.00  0.00    +0.000 F 
ATOM     22  F   UNL     1       8.630   4.752  18.890  0.00  0.00    +0.000 F 
ATOM     23  F   UNL     1       8.371   6.909  18.820  0.00  0.00    +0.000 F 
ENDBRANCH   8  20
TORSDOF 3
ENDMDL
MODEL 7
REMARK VINA RESULT:      -7.5      2.037      5.895
REMARK  Name = 
REMARK  4 active torsions:
REMARK  status: ('A' for Active; 'I' for Inactive)
REMARK    1  A    between atoms: C_1  and  C_2
REMARK    2  A    between atoms: C_2  and  C_4
REMARK    3  A    between atoms: C_8  and  N_9
REMARK    4  A    between atoms: C_16  and  C_17
REMARK                            x       y       z     vdW  Elec       q    Type
REMARK                         _______ _______ _______ _____ _____    ______ ____
ROOT
ATOM      1  N   UNL     1       3.254   3.180  17.202  0.00  0.00    +0.000 N 
ATOM      2  C   UNL     1       2.459   4.431  17.146  0.00  0.00    +0.000 C 
ATOM      3  C   UNL     1       2.232   4.724  18.598  0.00  0.00    +0.000 A 
ATOM      4  C   UNL     1       2.257   3.503  19.276  0.00  0.00    +0.000 A 
ATOM      5  C   UNL     1       2.231   3.405  20.656  0.00  0.00    +0.000 A 
ATOM      6  C   UNL     1       2.189   4.595  21.378  0.00  0.00    +0.000 A 
ATOM      7  C   UNL     1       2.188   5.836  20.711  0.00  0.00    +0.000 A 
ATOM      8  C   UNL     1       2.213   5.925  19.302  0.00  0.00    +0.000 A 
ATOM      9  C   UNL     1       2.774   2.474  18.335  0.00  0.00    +0.000 C 
ATOM     10  O   UNL     1       2.920   1.303  18.630  0.00  0.00    +0.000 OA
ENDROOT
BRANCH   1  15
ATOM     11  C   UNL     1       6.416   4.381  15.781  0.00  0.00    +0.000 A 
ATOM     12  C   UNL     1       6.781   5.270  16.801  0.00  0.00    +0.000 A 
ATOM     13  C   UNL     1       6.217   5.156  18.067  0.00  0.00    +0.000 A 
ATOM     14  C   UNL     1       5.213   4.222  18.296  0.00  0.00    +0.000 A 
ATOM     15  C   UNL     1       4.676   3.499  17.218  0.00  0.00    +0.000 A 
ATOM     16  C   UNL     1       5.369   3.477  16.004  0.00  0.00    +0.000 A 
BRANCH  11  18
ATOM     17  C   UNL     1       6.229   3.865  13.365  0.00  0.00    +0.000 C 
ATOM     18  C   UNL     1       7.135   4.414  14.456  0.00  0.00    +0.000 C 
ATOM     19  F   UNL     1       7.515   5.674  14.093  0.00  0.00    +0.000 F 
ENDBRANCH  11  18
ENDBRANCH   1  15
BRANCH   8  20
ATOM     20  C   UNL     1       2.336   7.279  18.651  0.00  0.00    +0.000 C 
ATOM     21  F   UNL     1       1.442   7.505  17.651  0.00  0.00    +0.000 F 
ATOM     22  F   UNL     1       2.157   8.295  19.540  0.00  0.00    +0.000 F 
ATOM     23  F   UNL     1       3.566   7.478  18.100  0.00  0.00    +0.000 F 
ENDBRANCH   8  20
TORSDOF 3
ENDMDL
MODEL 8
REMARK VINA RESULT:      -7.5      0.621      1.017
REMARK  Name = 
REMARK  4 active torsions:
REMARK  status: ('A' for Active; 'I' for Inactive)
REMARK    1  A    between atoms: C_1  and  C_2
REMARK    2  A    between atoms: C_2  and  C_4
REMARK    3  A    between atoms: C_8  and  N_9
REMARK    4  A    between atoms: C_16  and  C_17
REMARK                            x       y       z     vdW  Elec       q    Type
REMARK                         _______ _______ _______ _____ _____    ______ ____
ROOT
ATOM      1  N   UNL     1       3.581   4.908  19.407  0.00  0.00    +0.000 N 
ATOM      2  C   UNL     1       4.996   5.353  19.432  0.00  0.00    +0.000 C 
ATOM      3  C   UNL     1       5.450   5.037  18.039  0.00  0.00    +0.000 A 
ATOM      4  C   UNL     1       4.673   3.968  17.583  0.00  0.00    +0.000 A 
ATOM      5  C   UNL     1       4.715   3.507  16.280  0.00  0.00    +0.000 A 
ATOM      6  C   UNL     1       5.572   4.164  15.399  0.00  0.00    +0.000 A 
ATOM      7  C   UNL     1       6.343   5.258  15.836  0.00  0.00    +0.000 A 
ATOM      8  C   UNL     1       6.295   5.720  17.170  0.00  0.00    +0.000 A 
ATOM      9  C   UNL     1       3.551   3.784  18.541  0.00  0.00    +0.000 C 
ATOM     10  O   UNL     1       2.692   2.932  18.418  0.00  0.00    +0.000 OA
ENDROOT
BRANCH   1  15
ATOM     11  C   UNL     1       1.869   8.117  19.883  0.00  0.00    +0.000 A 
ATOM     12  C   UNL     1       2.259   8.743  18.692  0.00  0.00    +0.000 A 
ATOM     13  C   UNL     1       2.713   7.987  17.617  0.00  0.00    +0.000 A 
ATOM     14  C   UNL     1       2.878   6.613  17.758  0.00  0.00    +0.000 A 
ATOM     15  C   UNL     1       2.721   6.019  19.021  0.00  0.00    +0.000 A 
ATOM     16  C   UNL     1       2.084   6.742  20.035  0.00  0.00    +0.000 A 
BRANCH  11  18
ATOM     17  C   UNL     1      -0.170   9.332  20.594  0.00  0.00    +0.000 C 
ATOM     18  C   UNL     1       1.240   8.924  20.991  0.00  0.00    +0.000 C 
ATOM     19  F   UNL     1       1.164   8.238  22.169  0.00  0.00    +0.000 F 
ENDBRANCH  11  18
ENDBRANCH   1  15
BRANCH   8  20
ATOM     20  C   UNL     1       7.049   6.970  17.544  0.00  0.00    +0.000 C 
ATOM     21  F   UNL     1       6.267   8.074  17.690  0.00  0.00    +0.000 F 
ATOM     22  F   UNL     1       7.717   6.835  18.722  0.00  0.00    +0.000 F 
ATOM     23  F   UNL     1       7.990   7.304  16.617  0.00  0.00    +0.000 F 
ENDBRANCH   8  20
TORSDOF 3
ENDMDL
MODEL 9
REMARK VINA RESULT:      -7.4      2.002      5.735
REMARK  Name = 
REMARK  4 active torsions:
REMARK  status: ('A' for Active; 'I' for Inactive)
REMARK    1  A    between atoms: C_1  and  C_2
REMARK    2  A    between atoms: C_2  and  C_4
REMARK    3  A    between atoms: C_8  and  N_9
REMARK    4  A    between atoms: C_16  and  C_17
REMARK                            x       y       z     vdW  Elec       q    Type
REMARK                         _______ _______ _______ _____ _____    ______ ____
ROOT
ATOM      1  N   UNL     1       2.861   3.234  17.585  0.00  0.00    +0.000 N 
ATOM      2  C   UNL     1       2.250   4.532  17.203  0.00  0.00    +0.000 C 
ATOM      3  C   UNL     1       1.997   5.165  18.537  0.00  0.00    +0.000 A 
ATOM      4  C   UNL     1       1.820   4.130  19.460  0.00  0.00    +0.000 A 
ATOM      5  C   UNL     1       1.715   4.344  20.822  0.00  0.00    +0.000 A 
ATOM      6  C   UNL     1       1.803   5.660  21.269  0.00  0.00    +0.000 A 
ATOM      7  C   UNL     1       2.006   6.713  20.355  0.00  0.00    +0.000 A 
ATOM      8  C   UNL     1       2.110   6.484  18.966  0.00  0.00    +0.000 A 
ATOM      9  C   UNL     1       2.234   2.862  18.802  0.00  0.00    +0.000 C 
ATOM     10  O   UNL     1       2.203   1.777  19.350  0.00  0.00    +0.000 OA
ENDROOT
BRANCH   1  15
ATOM     11  C   UNL     1       6.165   4.243  16.350  0.00  0.00    +0.000 A 
ATOM     12  C   UNL     1       6.623   4.912  17.494  0.00  0.00    +0.000 A 
ATOM     13  C   UNL     1       6.032   4.673  18.730  0.00  0.00    +0.000 A 
ATOM     14  C   UNL     1       4.918   3.845  18.816  0.00  0.00    +0.000 A 
ATOM     15  C   UNL     1       4.311   3.370  17.643  0.00  0.00    +0.000 A 
ATOM     16  C   UNL     1       5.013   3.451  16.436  0.00  0.00    +0.000 A 
BRANCH  11  18
ATOM     17  C   UNL     1       5.989   3.997  13.891  0.00  0.00    +0.000 C 
ATOM     18  C   UNL     1       6.900   4.392  15.042  0.00  0.00    +0.000 C 
ATOM     19  F   UNL     1       7.329   5.670  14.820  0.00  0.00    +0.000 F 
ENDBRANCH  11  18
ENDBRANCH   1  15
BRANCH   8  20
ATOM     20  C   UNL     1       2.451   7.635  18.054  0.00  0.00    +0.000 C 
ATOM     21  F   UNL     1       3.565   7.440  17.298  0.00  0.00    +0.000 F 
ATOM     22  F   UNL     1       1.451   7.905  17.171  0.00  0.00    +0.000 F 
ATOM     23  F   UNL     1       2.666   8.792  18.740  0.00  0.00    +0.000 F 
ENDBRANCH   8  20
TORSDOF 3
ENDMDL
