MODEL 1
REMARK VINA RESULT:      -7.5      0.000      0.000
REMARK  Name = 
REMARK  6 active torsions:
REMARK  status: ('A' for Active; 'I' for Inactive)
REMARK    1  A    between atoms: C_1  and  O_2
REMARK    2  A    between atoms: O_2  and  C_3
REMARK    3  A    between atoms: N_16  and  C_17
REMARK    4  A    between atoms: C_17  and  C_18
REMARK    5  A    between atoms: N_20  and  C_21
REMARK    6  A    between atoms: C_23  and  C_24
REMARK                            x       y       z     vdW  Elec       q    Type
REMARK                         _______ _______ _______ _____ _____    ______ ____
ROOT
ATOM      1  C   UNL     1      -0.747  13.416  22.785  0.00  0.00    +0.000 A 
ATOM      2  C   UNL     1      -0.302  14.307  21.809  0.00  0.00    +0.000 A 
ATOM      3  C   UNL     1       0.096  13.837  20.560  0.00  0.00    +0.000 A 
ATOM      4  C   UNL     1       0.082  12.464  20.287  0.00  0.00    +0.000 A 
ATOM      5  C   UNL     1      -0.331  11.534  21.282  0.00  0.00    +0.000 A 
ATOM      6  C   UNL     1      -0.757  12.038  22.522  0.00  0.00    +0.000 A 
ATOM      7  C   UNL     1      -0.178  10.057  20.944  0.00  0.00    +0.000 C 
ATOM      8  C   UNL     1      -0.153   8.796  21.775  0.00  0.00    +0.000 C 
ATOM      9  C   UNL     1       1.113   9.553  21.641  0.00  0.00    +0.000 C 
ATOM     10  C   UNL     1      -0.462   9.826  19.470  0.00  0.00    +0.000 C 
ATOM     11  N   UNL     1       0.565  10.543  18.756  0.00  0.00    +0.000 N 
ATOM     12  C   UNL     1       1.677   9.969  18.164  0.00  0.00    +0.000 C 
ATOM     13  O   UNL     1       2.531  10.620  17.584  0.00  0.00    +0.000 OA
ATOM     14  N   UNL     1       1.752   8.603  18.267  0.00  0.00    +0.000 N 
ATOM     15  C   UNL     1       0.506  11.996  18.896  0.00  0.00    +0.000 C 
ATOM     16  H   UNL     1       1.297   8.190  19.060  0.00  0.00    +0.000 HD
ENDROOT
BRANCH   1  18
ATOM     17  C   UNL     1      -1.727  15.074  24.165  0.00  0.00    +0.000 C 
ATOM     18  O   UNL     1      -1.140  13.781  24.047  0.00  0.00    +0.000 OA
ENDBRANCH   1  18
BRANCH  14  19
ATOM     19  C   UNL     1       2.930   7.901  17.808  0.00  0.00    +0.000 C 
BRANCH  19  20
ATOM     20  C   UNL     1       3.028   6.644  18.588  0.00  0.00    +0.000 A 
ATOM     21  C   UNL     1       2.262   6.307  19.687  0.00  0.00    +0.000 A 
ATOM     22  N   UNL     1       2.695   5.091  20.106  0.00  0.00    +0.000 N 
ATOM     23  C   UNL     1       2.209   4.345  21.243  0.00  0.00    +0.000 C 
ATOM     24  N   UNL     1       3.688   4.589  19.360  0.00  0.00    +0.000 NA
ATOM     25  C   UNL     1       3.917   5.530  18.416  0.00  0.00    +0.000 A 
BRANCH  25  26
ATOM     26  C   UNL     1       5.003   5.356  17.384  0.00  0.00    +0.000 C 
ATOM     27  F   UNL     1       5.630   6.528  17.087  0.00  0.00    +0.000 F 
ATOM     28  F   UNL     1       5.983   4.510  17.807  0.00  0.00    +0.000 F 
ATOM     29  F   UNL     1       4.532   4.865  16.207  0.00  0.00    +0.000 F 
ENDBRANCH  25  26
ENDBRANCH  19  20
ENDBRANCH  14  19
TORSDOF 4
ENDMDL
MODEL 2
REMARK VINA RESULT:      -7.2      5.379      8.562
REMARK  Name = 
REMARK  6 active torsions:
REMARK  status: ('A' for Active; 'I' for Inactive)
REMARK    1  A    between atoms: C_1  and  O_2
REMARK    2  A    between atoms: O_2  and  C_3
REMARK    3  A    between atoms: N_16  and  C_17
REMARK    4  A    between atoms: C_17  and  C_18
REMARK    5  A    between atoms: N_20  and  C_21
REMARK    6  A    between atoms: C_23  and  C_24
REMARK                            x       y       z     vdW  Elec       q    Type
REMARK                         _______ _______ _______ _____ _____    ______ ____
ROOT
ATOM      1  C   UNL     1       2.418   6.734  19.522  0.00  0.00    +0.000 A 
ATOM      2  C   UNL     1       2.585   7.216  18.223  0.00  0.00    +0.000 A 
ATOM      3  C   UNL     1       2.188   8.511  17.900  0.00  0.00    +0.000 A 
ATOM      4  C   UNL     1       1.590   9.327  18.868  0.00  0.00    +0.000 A 
ATOM      5  C   UNL     1       1.375   8.842  20.188  0.00  0.00    +0.000 A 
ATOM      6  C   UNL     1       1.813   7.544  20.495  0.00  0.00    +0.000 A 
ATOM      7  C   UNL     1       0.591   9.747  21.130  0.00  0.00    +0.000 C 
ATOM      8  C   UNL     1      -0.141   9.512  22.431  0.00  0.00    +0.000 C 
ATOM      9  C   UNL     1      -0.868   9.218  21.174  0.00  0.00    +0.000 C 
ATOM     10  C   UNL     1       0.932  11.202  20.861  0.00  0.00    +0.000 C 
ATOM     11  N   UNL     1       0.474  11.471  19.521  0.00  0.00    +0.000 N 
ATOM     12  C   UNL     1      -0.685  12.155  19.193  0.00  0.00    +0.000 C 
ATOM     13  O   UNL     1      -1.041  12.343  18.041  0.00  0.00    +0.000 OA
ATOM     14  N   UNL     1      -1.408  12.620  20.262  0.00  0.00    +0.000 N 
ATOM     15  C   UNL     1       1.191  10.749  18.474  0.00  0.00    +0.000 C 
ATOM     16  H   UNL     1      -1.316  12.109  21.120  0.00  0.00    +0.000 HD
ENDROOT
BRANCH   1  18
ATOM     17  C   UNL     1       1.818   4.817  20.778  0.00  0.00    +0.000 C 
ATOM     18  O   UNL     1       2.759   5.471  19.930  0.00  0.00    +0.000 OA
ENDBRANCH   1  18
BRANCH  14  19
ATOM     19  C   UNL     1      -2.703  13.231  20.055  0.00  0.00    +0.000 C 
BRANCH  19  20
ATOM     20  C   UNL     1      -3.527  12.938  21.251  0.00  0.00    +0.000 A 
ATOM     21  C   UNL     1      -3.094  12.964  22.563  0.00  0.00    +0.000 A 
ATOM     22  N   UNL     1      -4.156  12.610  23.331  0.00  0.00    +0.000 N 
ATOM     23  C   UNL     1      -4.176  12.471  24.768  0.00  0.00    +0.000 C 
ATOM     24  N   UNL     1      -5.267  12.358  22.626  0.00  0.00    +0.000 NA
ATOM     25  C   UNL     1      -4.906  12.549  21.337  0.00  0.00    +0.000 A 
BRANCH  25  26
ATOM     26  C   UNL     1      -5.883  12.329  20.209  0.00  0.00    +0.000 C 
ATOM     27  F   UNL     1      -7.095  11.890  20.649  0.00  0.00    +0.000 F 
ATOM     28  F   UNL     1      -6.134  13.474  19.516  0.00  0.00    +0.000 F 
ATOM     29  F   UNL     1      -5.446  11.407  19.312  0.00  0.00    +0.000 F 
ENDBRANCH  25  26
ENDBRANCH  19  20
ENDBRANCH  14  19
TORSDOF 4
ENDMDL
MODEL 3
REMARK VINA RESULT:      -7.2      5.278      8.979
REMARK  Name = 
REMARK  6 active torsions:
REMARK  status: ('A' for Active; 'I' for Inactive)
REMARK    1  A    between atoms: C_1  and  O_2
REMARK    2  A    between atoms: O_2  and  C_3
REMARK    3  A    between atoms: N_16  and  C_17
REMARK    4  A    between atoms: C_17  and  C_18
REMARK    5  A    between atoms: N_20  and  C_21
REMARK    6  A    between atoms: C_23  and  C_24
REMARK                            x       y       z     vdW  Elec       q    Type
REMARK                         _______ _______ _______ _____ _____    ______ ____
ROOT
ATOM      1  C   UNL     1       2.531   6.647  19.516  0.00  0.00    +0.000 A 
ATOM      2  C   UNL     1       2.482   7.115  18.203  0.00  0.00    +0.000 A 
ATOM      3  C   UNL     1       1.943   8.368  17.925  0.00  0.00    +0.000 A 
ATOM      4  C   UNL     1       1.416   9.152  18.958  0.00  0.00    +0.000 A 
ATOM      5  C   UNL     1       1.419   8.678  20.299  0.00  0.00    +0.000 A 
ATOM      6  C   UNL     1       1.998   7.425  20.556  0.00  0.00    +0.000 A 
ATOM      7  C   UNL     1       0.697   9.536  21.331  0.00  0.00    +0.000 C 
ATOM      8  C   UNL     1       0.168   9.269  22.720  0.00  0.00    +0.000 C 
ATOM      9  C   UNL     1      -0.695   8.895  21.576  0.00  0.00    +0.000 C 
ATOM     10  C   UNL     1       0.881  11.008  21.006  0.00  0.00    +0.000 C 
ATOM     11  N   UNL     1       0.227  11.214  19.737  0.00  0.00    +0.000 N 
ATOM     12  C   UNL     1      -1.017  11.798  19.563  0.00  0.00    +0.000 C 
ATOM     13  O   UNL     1      -1.538  11.935  18.469  0.00  0.00    +0.000 OA
ATOM     14  N   UNL     1      -1.625  12.225  20.716  0.00  0.00    +0.000 N 
ATOM     15  C   UNL     1       0.854  10.531  18.609  0.00  0.00    +0.000 C 
ATOM     16  H   UNL     1      -1.379  11.739  21.558  0.00  0.00    +0.000 HD
ENDROOT
BRANCH   1  18
ATOM     17  C   UNL     1       2.248   4.702  20.840  0.00  0.00    +0.000 C 
ATOM     18  O   UNL     1       3.024   5.423  19.886  0.00  0.00    +0.000 OA
ENDBRANCH   1  18
BRANCH  14  19
ATOM     19  C   UNL     1      -2.981  12.728  20.681  0.00  0.00    +0.000 C 
BRANCH  19  20
ATOM     20  C   UNL     1      -3.046  13.892  21.595  0.00  0.00    +0.000 A 
ATOM     21  C   UNL     1      -2.708  15.194  21.280  0.00  0.00    +0.000 A 
ATOM     22  N   UNL     1      -2.889  15.928  22.407  0.00  0.00    +0.000 N 
ATOM     23  C   UNL     1      -2.636  17.340  22.569  0.00  0.00    +0.000 C 
ATOM     24  N   UNL     1      -3.332  15.210  23.448  0.00  0.00    +0.000 NA
ATOM     25  C   UNL     1      -3.435  13.948  22.976  0.00  0.00    +0.000 A 
BRANCH  25  26
ATOM     26  C   UNL     1      -3.877  12.812  23.865  0.00  0.00    +0.000 C 
ATOM     27  F   UNL     1      -3.842  13.143  25.186  0.00  0.00    +0.000 F 
ATOM     28  F   UNL     1      -5.160  12.433  23.614  0.00  0.00    +0.000 F 
ATOM     29  F   UNL     1      -3.099  11.707  23.727  0.00  0.00    +0.000 F 
ENDBRANCH  25  26
ENDBRANCH  19  20
ENDBRANCH  14  19
TORSDOF 4
ENDMDL
MODEL 4
REMARK VINA RESULT:      -7.1      5.608      8.940
REMARK  Name = 
REMARK  6 active torsions:
REMARK  status: ('A' for Active; 'I' for Inactive)
REMARK    1  A    between atoms: C_1  and  O_2
REMARK    2  A    between atoms: O_2  and  C_3
REMARK    3  A    between atoms: N_16  and  C_17
REMARK    4  A    between atoms: C_17  and  C_18
REMARK    5  A    between atoms: N_20  and  C_21
REMARK    6  A    between atoms: C_23  and  C_24
REMARK                            x       y       z     vdW  Elec       q    Type
REMARK                         _______ _______ _______ _____ _____    ______ ____
ROOT
ATOM      1  C   UNL     1       2.566   6.651  19.596  0.00  0.00    +0.000 A 
ATOM      2  C   UNL     1       2.585   7.084  18.270  0.00  0.00    +0.000 A 
ATOM      3  C   UNL     1       2.043   8.320  17.928  0.00  0.00    +0.000 A 
ATOM      4  C   UNL     1       1.446   9.122  18.908  0.00  0.00    +0.000 A 
ATOM      5  C   UNL     1       1.380   8.683  20.260  0.00  0.00    +0.000 A 
ATOM      6  C   UNL     1       1.962   7.447  20.582  0.00  0.00    +0.000 A 
ATOM      7  C   UNL     1       0.587   9.556  21.225  0.00  0.00    +0.000 C 
ATOM      8  C   UNL     1      -0.016   9.316  22.589  0.00  0.00    +0.000 C 
ATOM      9  C   UNL     1      -0.806   8.897  21.408  0.00  0.00    +0.000 C 
ATOM     10  C   UNL     1       0.767  11.021  20.871  0.00  0.00    +0.000 C 
ATOM     11  N   UNL     1       0.184  11.183  19.563  0.00  0.00    +0.000 N 
ATOM     12  C   UNL     1      -1.057  11.742  19.302  0.00  0.00    +0.000 C 
ATOM     13  O   UNL     1      -1.517  11.841  18.176  0.00  0.00    +0.000 OA
ATOM     14  N   UNL     1      -1.737  12.188  20.406  0.00  0.00    +0.000 N 
ATOM     15  C   UNL     1       0.884  10.481  18.490  0.00  0.00    +0.000 C 
ATOM     16  H   UNL     1      -1.532  11.728  21.274  0.00  0.00    +0.000 HD
ENDROOT
BRANCH   1  18
ATOM     17  C   UNL     1       2.174   4.668  20.832  0.00  0.00    +0.000 C 
ATOM     18  O   UNL     1       3.055   5.446  20.026  0.00  0.00    +0.000 OA
ENDBRANCH   1  18
BRANCH  14  19
ATOM     19  C   UNL     1      -3.096  12.667  20.281  0.00  0.00    +0.000 C 
BRANCH  19  20
ATOM     20  C   UNL     1      -3.526  13.137  21.619  0.00  0.00    +0.000 A 
ATOM     21  C   UNL     1      -2.701  13.633  22.610  0.00  0.00    +0.000 A 
ATOM     22  N   UNL     1      -3.496  13.919  23.672  0.00  0.00    +0.000 N 
ATOM     23  C   UNL     1      -3.075  14.436  24.953  0.00  0.00    +0.000 C 
ATOM     24  N   UNL     1      -4.792  13.656  23.457  0.00  0.00    +0.000 NA
ATOM     25  C   UNL     1      -4.839  13.169  22.198  0.00  0.00    +0.000 A 
BRANCH  25  26
ATOM     26  C   UNL     1      -6.139  12.715  21.581  0.00  0.00    +0.000 C 
ATOM     27  F   UNL     1      -6.669  13.647  20.741  0.00  0.00    +0.000 F 
ATOM     28  F   UNL     1      -5.986  11.588  20.832  0.00  0.00    +0.000 F 
ATOM     29  F   UNL     1      -7.094  12.451  22.510  0.00  0.00    +0.000 F 
ENDBRANCH  25  26
ENDBRANCH  19  20
ENDBRANCH  14  19
TORSDOF 4
ENDMDL
MODEL 5
REMARK VINA RESULT:      -6.9      0.997      1.287
REMARK  Name = 
REMARK  6 active torsions:
REMARK  status: ('A' for Active; 'I' for Inactive)
REMARK    1  A    between atoms: C_1  and  O_2
REMARK    2  A    between atoms: O_2  and  C_3
REMARK    3  A    between atoms: N_16  and  C_17
REMARK    4  A    between atoms: C_17  and  C_18
REMARK    5  A    between atoms: N_20  and  C_21
REMARK    6  A    between atoms: C_23  and  C_24
REMARK                            x       y       z     vdW  Elec       q    Type
REMARK                         _______ _______ _______ _____ _____    ______ ____
ROOT
ATOM      1  C   UNL     1      -1.532  13.317  22.623  0.00  0.00    +0.000 A 
ATOM      2  C   UNL     1      -1.130  14.269  21.686  0.00  0.00    +0.000 A 
ATOM      3  C   UNL     1      -0.584  13.868  20.469  0.00  0.00    +0.000 A 
ATOM      4  C   UNL     1      -0.406  12.508  20.192  0.00  0.00    +0.000 A 
ATOM      5  C   UNL     1      -0.773  11.521  21.149  0.00  0.00    +0.000 A 
ATOM      6  C   UNL     1      -1.350  11.952  22.354  0.00  0.00    +0.000 A 
ATOM      7  C   UNL     1      -0.411  10.079  20.818  0.00  0.00    +0.000 C 
ATOM      8  C   UNL     1      -0.290   8.820  21.645  0.00  0.00    +0.000 C 
ATOM      9  C   UNL     1       0.877   9.730  21.610  0.00  0.00    +0.000 C 
ATOM     10  C   UNL     1      -0.553   9.833  19.326  0.00  0.00    +0.000 C 
ATOM     11  N   UNL     1       0.427  10.681  18.695  0.00  0.00    +0.000 N 
ATOM     12  C   UNL     1       1.644  10.258  18.187  0.00  0.00    +0.000 C 
ATOM     13  O   UNL     1       2.450  11.018  17.676  0.00  0.00    +0.000 OA
ATOM     14  N   UNL     1       1.880   8.911  18.291  0.00  0.00    +0.000 N 
ATOM     15  C   UNL     1       0.176  12.113  18.834  0.00  0.00    +0.000 C 
ATOM     16  H   UNL     1       1.423   8.434  19.045  0.00  0.00    +0.000 HD
ENDROOT
BRANCH   1  18
ATOM     17  C   UNL     1      -3.365  13.099  24.108  0.00  0.00    +0.000 C 
ATOM     18  O   UNL     1      -2.060  13.613  23.852  0.00  0.00    +0.000 OA
ENDBRANCH   1  18
BRANCH  14  19
ATOM     19  C   UNL     1       3.168   8.366  17.920  0.00  0.00    +0.000 C 
BRANCH  19  20
ATOM     20  C   UNL     1       3.081   6.893  18.054  0.00  0.00    +0.000 A 
ATOM     21  C   UNL     1       2.199   6.201  18.861  0.00  0.00    +0.000 A 
ATOM     22  N   UNL     1       2.478   4.882  18.701  0.00  0.00    +0.000 N 
ATOM     23  C   UNL     1       1.832   3.775  19.366  0.00  0.00    +0.000 C 
ATOM     24  N   UNL     1       3.476   4.646  17.839  0.00  0.00    +0.000 NA
ATOM     25  C   UNL     1       3.870   5.871  17.427  0.00  0.00    +0.000 A 
BRANCH  25  26
ATOM     26  C   UNL     1       5.016   6.042  16.460  0.00  0.00    +0.000 C 
ATOM     27  F   UNL     1       5.388   4.865  15.883  0.00  0.00    +0.000 F 
ATOM     28  F   UNL     1       4.698   6.873  15.429  0.00  0.00    +0.000 F 
ATOM     29  F   UNL     1       6.129   6.547  17.051  0.00  0.00    +0.000 F 
ENDBRANCH  25  26
ENDBRANCH  19  20
ENDBRANCH  14  19
TORSDOF 4
ENDMDL
MODEL 6
REMARK VINA RESULT:      -6.9      2.358      3.375
REMARK  Name = 
REMARK  6 active torsions:
REMARK  status: ('A' for Active; 'I' for Inactive)
REMARK    1  A    between atoms: C_1  and  O_2
REMARK    2  A    between atoms: O_2  and  C_3
REMARK    3  A    between atoms: N_16  and  C_17
REMARK    4  A    between atoms: C_17  and  C_18
REMARK    5  A    between atoms: N_20  and  C_21
REMARK    6  A    between atoms: C_23  and  C_24
REMARK                            x       y       z     vdW  Elec       q    Type
REMARK                         _______ _______ _______ _____ _____    ______ ____
ROOT
ATOM      1  C   UNL     1      -2.121  12.267  22.159  0.00  0.00    +0.000 A 
ATOM      2  C   UNL     1      -1.919  11.423  23.251  0.00  0.00    +0.000 A 
ATOM      3  C   UNL     1      -0.942  10.433  23.201  0.00  0.00    +0.000 A 
ATOM      4  C   UNL     1      -0.177  10.256  22.042  0.00  0.00    +0.000 A 
ATOM      5  C   UNL     1      -0.393  11.079  20.902  0.00  0.00    +0.000 A 
ATOM      6  C   UNL     1      -1.362  12.091  20.991  0.00  0.00    +0.000 A 
ATOM      7  C   UNL     1       0.386  10.721  19.643  0.00  0.00    +0.000 C 
ATOM      8  C   UNL     1       0.221  11.071  18.182  0.00  0.00    +0.000 C 
ATOM      9  C   UNL     1      -0.577   9.940  18.709  0.00  0.00    +0.000 C 
ATOM     10  C   UNL     1       1.769  10.214  20.010  0.00  0.00    +0.000 C 
ATOM     11  N   UNL     1       1.556   8.995  20.749  0.00  0.00    +0.000 N 
ATOM     12  C   UNL     1       1.719   7.715  20.245  0.00  0.00    +0.000 C 
ATOM     13  O   UNL     1       1.509   6.710  20.906  0.00  0.00    +0.000 OA
ATOM     14  N   UNL     1       2.144   7.652  18.943  0.00  0.00    +0.000 N 
ATOM     15  C   UNL     1       0.899   9.170  22.041  0.00  0.00    +0.000 C 
ATOM     16  H   UNL     1       1.902   8.428  18.356  0.00  0.00    +0.000 HD
ENDROOT
BRANCH   1  18
ATOM     17  C   UNL     1      -4.418  12.816  21.987  0.00  0.00    +0.000 C 
ATOM     18  O   UNL     1      -3.068  13.256  22.106  0.00  0.00    +0.000 OA
ENDBRANCH   1  18
BRANCH  14  19
ATOM     19  C   UNL     1       2.221   6.377  18.262  0.00  0.00    +0.000 C 
BRANCH  19  20
ATOM     20  C   UNL     1       3.655   6.020  18.152  0.00  0.00    +0.000 A 
ATOM     21  C   UNL     1       4.624   6.745  17.486  0.00  0.00    +0.000 A 
ATOM     22  N   UNL     1       5.785   6.052  17.612  0.00  0.00    +0.000 N 
ATOM     23  C   UNL     1       7.069   6.407  17.055  0.00  0.00    +0.000 C 
ATOM     24  N   UNL     1       5.660   4.923  18.322  0.00  0.00    +0.000 NA
ATOM     25  C   UNL     1       4.354   4.876  18.665  0.00  0.00    +0.000 A 
BRANCH  25  26
ATOM     26  C   UNL     1       3.792   3.720  19.456  0.00  0.00    +0.000 C 
ATOM     27  F   UNL     1       3.136   4.128  20.578  0.00  0.00    +0.000 F 
ATOM     28  F   UNL     1       2.884   3.001  18.739  0.00  0.00    +0.000 F 
ATOM     29  F   UNL     1       4.753   2.853  19.869  0.00  0.00    +0.000 F 
ENDBRANCH  25  26
ENDBRANCH  19  20
ENDBRANCH  14  19
TORSDOF 4
ENDMDL
MODEL 7
REMARK VINA RESULT:      -6.9      5.262      9.011
REMARK  Name = 
REMARK  6 active torsions:
REMARK  status: ('A' for Active; 'I' for Inactive)
REMARK    1  A    between atoms: C_1  and  O_2
REMARK    2  A    between atoms: O_2  and  C_3
REMARK    3  A    between atoms: N_16  and  C_17
REMARK    4  A    between atoms: C_17  and  C_18
REMARK    5  A    between atoms: N_20  and  C_21
REMARK    6  A    between atoms: C_23  and  C_24
REMARK                            x       y       z     vdW  Elec       q    Type
REMARK                         _______ _______ _______ _____ _____    ______ ____
ROOT
ATOM      1  C   UNL     1       2.376   6.998  19.342  0.00  0.00    +0.000 A 
ATOM      2  C   UNL     1       2.358   7.535  18.054  0.00  0.00    +0.000 A 
ATOM      3  C   UNL     1       1.895   8.831  17.842  0.00  0.00    +0.000 A 
ATOM      4  C   UNL     1       1.416   9.593  18.914  0.00  0.00    +0.000 A 
ATOM      5  C   UNL     1       1.389   9.051  20.230  0.00  0.00    +0.000 A 
ATOM      6  C   UNL     1       1.891   7.754  20.421  0.00  0.00    +0.000 A 
ATOM      7  C   UNL     1       0.720   9.898  21.305  0.00  0.00    +0.000 C 
ATOM      8  C   UNL     1       0.174   9.593  22.680  0.00  0.00    +0.000 C 
ATOM      9  C   UNL     1      -0.708   9.331  21.520  0.00  0.00    +0.000 C 
ATOM     10  C   UNL     1       0.993  11.371  21.055  0.00  0.00    +0.000 C 
ATOM     11  N   UNL     1       0.354  11.680  19.800  0.00  0.00    +0.000 N 
ATOM     12  C   UNL     1      -0.851  12.347  19.658  0.00  0.00    +0.000 C 
ATOM     13  O   UNL     1      -1.363  12.571  18.573  0.00  0.00    +0.000 OA
ATOM     14  N   UNL     1      -1.434  12.751  20.832  0.00  0.00    +0.000 N 
ATOM     15  C   UNL     1       0.940  11.018  18.637  0.00  0.00    +0.000 C 
ATOM     16  H   UNL     1      -1.218  12.209  21.648  0.00  0.00    +0.000 HD
ENDROOT
BRANCH   1  18
ATOM     17  C   UNL     1       4.119   5.397  19.244  0.00  0.00    +0.000 C 
ATOM     18  O   UNL     1       2.793   5.730  19.648  0.00  0.00    +0.000 OA
ENDBRANCH   1  18
BRANCH  14  19
ATOM     19  C   UNL     1      -2.757  13.336  20.826  0.00  0.00    +0.000 C 
BRANCH  19  20
ATOM     20  C   UNL     1      -2.840  14.256  21.984  0.00  0.00    +0.000 A 
ATOM     21  C   UNL     1      -2.430  15.576  22.006  0.00  0.00    +0.000 A 
ATOM     22  N   UNL     1      -2.661  16.035  23.262  0.00  0.00    +0.000 N 
ATOM     23  C   UNL     1      -2.366  17.355  23.768  0.00  0.00    +0.000 C 
ATOM     24  N   UNL     1      -3.203  15.119  24.076  0.00  0.00    +0.000 NA
ATOM     25  C   UNL     1      -3.321  14.010  23.314  0.00  0.00    +0.000 A 
BRANCH  25  26
ATOM     26  C   UNL     1      -3.867  12.723  23.882  0.00  0.00    +0.000 C 
ATOM     27  F   UNL     1      -5.076  12.391  23.349  0.00  0.00    +0.000 F 
ATOM     28  F   UNL     1      -3.050  11.663  23.630  0.00  0.00    +0.000 F 
ATOM     29  F   UNL     1      -4.045  12.779  25.228  0.00  0.00    +0.000 F 
ENDBRANCH  25  26
ENDBRANCH  19  20
ENDBRANCH  14  19
TORSDOF 4
ENDMDL
MODEL 8
REMARK VINA RESULT:      -6.9      5.711      9.242
REMARK  Name = 
REMARK  6 active torsions:
REMARK  status: ('A' for Active; 'I' for Inactive)
REMARK    1  A    between atoms: C_1  and  O_2
REMARK    2  A    between atoms: O_2  and  C_3
REMARK    3  A    between atoms: N_16  and  C_17
REMARK    4  A    between atoms: C_17  and  C_18
REMARK    5  A    between atoms: N_20  and  C_21
REMARK    6  A    between atoms: C_23  and  C_24
REMARK                            x       y       z     vdW  Elec       q    Type
REMARK                         _______ _______ _______ _____ _____    ______ ____
ROOT
ATOM      1  C   UNL     1       2.414   6.927  18.990  0.00  0.00    +0.000 A 
ATOM      2  C   UNL     1       2.181   7.556  17.766  0.00  0.00    +0.000 A 
ATOM      3  C   UNL     1       1.602   8.822  17.728  0.00  0.00    +0.000 A 
ATOM      4  C   UNL     1       1.221   9.458  18.915  0.00  0.00    +0.000 A 
ATOM      5  C   UNL     1       1.414   8.819  20.171  0.00  0.00    +0.000 A 
ATOM      6  C   UNL     1       2.028   7.556  20.183  0.00  0.00    +0.000 A 
ATOM      7  C   UNL     1       0.839   9.524  21.393  0.00  0.00    +0.000 C 
ATOM      8  C   UNL     1       0.511   9.073  22.797  0.00  0.00    +0.000 C 
ATOM      9  C   UNL     1      -0.502   8.826  21.744  0.00  0.00    +0.000 C 
ATOM     10  C   UNL     1       0.970  11.029  21.237  0.00  0.00    +0.000 C 
ATOM     11  N   UNL     1       0.144  11.378  20.108  0.00  0.00    +0.000 N 
ATOM     12  C   UNL     1      -1.114  11.953  20.183  0.00  0.00    +0.000 C 
ATOM     13  O   UNL     1      -1.784  12.214  19.197  0.00  0.00    +0.000 OA
ATOM     14  N   UNL     1      -1.557  12.217  21.453  0.00  0.00    +0.000 N 
ATOM     15  C   UNL     1       0.610  10.856  18.826  0.00  0.00    +0.000 C 
ATOM     16  H   UNL     1      -1.194  11.635  22.184  0.00  0.00    +0.000 HD
ENDROOT
BRANCH   1  18
ATOM     17  C   UNL     1       4.376   5.600  19.000  0.00  0.00    +0.000 C 
ATOM     18  O   UNL     1       2.959   5.678  19.128  0.00  0.00    +0.000 OA
ENDBRANCH   1  18
BRANCH  14  19
ATOM     19  C   UNL     1      -2.907  12.690  21.670  0.00  0.00    +0.000 C 
BRANCH  19  20
ATOM     20  C   UNL     1      -2.904  13.477  22.926  0.00  0.00    +0.000 A 
ATOM     21  C   UNL     1      -1.826  14.158  23.456  0.00  0.00    +0.000 A 
ATOM     22  N   UNL     1      -2.250  14.716  24.618  0.00  0.00    +0.000 N 
ATOM     23  C   UNL     1      -1.462  15.501  25.539  0.00  0.00    +0.000 C 
ATOM     24  N   UNL     1      -3.536  14.463  24.896  0.00  0.00    +0.000 NA
ATOM     25  C   UNL     1      -3.964  13.697  23.869  0.00  0.00    +0.000 A 
BRANCH  25  26
ATOM     26  C   UNL     1      -5.375  13.164  23.824  0.00  0.00    +0.000 C 
ATOM     27  F   UNL     1      -5.581  12.162  24.724  0.00  0.00    +0.000 F 
ATOM     28  F   UNL     1      -6.296  14.123  24.121  0.00  0.00    +0.000 F 
ATOM     29  F   UNL     1      -5.704  12.658  22.607  0.00  0.00    +0.000 F 
ENDBRANCH  25  26
ENDBRANCH  19  20
ENDBRANCH  14  19
TORSDOF 4
ENDMDL
MODEL 9
REMARK VINA RESULT:      -6.8      2.554      3.530
REMARK  Name = 
REMARK  6 active torsions:
REMARK  status: ('A' for Active; 'I' for Inactive)
REMARK    1  A    between atoms: C_1  and  O_2
REMARK    2  A    between atoms: O_2  and  C_3
REMARK    3  A    between atoms: N_16  and  C_17
REMARK    4  A    between atoms: C_17  and  C_18
REMARK    5  A    between atoms: N_20  and  C_21
REMARK    6  A    between atoms: C_23  and  C_24
REMARK                            x       y       z     vdW  Elec       q    Type
REMARK                         _______ _______ _______ _____ _____    ______ ____
ROOT
ATOM      1  C   UNL     1      -1.931  12.101  21.968  0.00  0.00    +0.000 A 
ATOM      2  C   UNL     1      -1.751  11.326  23.114  0.00  0.00    +0.000 A 
ATOM      3  C   UNL     1      -0.799  10.310  23.131  0.00  0.00    +0.000 A 
ATOM      4  C   UNL     1      -0.039  10.039  21.987  0.00  0.00    +0.000 A 
ATOM      5  C   UNL     1      -0.234  10.791  20.795  0.00  0.00    +0.000 A 
ATOM      6  C   UNL     1      -1.178  11.830  20.816  0.00  0.00    +0.000 A 
ATOM      7  C   UNL     1       0.536  10.332  19.563  0.00  0.00    +0.000 C 
ATOM      8  C   UNL     1       0.380  10.591  18.082  0.00  0.00    +0.000 C 
ATOM      9  C   UNL     1      -0.446   9.516  18.681  0.00  0.00    +0.000 C 
ATOM     10  C   UNL     1       1.906   9.816  19.964  0.00  0.00    +0.000 C 
ATOM     11  N   UNL     1       1.663   8.654  20.781  0.00  0.00    +0.000 N 
ATOM     12  C   UNL     1       1.794   7.340  20.363  0.00  0.00    +0.000 C 
ATOM     13  O   UNL     1       1.559   6.386  21.087  0.00  0.00    +0.000 OA
ATOM     14  N   UNL     1       2.217   7.181  19.068  0.00  0.00    +0.000 N 
ATOM     15  C   UNL     1       1.010   8.929  22.058  0.00  0.00    +0.000 C 
ATOM     16  H   UNL     1       1.994   7.923  18.431  0.00  0.00    +0.000 HD
ENDROOT
BRANCH   1  18
ATOM     17  C   UNL     1      -3.665  13.072  20.679  0.00  0.00    +0.000 C 
ATOM     18  O   UNL     1      -2.854  13.108  21.850  0.00  0.00    +0.000 OA
ENDBRANCH   1  18
BRANCH  14  19
ATOM     19  C   UNL     1       2.262   5.863  18.472  0.00  0.00    +0.000 C 
BRANCH  19  20
ATOM     20  C   UNL     1       3.654   5.370  18.593  0.00  0.00    +0.000 A 
ATOM     21  C   UNL     1       4.778   5.967  18.055  0.00  0.00    +0.000 A 
ATOM     22  N   UNL     1       5.833   5.177  18.381  0.00  0.00    +0.000 N 
ATOM     23  C   UNL     1       7.213   5.383  18.012  0.00  0.00    +0.000 C 
ATOM     24  N   UNL     1       5.494   4.103  19.106  0.00  0.00    +0.000 NA
ATOM     25  C   UNL     1       4.153   4.195  19.249  0.00  0.00    +0.000 A 
BRANCH  25  26
ATOM     26  C   UNL     1       3.370   3.138  19.987  0.00  0.00    +0.000 C 
ATOM     27  F   UNL     1       2.548   2.429  19.164  0.00  0.00    +0.000 F 
ATOM     28  F   UNL     1       4.180   2.218  20.580  0.00  0.00    +0.000 F 
ATOM     29  F   UNL     1       2.578   3.659  20.961  0.00  0.00    +0.000 F 
ENDBRANCH  25  26
ENDBRANCH  19  20
ENDBRANCH  14  19
TORSDOF 4
ENDMDL
