MODEL 1
REMARK VINA RESULT:      -8.7      0.000      0.000
REMARK  Name = 
REMARK  6 active torsions:
REMARK  status: ('A' for Active; 'I' for Inactive)
REMARK    1  A    between atoms: S_2  and  N_4
REMARK    2  A    between atoms: S_2  and  C_18
REMARK    3  A    between atoms: N_4  and  C_5
REMARK    4  A    between atoms: C_8  and  O_9
REMARK    5  A    between atoms: O_9  and  C_10
REMARK    6  A    between atoms: N_21  and  C_22
REMARK                            x       y       z     vdW  Elec       q    Type
REMARK                         _______ _______ _______ _____ _____    ______ ____
ROOT
ATOM      1  N   UNL     1       4.587   5.657  19.715  0.00  0.00    +0.000 N 
ATOM      2  H   UNL     1       4.837   4.925  20.380  0.00  0.00    +0.000 HD
ENDROOT
BRANCH   1   3
ATOM      3  C   UNL     1       5.449   5.668  18.569  0.00  0.00    +0.000 A 
ATOM      4  C   UNL     1       6.313   4.604  18.313  0.00  0.00    +0.000 A 
ATOM      5  C   UNL     1       7.072   4.603  17.140  0.00  0.00    +0.000 A 
ATOM      6  C   UNL     1       6.921   5.664  16.258  0.00  0.00    +0.000 A 
ATOM      7  N   UNL     1       6.118   6.727  16.501  0.00  0.00    +0.000 NA
ATOM      8  C   UNL     1       5.376   6.689  17.631  0.00  0.00    +0.000 A 
BRANCH   6   9
ATOM      9  O   UNL     1       7.611   5.598  15.054  0.00  0.00    +0.000 OA
BRANCH   9  10
ATOM     10  C   UNL     1       7.030   4.854  14.045  0.00  0.00    +0.000 A 
ATOM     11  C   UNL     1       7.714   4.775  12.830  0.00  0.00    +0.000 A 
ATOM     12  C   UNL     1       7.155   4.064  11.764  0.00  0.00    +0.000 A 
ATOM     13  C   UNL     1       5.922   3.429  11.914  0.00  0.00    +0.000 A 
ATOM     14  C   UNL     1       5.262   3.471  13.140  0.00  0.00    +0.000 A 
ATOM     15  C   UNL     1       5.828   4.159  14.210  0.00  0.00    +0.000 A 
ENDBRANCH   9  10
ENDBRANCH   6   9
ENDBRANCH   1   3
BRANCH   1  17
ATOM     16  O   UNL     1       2.788   5.223  17.917  0.00  0.00    +0.000 OA
ATOM     17  S   UNL     1       2.935   5.487  19.329  0.00  0.00    +0.000 S 
ATOM     18  O   UNL     1       2.334   4.666  20.355  0.00  0.00    +0.000 OA
BRANCH  17  19
ATOM     19  C   UNL     1       2.225   7.029  19.541  0.00  0.00    +0.000 A 
ATOM     20  C   UNL     1       2.135   8.046  18.591  0.00  0.00    +0.000 A 
ATOM     21  N   UNL     1       1.481   9.113  19.059  0.00  0.00    +0.000 NA
ATOM     22  N   UNL     1       1.173   8.797  20.349  0.00  0.00    +0.000 N 
ATOM     23  C   UNL     1       1.612   7.530  20.667  0.00  0.00    +0.000 A 
BRANCH  22  24
ATOM     24  C   UNL     1       0.457   9.707  21.179  0.00  0.00    +0.000 A 
ATOM     25  C   UNL     1       0.278  11.036  20.760  0.00  0.00    +0.000 A 
ATOM     26  C   UNL     1      -0.444  11.932  21.553  0.00  0.00    +0.000 A 
ATOM     27  C   UNL     1      -0.985  11.513  22.768  0.00  0.00    +0.000 A 
ATOM     28  C   UNL     1      -0.802  10.199  23.194  0.00  0.00    +0.000 A 
ATOM     29  C   UNL     1      -0.084   9.295  22.405  0.00  0.00    +0.000 A 
ENDBRANCH  22  24
ENDBRANCH  17  19
ENDBRANCH   1  17
TORSDOF 6
ENDMDL
MODEL 2
REMARK VINA RESULT:      -8.6      0.191      1.298
REMARK  Name = 
REMARK  6 active torsions:
REMARK  status: ('A' for Active; 'I' for Inactive)
REMARK    1  A    between atoms: S_2  and  N_4
REMARK    2  A    between atoms: S_2  and  C_18
REMARK    3  A    between atoms: N_4  and  C_5
REMARK    4  A    between atoms: C_8  and  O_9
REMARK    5  A    between atoms: O_9  and  C_10
REMARK    6  A    between atoms: N_21  and  C_22
REMARK                            x       y       z     vdW  Elec       q    Type
REMARK                         _______ _______ _______ _____ _____    ______ ____
ROOT
ATOM      1  N   UNL     1       4.691   5.620  19.726  0.00  0.00    +0.000 N 
ATOM      2  H   UNL     1       4.973   4.902  20.395  0.00  0.00    +0.000 HD
ENDROOT
BRANCH   1   3
ATOM      3  C   UNL     1       5.522   5.629  18.558  0.00  0.00    +0.000 A 
ATOM      4  C   UNL     1       6.251   4.499  18.188  0.00  0.00    +0.000 A 
ATOM      5  C   UNL     1       6.978   4.511  16.995  0.00  0.00    +0.000 A 
ATOM      6  C   UNL     1       6.931   5.653  16.208  0.00  0.00    +0.000 A 
ATOM      7  N   UNL     1       6.263   6.776  16.562  0.00  0.00    +0.000 NA
ATOM      8  C   UNL     1       5.547   6.727  17.708  0.00  0.00    +0.000 A 
BRANCH   6   9
ATOM      9  O   UNL     1       7.581   5.610  14.980  0.00  0.00    +0.000 OA
BRANCH   9  10
ATOM     10  C   UNL     1       6.988   4.853  13.988  0.00  0.00    +0.000 A 
ATOM     11  C   UNL     1       5.691   4.392  14.221  0.00  0.00    +0.000 A 
ATOM     12  C   UNL     1       5.058   3.593  13.265  0.00  0.00    +0.000 A 
ATOM     13  C   UNL     1       5.714   3.262  12.079  0.00  0.00    +0.000 A 
ATOM     14  C   UNL     1       6.990   3.760  11.828  0.00  0.00    +0.000 A 
ATOM     15  C   UNL     1       7.614   4.576  12.769  0.00  0.00    +0.000 A 
ENDBRANCH   9  10
ENDBRANCH   6   9
ENDBRANCH   1   3
BRANCH   1  17
ATOM     16  O   UNL     1       2.857   5.100  17.988  0.00  0.00    +0.000 OA
ATOM     17  S   UNL     1       3.033   5.413  19.386  0.00  0.00    +0.000 S 
ATOM     18  O   UNL     1       2.470   4.617  20.453  0.00  0.00    +0.000 OA
BRANCH  17  19
ATOM     19  C   UNL     1       2.305   6.951  19.566  0.00  0.00    +0.000 A 
ATOM     20  C   UNL     1       2.284   7.981  18.625  0.00  0.00    +0.000 A 
ATOM     21  N   UNL     1       1.595   9.040  19.058  0.00  0.00    +0.000 NA
ATOM     22  N   UNL     1       1.191   8.706  20.316  0.00  0.00    +0.000 N 
ATOM     23  C   UNL     1       1.608   7.434  20.648  0.00  0.00    +0.000 A 
BRANCH  22  24
ATOM     24  C   UNL     1       0.412   9.603  21.102  0.00  0.00    +0.000 A 
ATOM     25  C   UNL     1      -0.011   9.215  22.384  0.00  0.00    +0.000 A 
ATOM     26  C   UNL     1      -0.755  10.095  23.175  0.00  0.00    +0.000 A 
ATOM     27  C   UNL     1      -1.086  11.360  22.693  0.00  0.00    +0.000 A 
ATOM     28  C   UNL     1      -0.678  11.748  21.419  0.00  0.00    +0.000 A 
ATOM     29  C   UNL     1       0.069  10.875  20.621  0.00  0.00    +0.000 A 
ENDBRANCH  22  24
ENDBRANCH  17  19
ENDBRANCH   1  17
TORSDOF 6
ENDMDL
MODEL 3
REMARK VINA RESULT:      -8.3      4.536      6.753
REMARK  Name = 
REMARK  6 active torsions:
REMARK  status: ('A' for Active; 'I' for Inactive)
REMARK    1  A    between atoms: S_2  and  N_4
REMARK    2  A    between atoms: S_2  and  C_18
REMARK    3  A    between atoms: N_4  and  C_5
REMARK    4  A    between atoms: C_8  and  O_9
REMARK    5  A    between atoms: O_9  and  C_10
REMARK    6  A    between atoms: N_21  and  C_22
REMARK                            x       y       z     vdW  Elec       q    Type
REMARK                         _______ _______ _______ _____ _____    ______ ____
ROOT
ATOM      1  N   UNL     1      -0.112  10.942  18.264  0.00  0.00    +0.000 N 
ATOM      2  H   UNL     1      -0.107  11.070  17.252  0.00  0.00    +0.000 HD
ENDROOT
BRANCH   1   3
ATOM      3  C   UNL     1       0.743   9.868  18.679  0.00  0.00    +0.000 A 
ATOM      4  C   UNL     1       0.648   9.330  19.962  0.00  0.00    +0.000 A 
ATOM      5  C   UNL     1       1.431   8.225  20.303  0.00  0.00    +0.000 A 
ATOM      6  C   UNL     1       2.269   7.688  19.336  0.00  0.00    +0.000 A 
ATOM      7  N   UNL     1       2.408   8.214  18.095  0.00  0.00    +0.000 NA
ATOM      8  C   UNL     1       1.619   9.267  17.784  0.00  0.00    +0.000 A 
BRANCH   6   9
ATOM      9  O   UNL     1       2.967   6.533  19.664  0.00  0.00    +0.000 OA
BRANCH   9  10
ATOM     10  C   UNL     1       2.284   5.338  19.540  0.00  0.00    +0.000 A 
ATOM     11  C   UNL     1       1.791   4.755  20.710  0.00  0.00    +0.000 A 
ATOM     12  C   UNL     1       1.123   3.529  20.646  0.00  0.00    +0.000 A 
ATOM     13  C   UNL     1       0.941   2.892  19.419  0.00  0.00    +0.000 A 
ATOM     14  C   UNL     1       1.392   3.496  18.248  0.00  0.00    +0.000 A 
ATOM     15  C   UNL     1       2.038   4.728  18.307  0.00  0.00    +0.000 A 
ENDBRANCH   9  10
ENDBRANCH   6   9
ENDBRANCH   1   3
BRANCH   1  17
ATOM     16  O   UNL     1       1.644  12.444  19.411  0.00  0.00    +0.000 OA
ATOM     17  S   UNL     1       0.262  12.436  18.994  0.00  0.00    +0.000 S 
ATOM     18  O   UNL     1      -0.326  13.474  18.178  0.00  0.00    +0.000 OA
BRANCH  17  19
ATOM     19  C   UNL     1      -0.617  12.493  20.461  0.00  0.00    +0.000 A 
ATOM     20  C   UNL     1      -0.089  12.561  21.750  0.00  0.00    +0.000 A 
ATOM     21  N   UNL     1      -1.045  12.636  22.681  0.00  0.00    +0.000 NA
ATOM     22  N   UNL     1      -2.215  12.579  21.985  0.00  0.00    +0.000 N 
ATOM     23  C   UNL     1      -1.983  12.495  20.629  0.00  0.00    +0.000 A 
BRANCH  22  24
ATOM     24  C   UNL     1      -3.472  12.639  22.653  0.00  0.00    +0.000 A 
ATOM     25  C   UNL     1      -4.637  12.915  21.918  0.00  0.00    +0.000 A 
ATOM     26  C   UNL     1      -5.879  12.952  22.557  0.00  0.00    +0.000 A 
ATOM     27  C   UNL     1      -5.968  12.722  23.929  0.00  0.00    +0.000 A 
ATOM     28  C   UNL     1      -4.816  12.458  24.666  0.00  0.00    +0.000 A 
ATOM     29  C   UNL     1      -3.569  12.416  24.034  0.00  0.00    +0.000 A 
ENDBRANCH  22  24
ENDBRANCH  17  19
ENDBRANCH   1  17
TORSDOF 6
ENDMDL
MODEL 4
REMARK VINA RESULT:      -8.3      2.113      9.266
REMARK  Name = 
REMARK  6 active torsions:
REMARK  status: ('A' for Active; 'I' for Inactive)
REMARK    1  A    between atoms: S_2  and  N_4
REMARK    2  A    between atoms: S_2  and  C_18
REMARK    3  A    between atoms: N_4  and  C_5
REMARK    4  A    between atoms: C_8  and  O_9
REMARK    5  A    between atoms: O_9  and  C_10
REMARK    6  A    between atoms: N_21  and  C_22
REMARK                            x       y       z     vdW  Elec       q    Type
REMARK                         _______ _______ _______ _____ _____    ______ ____
ROOT
ATOM      1  N   UNL     1       3.124   4.705  18.557  0.00  0.00    +0.000 N 
ATOM      2  H   UNL     1       2.557   3.877  18.739  0.00  0.00    +0.000 HD
ENDROOT
BRANCH   1   3
ATOM      3  C   UNL     1       2.536   5.895  19.099  0.00  0.00    +0.000 A 
ATOM      4  C   UNL     1       1.947   5.892  20.363  0.00  0.00    +0.000 A 
ATOM      5  C   UNL     1       1.466   7.089  20.900  0.00  0.00    +0.000 A 
ATOM      6  C   UNL     1       1.611   8.249  20.153  0.00  0.00    +0.000 A 
ATOM      7  N   UNL     1       2.144   8.274  18.909  0.00  0.00    +0.000 NA
ATOM      8  C   UNL     1       2.625   7.106  18.425  0.00  0.00    +0.000 A 
BRANCH   6   9
ATOM      9  O   UNL     1       1.214   9.443  20.744  0.00  0.00    +0.000 OA
BRANCH   9  10
ATOM     10  C   UNL     1       0.513  10.328  19.947  0.00  0.00    +0.000 A 
ATOM     11  C   UNL     1      -0.770   9.952  19.545  0.00  0.00    +0.000 A 
ATOM     12  C   UNL     1      -1.510  10.794  18.710  0.00  0.00    +0.000 A 
ATOM     13  C   UNL     1      -0.973  12.009  18.285  0.00  0.00    +0.000 A 
ATOM     14  C   UNL     1       0.289  12.404  18.723  0.00  0.00    +0.000 A 
ATOM     15  C   UNL     1       1.018  11.576  19.573  0.00  0.00    +0.000 A 
ENDBRANCH   9  10
ENDBRANCH   6   9
ENDBRANCH   1   3
BRANCH   1  17
ATOM     16  O   UNL     1       5.139   5.493  19.962  0.00  0.00    +0.000 OA
ATOM     17  S   UNL     1       4.705   4.405  19.119  0.00  0.00    +0.000 S 
ATOM     18  O   UNL     1       4.764   3.018  19.522  0.00  0.00    +0.000 OA
BRANCH  17  19
ATOM     19  C   UNL     1       5.732   4.499  17.753  0.00  0.00    +0.000 A 
ATOM     20  C   UNL     1       7.112   4.698  17.757  0.00  0.00    +0.000 A 
ATOM     21  N   UNL     1       7.626   4.678  16.524  0.00  0.00    +0.000 NA
ATOM     22  N   UNL     1       6.554   4.500  15.702  0.00  0.00    +0.000 N 
ATOM     23  C   UNL     1       5.387   4.383  16.426  0.00  0.00    +0.000 A 
BRANCH  22  24
ATOM     24  C   UNL     1       6.715   4.421  14.288  0.00  0.00    +0.000 A 
ATOM     25  C   UNL     1       7.620   5.280  13.643  0.00  0.00    +0.000 A 
ATOM     26  C   UNL     1       7.806   5.195  12.261  0.00  0.00    +0.000 A 
ATOM     27  C   UNL     1       7.090   4.262  11.513  0.00  0.00    +0.000 A 
ATOM     28  C   UNL     1       6.184   3.414  12.145  0.00  0.00    +0.000 A 
ATOM     29  C   UNL     1       5.993   3.489  13.529  0.00  0.00    +0.000 A 
ENDBRANCH  22  24
ENDBRANCH  17  19
ENDBRANCH   1  17
TORSDOF 6
ENDMDL
MODEL 5
REMARK VINA RESULT:      -8.3      2.158      9.245
REMARK  Name = 
REMARK  6 active torsions:
REMARK  status: ('A' for Active; 'I' for Inactive)
REMARK    1  A    between atoms: S_2  and  N_4
REMARK    2  A    between atoms: S_2  and  C_18
REMARK    3  A    between atoms: N_4  and  C_5
REMARK    4  A    between atoms: C_8  and  O_9
REMARK    5  A    between atoms: O_9  and  C_10
REMARK    6  A    between atoms: N_21  and  C_22
REMARK                            x       y       z     vdW  Elec       q    Type
REMARK                         _______ _______ _______ _____ _____    ______ ____
ROOT
ATOM      1  N   UNL     1       3.116   4.676  18.544  0.00  0.00    +0.000 N 
ATOM      2  H   UNL     1       2.547   3.860  18.773  0.00  0.00    +0.000 HD
ENDROOT
BRANCH   1   3
ATOM      3  C   UNL     1       2.536   5.895  19.026  0.00  0.00    +0.000 A 
ATOM      4  C   UNL     1       1.953   5.960  20.292  0.00  0.00    +0.000 A 
ATOM      5  C   UNL     1       1.480   7.185  20.768  0.00  0.00    +0.000 A 
ATOM      6  C   UNL     1       1.626   8.304  19.962  0.00  0.00    +0.000 A 
ATOM      7  N   UNL     1       2.154   8.262  18.715  0.00  0.00    +0.000 NA
ATOM      8  C   UNL     1       2.627   7.069  18.290  0.00  0.00    +0.000 A 
BRANCH   6   9
ATOM      9  O   UNL     1       1.238   9.529  20.491  0.00  0.00    +0.000 OA
BRANCH   9  10
ATOM     10  C   UNL     1       0.397  10.303  19.714  0.00  0.00    +0.000 A 
ATOM     11  C   UNL     1       0.809  11.605  19.424  0.00  0.00    +0.000 A 
ATOM     12  C   UNL     1      -0.019  12.443  18.671  0.00  0.00    +0.000 A 
ATOM     13  C   UNL     1      -1.249  11.980  18.204  0.00  0.00    +0.000 A 
ATOM     14  C   UNL     1      -1.639  10.667  18.456  0.00  0.00    +0.000 A 
ATOM     15  C   UNL     1      -0.805   9.823  19.186  0.00  0.00    +0.000 A 
ENDBRANCH   9  10
ENDBRANCH   6   9
ENDBRANCH   1   3
BRANCH   1  17
ATOM     16  O   UNL     1       5.121   5.501  19.943  0.00  0.00    +0.000 OA
ATOM     17  S   UNL     1       4.700   4.399  19.111  0.00  0.00    +0.000 S 
ATOM     18  O   UNL     1       4.773   3.018  19.529  0.00  0.00    +0.000 OA
BRANCH  17  19
ATOM     19  C   UNL     1       5.727   4.490  17.745  0.00  0.00    +0.000 A 
ATOM     20  C   UNL     1       7.106   4.695  17.749  0.00  0.00    +0.000 A 
ATOM     21  N   UNL     1       7.621   4.671  16.516  0.00  0.00    +0.000 NA
ATOM     22  N   UNL     1       6.550   4.482  15.694  0.00  0.00    +0.000 N 
ATOM     23  C   UNL     1       5.383   4.364  16.419  0.00  0.00    +0.000 A 
BRANCH  22  24
ATOM     24  C   UNL     1       6.713   4.395  14.282  0.00  0.00    +0.000 A 
ATOM     25  C   UNL     1       5.929   3.491  13.546  0.00  0.00    +0.000 A 
ATOM     26  C   UNL     1       6.061   3.413  12.157  0.00  0.00    +0.000 A 
ATOM     27  C   UNL     1       6.977   4.228  11.494  0.00  0.00    +0.000 A 
ATOM     28  C   UNL     1       7.765   5.120  12.219  0.00  0.00    +0.000 A 
ATOM     29  C   UNL     1       7.637   5.206  13.609  0.00  0.00    +0.000 A 
ENDBRANCH  22  24
ENDBRANCH  17  19
ENDBRANCH   1  17
TORSDOF 6
ENDMDL
MODEL 6
REMARK VINA RESULT:      -8.1      0.933      1.259
REMARK  Name = 
REMARK  6 active torsions:
REMARK  status: ('A' for Active; 'I' for Inactive)
REMARK    1  A    between atoms: S_2  and  N_4
REMARK    2  A    between atoms: S_2  and  C_18
REMARK    3  A    between atoms: N_4  and  C_5
REMARK    4  A    between atoms: C_8  and  O_9
REMARK    5  A    between atoms: O_9  and  C_10
REMARK    6  A    between atoms: N_21  and  C_22
REMARK                            x       y       z     vdW  Elec       q    Type
REMARK                         _______ _______ _______ _____ _____    ______ ____
ROOT
ATOM      1  N   UNL     1       4.700   5.620  19.127  0.00  0.00    +0.000 N 
ATOM      2  H   UNL     1       5.183   5.004  19.782  0.00  0.00    +0.000 HD
ENDROOT
BRANCH   1   3
ATOM      3  C   UNL     1       5.180   5.467  17.784  0.00  0.00    +0.000 A 
ATOM      4  C   UNL     1       4.943   6.447  16.822  0.00  0.00    +0.000 A 
ATOM      5  C   UNL     1       5.503   6.310  15.549  0.00  0.00    +0.000 A 
ATOM      6  C   UNL     1       6.296   5.200  15.296  0.00  0.00    +0.000 A 
ATOM      7  N   UNL     1       6.511   4.215  16.200  0.00  0.00    +0.000 NA
ATOM      8  C   UNL     1       5.979   4.387  17.431  0.00  0.00    +0.000 A 
BRANCH   6   9
ATOM      9  O   UNL     1       6.922   5.131  14.057  0.00  0.00    +0.000 OA
BRANCH   9  10
ATOM     10  C   UNL     1       6.416   4.213  13.156  0.00  0.00    +0.000 A 
ATOM     11  C   UNL     1       7.334   3.485  12.397  0.00  0.00    +0.000 A 
ATOM     12  C   UNL     1       6.877   2.568  11.447  0.00  0.00    +0.000 A 
ATOM     13  C   UNL     1       5.508   2.374  11.261  0.00  0.00    +0.000 A 
ATOM     14  C   UNL     1       4.593   3.067  12.050  0.00  0.00    +0.000 A 
ATOM     15  C   UNL     1       5.048   3.964  13.014  0.00  0.00    +0.000 A 
ENDBRANCH   9  10
ENDBRANCH   6   9
ENDBRANCH   1   3
BRANCH   1  17
ATOM     16  O   UNL     1       2.476   4.898  18.035  0.00  0.00    +0.000 OA
ATOM     17  S   UNL     1       3.022   5.364  19.288  0.00  0.00    +0.000 S 
ATOM     18  O   UNL     1       2.809   4.685  20.546  0.00  0.00    +0.000 OA
BRANCH  17  19
ATOM     19  C   UNL     1       2.314   6.906  19.506  0.00  0.00    +0.000 A 
ATOM     20  C   UNL     1       2.221   7.924  18.558  0.00  0.00    +0.000 A 
ATOM     21  N   UNL     1       1.570   8.991  19.031  0.00  0.00    +0.000 NA
ATOM     22  N   UNL     1       1.266   8.673  20.321  0.00  0.00    +0.000 N 
ATOM     23  C   UNL     1       1.706   7.404  20.635  0.00  0.00    +0.000 A 
BRANCH  22  24
ATOM     24  C   UNL     1       0.554   9.582  21.155  0.00  0.00    +0.000 A 
ATOM     25  C   UNL     1       0.438  10.929  20.775  0.00  0.00    +0.000 A 
ATOM     26  C   UNL     1      -0.279  11.825  21.572  0.00  0.00    +0.000 A 
ATOM     27  C   UNL     1      -0.878  11.388  22.752  0.00  0.00    +0.000 A 
ATOM     28  C   UNL     1      -0.759  10.055  23.140  0.00  0.00    +0.000 A 
ATOM     29  C   UNL     1      -0.046   9.151  22.347  0.00  0.00    +0.000 A 
ENDBRANCH  22  24
ENDBRANCH  17  19
ENDBRANCH   1  17
TORSDOF 6
ENDMDL
MODEL 7
REMARK VINA RESULT:      -8.1      0.803      1.147
REMARK  Name = 
REMARK  6 active torsions:
REMARK  status: ('A' for Active; 'I' for Inactive)
REMARK    1  A    between atoms: S_2  and  N_4
REMARK    2  A    between atoms: S_2  and  C_18
REMARK    3  A    between atoms: N_4  and  C_5
REMARK    4  A    between atoms: C_8  and  O_9
REMARK    5  A    between atoms: O_9  and  C_10
REMARK    6  A    between atoms: N_21  and  C_22
REMARK                            x       y       z     vdW  Elec       q    Type
REMARK                         _______ _______ _______ _____ _____    ______ ____
ROOT
ATOM      1  N   UNL     1       4.156   5.795  19.798  0.00  0.00    +0.000 N 
ATOM      2  H   UNL     1       4.393   5.082  20.487  0.00  0.00    +0.000 HD
ENDROOT
BRANCH   1   3
ATOM      3  C   UNL     1       4.934   5.672  18.599  0.00  0.00    +0.000 A 
ATOM      4  C   UNL     1       4.894   6.658  17.614  0.00  0.00    +0.000 A 
ATOM      5  C   UNL     1       5.733   6.552  16.502  0.00  0.00    +0.000 A 
ATOM      6  C   UNL     1       6.595   5.467  16.430  0.00  0.00    +0.000 A 
ATOM      7  N   UNL     1       6.626   4.477  17.353  0.00  0.00    +0.000 NA
ATOM      8  C   UNL     1       5.823   4.618  18.432  0.00  0.00    +0.000 A 
BRANCH   6   9
ATOM      9  O   UNL     1       7.488   5.430  15.366  0.00  0.00    +0.000 OA
BRANCH   9  10
ATOM     10  C   UNL     1       7.055   4.802  14.213  0.00  0.00    +0.000 A 
ATOM     11  C   UNL     1       7.780   5.038  13.043  0.00  0.00    +0.000 A 
ATOM     12  C   UNL     1       7.366   4.457  11.841  0.00  0.00    +0.000 A 
ATOM     13  C   UNL     1       6.238   3.636  11.811  0.00  0.00    +0.000 A 
ATOM     14  C   UNL     1       5.542   3.365  12.987  0.00  0.00    +0.000 A 
ATOM     15  C   UNL     1       5.967   3.926  14.189  0.00  0.00    +0.000 A 
ENDBRANCH   9  10
ENDBRANCH   6   9
ENDBRANCH   1   3
BRANCH   1  17
ATOM     16  O   UNL     1       2.205   5.290  18.187  0.00  0.00    +0.000 OA
ATOM     17  S   UNL     1       2.473   5.743  19.531  0.00  0.00    +0.000 S 
ATOM     18  O   UNL     1       1.869   5.149  20.702  0.00  0.00    +0.000 OA
BRANCH  17  19
ATOM     19  C   UNL     1       1.929   7.365  19.542  0.00  0.00    +0.000 A 
ATOM     20  C   UNL     1       1.845   8.227  18.449  0.00  0.00    +0.000 A 
ATOM     21  N   UNL     1       1.337   9.416  18.784  0.00  0.00    +0.000 NA
ATOM     22  N   UNL     1       1.121   9.337  20.128  0.00  0.00    +0.000 N 
ATOM     23  C   UNL     1       1.469   8.095  20.614  0.00  0.00    +0.000 A 
BRANCH  22  24
ATOM     24  C   UNL     1       0.569  10.434  20.850  0.00  0.00    +0.000 A 
ATOM     25  C   UNL     1       1.108  11.720  20.678  0.00  0.00    +0.000 A 
ATOM     26  C   UNL     1       0.561  12.809  21.362  0.00  0.00    +0.000 A 
ATOM     27  C   UNL     1      -0.520  12.624  22.223  0.00  0.00    +0.000 A 
ATOM     28  C   UNL     1      -1.053  11.350  22.404  0.00  0.00    +0.000 A 
ATOM     29  C   UNL     1      -0.513  10.255  21.723  0.00  0.00    +0.000 A 
ENDBRANCH  22  24
ENDBRANCH  17  19
ENDBRANCH   1  17
TORSDOF 6
ENDMDL
MODEL 8
REMARK VINA RESULT:      -8.1      0.993      1.631
REMARK  Name = 
REMARK  6 active torsions:
REMARK  status: ('A' for Active; 'I' for Inactive)
REMARK    1  A    between atoms: S_2  and  N_4
REMARK    2  A    between atoms: S_2  and  C_18
REMARK    3  A    between atoms: N_4  and  C_5
REMARK    4  A    between atoms: C_8  and  O_9
REMARK    5  A    between atoms: O_9  and  C_10
REMARK    6  A    between atoms: N_21  and  C_22
REMARK                            x       y       z     vdW  Elec       q    Type
REMARK                         _______ _______ _______ _____ _____    ______ ____
ROOT
ATOM      1  N   UNL     1       5.066   5.330  18.870  0.00  0.00    +0.000 N 
ATOM      2  H   UNL     1       5.483   4.648  19.504  0.00  0.00    +0.000 HD
ENDROOT
BRANCH   1   3
ATOM      3  C   UNL     1       5.696   5.327  17.581  0.00  0.00    +0.000 A 
ATOM      4  C   UNL     1       6.546   4.289  17.201  0.00  0.00    +0.000 A 
ATOM      5  C   UNL     1       7.069   4.270  15.906  0.00  0.00    +0.000 A 
ATOM      6  C   UNL     1       6.705   5.286  15.034  0.00  0.00    +0.000 A 
ATOM      7  N   UNL     1       5.913   6.325  15.389  0.00  0.00    +0.000 NA
ATOM      8  C   UNL     1       5.399   6.304  16.640  0.00  0.00    +0.000 A 
BRANCH   6   9
ATOM      9  O   UNL     1       7.159   5.197  13.724  0.00  0.00    +0.000 OA
BRANCH   9  10
ATOM     10  C   UNL     1       6.596   4.211  12.936  0.00  0.00    +0.000 A 
ATOM     11  C   UNL     1       5.202   4.138  12.897  0.00  0.00    +0.000 A 
ATOM     12  C   UNL     1       4.581   3.137  12.144  0.00  0.00    +0.000 A 
ATOM     13  C   UNL     1       5.348   2.220  11.427  0.00  0.00    +0.000 A 
ATOM     14  C   UNL     1       6.737   2.321  11.430  0.00  0.00    +0.000 A 
ATOM     15  C   UNL     1       7.357   3.331  12.162  0.00  0.00    +0.000 A 
ENDBRANCH   9  10
ENDBRANCH   6   9
ENDBRANCH   1   3
BRANCH   1  17
ATOM     16  O   UNL     1       2.993   4.711  17.464  0.00  0.00    +0.000 OA
ATOM     17  S   UNL     1       3.386   5.051  18.811  0.00  0.00    +0.000 S 
ATOM     18  O   UNL     1       3.042   4.248  19.963  0.00  0.00    +0.000 OA
BRANCH  17  19
ATOM     19  C   UNL     1       2.632   6.560  19.099  0.00  0.00    +0.000 A 
ATOM     20  C   UNL     1       2.505   7.616  18.197  0.00  0.00    +0.000 A 
ATOM     21  N   UNL     1       1.824   8.641  18.718  0.00  0.00    +0.000 NA
ATOM     22  N   UNL     1       1.535   8.257  19.993  0.00  0.00    +0.000 N 
ATOM     23  C   UNL     1       2.014   6.990  20.250  0.00  0.00    +0.000 A 
BRANCH  22  24
ATOM     24  C   UNL     1       0.799   9.107  20.868  0.00  0.00    +0.000 A 
ATOM     25  C   UNL     1       0.689   8.775  22.229  0.00  0.00    +0.000 A 
ATOM     26  C   UNL     1      -0.009   9.612  23.103  0.00  0.00    +0.000 A 
ATOM     27  C   UNL     1      -0.605  10.779  22.628  0.00  0.00    +0.000 A 
ATOM     28  C   UNL     1      -0.508  11.109  21.278  0.00  0.00    +0.000 A 
ATOM     29  C   UNL     1       0.190  10.278  20.396  0.00  0.00    +0.000 A 
ENDBRANCH  22  24
ENDBRANCH  17  19
ENDBRANCH   1  17
TORSDOF 6
ENDMDL
MODEL 9
REMARK VINA RESULT:      -8.1      2.380      9.073
REMARK  Name = 
REMARK  6 active torsions:
REMARK  status: ('A' for Active; 'I' for Inactive)
REMARK    1  A    between atoms: S_2  and  N_4
REMARK    2  A    between atoms: S_2  and  C_18
REMARK    3  A    between atoms: N_4  and  C_5
REMARK    4  A    between atoms: C_8  and  O_9
REMARK    5  A    between atoms: O_9  and  C_10
REMARK    6  A    between atoms: N_21  and  C_22
REMARK                            x       y       z     vdW  Elec       q    Type
REMARK                         _______ _______ _______ _____ _____    ______ ____
ROOT
ATOM      1  N   UNL     1       2.878   5.852  19.999  0.00  0.00    +0.000 N 
ATOM      2  H   UNL     1       3.862   5.858  20.269  0.00  0.00    +0.000 HD
ENDROOT
BRANCH   1   3
ATOM      3  C   UNL     1       2.422   7.146  19.583  0.00  0.00    +0.000 A 
ATOM      4  C   UNL     1       2.708   7.631  18.308  0.00  0.00    +0.000 A 
ATOM      5  C   UNL     1       2.171   8.855  17.902  0.00  0.00    +0.000 A 
ATOM      6  C   UNL     1       1.351   9.540  18.788  0.00  0.00    +0.000 A 
ATOM      7  N   UNL     1       1.088   9.110  20.045  0.00  0.00    +0.000 NA
ATOM      8  C   UNL     1       1.599   7.910  20.402  0.00  0.00    +0.000 A 
BRANCH   6   9
ATOM      9  O   UNL     1       0.750  10.707  18.332  0.00  0.00    +0.000 OA
BRANCH   9  10
ATOM     10  C   UNL     1      -0.629  10.700  18.237  0.00  0.00    +0.000 A 
ATOM     11  C   UNL     1      -1.210   9.760  17.384  0.00  0.00    +0.000 A 
ATOM     12  C   UNL     1      -2.598   9.733  17.224  0.00  0.00    +0.000 A 
ATOM     13  C   UNL     1      -3.402  10.635  17.921  0.00  0.00    +0.000 A 
ATOM     14  C   UNL     1      -2.826  11.542  18.806  0.00  0.00    +0.000 A 
ATOM     15  C   UNL     1      -1.444  11.556  18.984  0.00  0.00    +0.000 A 
ENDBRANCH   9  10
ENDBRANCH   6   9
ENDBRANCH   1   3
BRANCH   1  17
ATOM     16  O   UNL     1       2.668   3.338  19.457  0.00  0.00    +0.000 OA
ATOM     17  S   UNL     1       2.652   4.636  18.826  0.00  0.00    +0.000 S 
ATOM     18  O   UNL     1       1.592   5.077  17.947  0.00  0.00    +0.000 OA
BRANCH  17  19
ATOM     19  C   UNL     1       4.054   4.642  17.845  0.00  0.00    +0.000 A 
ATOM     20  C   UNL     1       5.375   4.752  18.276  0.00  0.00    +0.000 A 
ATOM     21  N   UNL     1       6.242   4.679  17.262  0.00  0.00    +0.000 NA
ATOM     22  N   UNL     1       5.467   4.555  16.148  0.00  0.00    +0.000 N 
ATOM     23  C   UNL     1       4.128   4.525  16.476  0.00  0.00    +0.000 A 
BRANCH  22  24
ATOM     24  C   UNL     1       6.051   4.441  14.853  0.00  0.00    +0.000 A 
ATOM     25  C   UNL     1       5.441   3.627  13.885  0.00  0.00    +0.000 A 
ATOM     26  C   UNL     1       5.990   3.527  12.603  0.00  0.00    +0.000 A 
ATOM     27  C   UNL     1       7.150   4.230  12.282  0.00  0.00    +0.000 A 
ATOM     28  C   UNL     1       7.765   5.032  13.240  0.00  0.00    +0.000 A 
ATOM     29  C   UNL     1       7.221   5.140  14.524  0.00  0.00    +0.000 A 
ENDBRANCH  22  24
ENDBRANCH  17  19
ENDBRANCH   1  17
TORSDOF 6
ENDMDL
