MODEL 1
REMARK VINA RESULT:      -9.1      0.000      0.000
REMARK  Name = 
REMARK  4 active torsions:
REMARK  status: ('A' for Active; 'I' for Inactive)
REMARK    1  A    between atoms: C_1  and  C_2
REMARK    2  A    between atoms: C_5  and  C_6
REMARK    3  A    between atoms: C_20  and  S_21
REMARK    4  A    between atoms: S_21  and  N_24
REMARK                            x       y       z     vdW  Elec       q    Type
REMARK                         _______ _______ _______ _____ _____    ______ ____
ROOT
ATOM      1  C   UNL     1       6.149   4.647  15.738  0.00  0.00    +0.000 C 
ATOM      2  C   UNL     1       5.121   5.483  16.447  0.00  0.00    +0.000 A 
ATOM      3  C   UNL     1       5.042   6.824  16.008  0.00  0.00    +0.000 A 
ATOM      4  C   UNL     1       4.163   7.741  16.583  0.00  0.00    +0.000 A 
ATOM      5  C   UNL     1       3.333   7.333  17.626  0.00  0.00    +0.000 A 
ATOM      6  C   UNL     1       3.372   6.011  18.060  0.00  0.00    +0.000 A 
ATOM      7  C   UNL     1       4.246   5.075  17.479  0.00  0.00    +0.000 A 
ENDROOT
BRANCH   5   8
ATOM      8  C   UNL     1       2.405   8.315  18.231  0.00  0.00    +0.000 C 
ATOM      9  O   UNL     1       2.068   9.270  17.534  0.00  0.00    +0.000 OA
ATOM     10  N   UNL     1       2.033   8.036  19.530  0.00  0.00    +0.000 N 
ATOM     11  C   UNL     1       1.181   8.834  20.301  0.00  0.00    +0.000 A 
ATOM     12  C   UNL     1       0.908   8.423  21.600  0.00  0.00    +0.000 A 
ATOM     13  C   UNL     1       0.132   9.249  22.409  0.00  0.00    +0.000 A 
ATOM     14  C   UNL     1      -0.356  10.456  21.896  0.00  0.00    +0.000 A 
ATOM     15  C   UNL     1      -1.117  11.347  22.672  0.00  0.00    +0.000 A 
ATOM     16  C   UNL     1      -1.591  12.534  22.112  0.00  0.00    +0.000 A 
ATOM     17  C   UNL     1      -1.313  12.832  20.782  0.00  0.00    +0.000 A 
ATOM     18  C   UNL     1      -0.548  11.945  20.019  0.00  0.00    +0.000 A 
ATOM     19  C   UNL     1      -0.059  10.766  20.557  0.00  0.00    +0.000 A 
ATOM     20  N   UNL     1       0.685   9.968  19.788  0.00  0.00    +0.000 NA
ATOM     21  H   UNL     1       2.459   7.255  20.009  0.00  0.00    +0.000 HD
ENDBRANCH   5   8
BRANCH   7  22
ATOM     22  S   UNL     1       4.243   3.475  18.314  0.00  0.00    +0.000 S 
ATOM     23  O   UNL     1       3.961   2.458  17.334  0.00  0.00    +0.000 OA
ATOM     24  O   UNL     1       5.473   3.426  19.090  0.00  0.00    +0.000 OA
BRANCH  22  25
ATOM     25  N   UNL     1       2.956   3.535  19.438  0.00  0.00    +0.000 NA
ATOM     26  C   UNL     1       1.634   3.050  18.995  0.00  0.00    +0.000 C 
ATOM     27  C   UNL     1       0.577   2.906  20.081  0.00  0.00    +0.000 C 
ATOM     28  C   UNL     1       1.124   2.470  21.425  0.00  0.00    +0.000 C 
ATOM     29  C   UNL     1       2.230   3.404  21.865  0.00  0.00    +0.000 C 
ATOM     30  C   UNL     1       3.352   3.554  20.853  0.00  0.00    +0.000 C 
ENDBRANCH  22  25
ENDBRANCH   7  22
TORSDOF 3
ENDMDL
MODEL 2
REMARK VINA RESULT:      -8.8      0.540      1.065
REMARK  Name = 
REMARK  4 active torsions:
REMARK  status: ('A' for Active; 'I' for Inactive)
REMARK    1  A    between atoms: C_1  and  C_2
REMARK    2  A    between atoms: C_5  and  C_6
REMARK    3  A    between atoms: C_20  and  S_21
REMARK    4  A    between atoms: S_21  and  N_24
REMARK                            x       y       z     vdW  Elec       q    Type
REMARK                         _______ _______ _______ _____ _____    ______ ____
ROOT
ATOM      1  C   UNL     1       6.378   4.477  15.648  0.00  0.00    +0.000 C 
ATOM      2  C   UNL     1       5.329   5.293  16.351  0.00  0.00    +0.000 A 
ATOM      3  C   UNL     1       5.213   6.626  15.897  0.00  0.00    +0.000 A 
ATOM      4  C   UNL     1       4.310   7.525  16.464  0.00  0.00    +0.000 A 
ATOM      5  C   UNL     1       3.494   7.106  17.514  0.00  0.00    +0.000 A 
ATOM      6  C   UNL     1       3.570   5.791  17.962  0.00  0.00    +0.000 A 
ATOM      7  C   UNL     1       4.468   4.872  17.389  0.00  0.00    +0.000 A 
ENDROOT
BRANCH   5   8
ATOM      8  C   UNL     1       2.541   8.070  18.111  0.00  0.00    +0.000 C 
ATOM      9  O   UNL     1       2.156   8.993  17.395  0.00  0.00    +0.000 OA
ATOM     10  N   UNL     1       2.202   7.811  19.423  0.00  0.00    +0.000 N 
ATOM     11  C   UNL     1       1.334   8.597  20.189  0.00  0.00    +0.000 A 
ATOM     12  C   UNL     1       1.098   8.210  21.502  0.00  0.00    +0.000 A 
ATOM     13  C   UNL     1       0.307   9.028  22.304  0.00  0.00    +0.000 A 
ATOM     14  C   UNL     1      -0.234  10.203  21.770  0.00  0.00    +0.000 A 
ATOM     15  C   UNL     1      -1.014  11.085  22.536  0.00  0.00    +0.000 A 
ATOM     16  C   UNL     1      -1.541  12.239  21.955  0.00  0.00    +0.000 A 
ATOM     17  C   UNL     1      -1.297  12.512  20.613  0.00  0.00    +0.000 A 
ATOM     18  C   UNL     1      -0.514  11.635  19.859  0.00  0.00    +0.000 A 
ATOM     19  C   UNL     1       0.028  10.489  20.417  0.00  0.00    +0.000 A 
ATOM     20  N   UNL     1       0.788   9.699  19.655  0.00  0.00    +0.000 NA
ATOM     21  H   UNL     1       2.665   7.059  19.913  0.00  0.00    +0.000 HD
ENDBRANCH   5   8
BRANCH   7  22
ATOM     22  S   UNL     1       4.510   3.283  18.242  0.00  0.00    +0.000 S 
ATOM     23  O   UNL     1       4.308   2.244  17.265  0.00  0.00    +0.000 OA
ATOM     24  O   UNL     1       5.715   3.298  19.058  0.00  0.00    +0.000 OA
BRANCH  22  25
ATOM     25  N   UNL     1       3.185   3.294  19.321  0.00  0.00    +0.000 NA
ATOM     26  C   UNL     1       3.238   4.226  20.465  0.00  0.00    +0.000 C 
ATOM     27  C   UNL     1       1.954   4.371  21.269  0.00  0.00    +0.000 C 
ATOM     28  C   UNL     1       0.689   4.272  20.441  0.00  0.00    +0.000 C 
ATOM     29  C   UNL     1       0.688   2.987  19.644  0.00  0.00    +0.000 C 
ATOM     30  C   UNL     1       1.916   2.799  18.771  0.00  0.00    +0.000 C 
ENDBRANCH  22  25
ENDBRANCH   7  22
TORSDOF 3
ENDMDL
MODEL 3
REMARK VINA RESULT:      -8.6      0.831      1.257
REMARK  Name = 
REMARK  4 active torsions:
REMARK  status: ('A' for Active; 'I' for Inactive)
REMARK    1  A    between atoms: C_1  and  C_2
REMARK    2  A    between atoms: C_5  and  C_6
REMARK    3  A    between atoms: C_20  and  S_21
REMARK    4  A    between atoms: S_21  and  N_24
REMARK                            x       y       z     vdW  Elec       q    Type
REMARK                         _______ _______ _______ _____ _____    ______ ____
ROOT
ATOM      1  C   UNL     1       6.219   4.365  16.352  0.00  0.00    +0.000 C 
ATOM      2  C   UNL     1       5.080   5.178  16.902  0.00  0.00    +0.000 A 
ATOM      3  C   UNL     1       5.340   6.562  17.014  0.00  0.00    +0.000 A 
ATOM      4  C   UNL     1       4.401   7.452  17.534  0.00  0.00    +0.000 A 
ATOM      5  C   UNL     1       3.164   6.971  17.962  0.00  0.00    +0.000 A 
ATOM      6  C   UNL     1       2.872   5.616  17.837  0.00  0.00    +0.000 A 
ATOM      7  C   UNL     1       3.808   4.711  17.303  0.00  0.00    +0.000 A 
ENDROOT
BRANCH   5   8
ATOM      8  C   UNL     1       2.175   7.924  18.515  0.00  0.00    +0.000 C 
ATOM      9  O   UNL     1       1.598   8.658  17.715  0.00  0.00    +0.000 OA
ATOM     10  N   UNL     1       2.028   7.875  19.886  0.00  0.00    +0.000 N 
ATOM     11  C   UNL     1       1.165   8.694  20.622  0.00  0.00    +0.000 A 
ATOM     12  C   UNL     1       1.135   8.529  22.001  0.00  0.00    +0.000 A 
ATOM     13  C   UNL     1       0.348   9.394  22.756  0.00  0.00    +0.000 A 
ATOM     14  C   UNL     1      -0.394  10.391  22.114  0.00  0.00    +0.000 A 
ATOM     15  C   UNL     1      -1.183  11.314  22.822  0.00  0.00    +0.000 A 
ATOM     16  C   UNL     1      -1.913  12.283  22.135  0.00  0.00    +0.000 A 
ATOM     17  C   UNL     1      -1.864  12.332  20.746  0.00  0.00    +0.000 A 
ATOM     18  C   UNL     1      -1.072  11.417  20.048  0.00  0.00    +0.000 A 
ATOM     19  C   UNL     1      -0.330  10.453  20.710  0.00  0.00    +0.000 A 
ATOM     20  N   UNL     1       0.427   9.619  19.993  0.00  0.00    +0.000 NA
ATOM     21  H   UNL     1       2.635   7.275  20.426  0.00  0.00    +0.000 HD
ENDBRANCH   5   8
BRANCH   7  22
ATOM     22  S   UNL     1       3.276   2.990  17.397  0.00  0.00    +0.000 S 
ATOM     23  O   UNL     1       2.238   2.786  16.420  0.00  0.00    +0.000 OA
ATOM     24  O   UNL     1       4.493   2.192  17.353  0.00  0.00    +0.000 OA
BRANCH  22  25
ATOM     25  N   UNL     1       2.614   2.788  18.960  0.00  0.00    +0.000 NA
ATOM     26  C   UNL     1       3.552   2.688  20.096  0.00  0.00    +0.000 C 
ATOM     27  C   UNL     1       2.928   2.738  21.484  0.00  0.00    +0.000 C 
ATOM     28  C   UNL     1       1.720   3.645  21.588  0.00  0.00    +0.000 C 
ATOM     29  C   UNL     1       0.692   3.265  20.545  0.00  0.00    +0.000 C 
ATOM     30  C   UNL     1       1.228   3.249  19.125  0.00  0.00    +0.000 C 
ENDBRANCH  22  25
ENDBRANCH   7  22
TORSDOF 3
ENDMDL
MODEL 4
REMARK VINA RESULT:      -8.6      3.299      9.097
REMARK  Name = 
REMARK  4 active torsions:
REMARK  status: ('A' for Active; 'I' for Inactive)
REMARK    1  A    between atoms: C_1  and  C_2
REMARK    2  A    between atoms: C_5  and  C_6
REMARK    3  A    between atoms: C_20  and  S_21
REMARK    4  A    between atoms: S_21  and  N_24
REMARK                            x       y       z     vdW  Elec       q    Type
REMARK                         _______ _______ _______ _____ _____    ______ ____
ROOT
ATOM      1  C   UNL     1      -1.635  11.505  22.805  0.00  0.00    +0.000 C 
ATOM      2  C   UNL     1      -0.784  10.836  21.762  0.00  0.00    +0.000 A 
ATOM      3  C   UNL     1       0.021   9.778  22.243  0.00  0.00    +0.000 A 
ATOM      4  C   UNL     1       0.891   9.074  21.413  0.00  0.00    +0.000 A 
ATOM      5  C   UNL     1       0.980   9.418  20.064  0.00  0.00    +0.000 A 
ATOM      6  C   UNL     1       0.179  10.438  19.559  0.00  0.00    +0.000 A 
ATOM      7  C   UNL     1      -0.711  11.147  20.385  0.00  0.00    +0.000 A 
ENDROOT
BRANCH   5   8
ATOM      8  C   UNL     1       1.910   8.665  19.192  0.00  0.00    +0.000 C 
ATOM      9  O   UNL     1       2.339   9.245  18.196  0.00  0.00    +0.000 OA
ATOM     10  N   UNL     1       2.179   7.377  19.608  0.00  0.00    +0.000 N 
ATOM     11  C   UNL     1       3.014   6.481  18.931  0.00  0.00    +0.000 A 
ATOM     12  C   UNL     1       3.178   5.213  19.473  0.00  0.00    +0.000 A 
ATOM     13  C   UNL     1       3.935   4.282  18.767  0.00  0.00    +0.000 A 
ATOM     14  C   UNL     1       4.513   4.645  17.546  0.00  0.00    +0.000 A 
ATOM     15  C   UNL     1       5.261   3.742  16.772  0.00  0.00    +0.000 A 
ATOM     16  C   UNL     1       5.826   4.155  15.565  0.00  0.00    +0.000 A 
ATOM     17  C   UNL     1       5.653   5.465  15.133  0.00  0.00    +0.000 A 
ATOM     18  C   UNL     1       4.902   6.356  15.903  0.00  0.00    +0.000 A 
ATOM     19  C   UNL     1       4.323   5.965  17.099  0.00  0.00    +0.000 A 
ATOM     20  N   UNL     1       3.596   6.852  17.782  0.00  0.00    +0.000 NA
ATOM     21  H   UNL     1       1.685   7.003  20.406  0.00  0.00    +0.000 HD
ENDBRANCH   5   8
BRANCH   7  22
ATOM     22  S   UNL     1      -1.516  12.530  19.553  0.00  0.00    +0.000 S 
ATOM     23  O   UNL     1      -1.530  13.651  20.457  0.00  0.00    +0.000 OA
ATOM     24  O   UNL     1      -0.872  12.645  18.253  0.00  0.00    +0.000 OA
BRANCH  22  25
ATOM     25  N   UNL     1      -3.125  12.032  19.262  0.00  0.00    +0.000 NA
ATOM     26  C   UNL     1      -4.192  12.638  20.082  0.00  0.00    +0.000 C 
ATOM     27  C   UNL     1      -5.620  12.344  19.645  0.00  0.00    +0.000 C 
ATOM     28  C   UNL     1      -5.799  12.234  18.145  0.00  0.00    +0.000 C 
ATOM     29  C   UNL     1      -4.837  11.212  17.579  0.00  0.00    +0.000 C 
ATOM     30  C   UNL     1      -3.383  11.473  17.927  0.00  0.00    +0.000 C 
ENDBRANCH  22  25
ENDBRANCH   7  22
TORSDOF 3
ENDMDL
MODEL 5
REMARK VINA RESULT:      -8.6      1.112      1.961
REMARK  Name = 
REMARK  4 active torsions:
REMARK  status: ('A' for Active; 'I' for Inactive)
REMARK    1  A    between atoms: C_1  and  C_2
REMARK    2  A    between atoms: C_5  and  C_6
REMARK    3  A    between atoms: C_20  and  S_21
REMARK    4  A    between atoms: S_21  and  N_24
REMARK                            x       y       z     vdW  Elec       q    Type
REMARK                         _______ _______ _______ _____ _____    ______ ____
ROOT
ATOM      1  C   UNL     1       5.628   5.030  15.556  0.00  0.00    +0.000 C 
ATOM      2  C   UNL     1       4.722   5.664  16.575  0.00  0.00    +0.000 A 
ATOM      3  C   UNL     1       4.424   7.024  16.338  0.00  0.00    +0.000 A 
ATOM      4  C   UNL     1       3.623   7.768  17.204  0.00  0.00    +0.000 A 
ATOM      5  C   UNL     1       3.097   7.161  18.343  0.00  0.00    +0.000 A 
ATOM      6  C   UNL     1       3.353   5.814  18.586  0.00  0.00    +0.000 A 
ATOM      7  C   UNL     1       4.150   5.051  17.712  0.00  0.00    +0.000 A 
ENDROOT
BRANCH   5   8
ATOM      8  C   UNL     1       2.251   7.961  19.257  0.00  0.00    +0.000 C 
ATOM      9  O   UNL     1       2.159   7.572  20.420  0.00  0.00    +0.000 OA
ATOM     10  N   UNL     1       1.652   9.060  18.677  0.00  0.00    +0.000 N 
ATOM     11  C   UNL     1       0.800   9.946  19.346  0.00  0.00    +0.000 A 
ATOM     12  C   UNL     1       0.267  11.004  18.620  0.00  0.00    +0.000 A 
ATOM     13  C   UNL     1      -0.651  11.843  19.246  0.00  0.00    +0.000 A 
ATOM     14  C   UNL     1      -1.003  11.608  20.580  0.00  0.00    +0.000 A 
ATOM     15  C   UNL     1      -1.946  12.399  21.257  0.00  0.00    +0.000 A 
ATOM     16  C   UNL     1      -2.256  12.132  22.591  0.00  0.00    +0.000 A 
ATOM     17  C   UNL     1      -1.626  11.083  23.251  0.00  0.00    +0.000 A 
ATOM     18  C   UNL     1      -0.695  10.295  22.570  0.00  0.00    +0.000 A 
ATOM     19  C   UNL     1      -0.379  10.536  21.243  0.00  0.00    +0.000 A 
ATOM     20  N   UNL     1       0.500   9.735  20.635  0.00  0.00    +0.000 NA
ATOM     21  H   UNL     1       1.752   9.209  17.683  0.00  0.00    +0.000 HD
ENDBRANCH   5   8
BRANCH   7  22
ATOM     22  S   UNL     1       4.483   3.384  18.317  0.00  0.00    +0.000 S 
ATOM     23  O   UNL     1       4.669   2.523  17.178  0.00  0.00    +0.000 OA
ATOM     24  O   UNL     1       5.535   3.522  19.313  0.00  0.00    +0.000 OA
BRANCH  22  25
ATOM     25  N   UNL     1       3.075   2.899  19.155  0.00  0.00    +0.000 NA
ATOM     26  C   UNL     1       3.037   3.108  20.615  0.00  0.00    +0.000 C 
ATOM     27  C   UNL     1       1.692   2.877  21.290  0.00  0.00    +0.000 C 
ATOM     28  C   UNL     1       0.499   3.274  20.445  0.00  0.00    +0.000 C 
ATOM     29  C   UNL     1       0.558   2.581  19.102  0.00  0.00    +0.000 C 
ATOM     30  C   UNL     1       1.852   2.814  18.343  0.00  0.00    +0.000 C 
ENDBRANCH  22  25
ENDBRANCH   7  22
TORSDOF 3
ENDMDL
MODEL 6
REMARK VINA RESULT:      -8.5      1.232      2.023
REMARK  Name = 
REMARK  4 active torsions:
REMARK  status: ('A' for Active; 'I' for Inactive)
REMARK    1  A    between atoms: C_1  and  C_2
REMARK    2  A    between atoms: C_5  and  C_6
REMARK    3  A    between atoms: C_20  and  S_21
REMARK    4  A    between atoms: S_21  and  N_24
REMARK                            x       y       z     vdW  Elec       q    Type
REMARK                         _______ _______ _______ _____ _____    ______ ____
ROOT
ATOM      1  C   UNL     1       5.560   4.436  15.596  0.00  0.00    +0.000 C 
ATOM      2  C   UNL     1       4.630   5.140  16.544  0.00  0.00    +0.000 A 
ATOM      3  C   UNL     1       4.835   6.534  16.649  0.00  0.00    +0.000 A 
ATOM      4  C   UNL     1       4.079   7.331  17.507  0.00  0.00    +0.000 A 
ATOM      5  C   UNL     1       3.089   6.743  18.294  0.00  0.00    +0.000 A 
ATOM      6  C   UNL     1       2.849   5.376  18.191  0.00  0.00    +0.000 A 
ATOM      7  C   UNL     1       3.597   4.565  17.319  0.00  0.00    +0.000 A 
ENDROOT
BRANCH   5   8
ATOM      8  C   UNL     1       2.294   7.599  19.205  0.00  0.00    +0.000 C 
ATOM      9  O   UNL     1       2.192   7.230  20.373  0.00  0.00    +0.000 OA
ATOM     10  N   UNL     1       1.749   8.721  18.615  0.00  0.00    +0.000 N 
ATOM     11  C   UNL     1       0.951   9.659  19.279  0.00  0.00    +0.000 A 
ATOM     12  C   UNL     1       0.468  10.734  18.544  0.00  0.00    +0.000 A 
ATOM     13  C   UNL     1      -0.398  11.628  19.167  0.00  0.00    +0.000 A 
ATOM     14  C   UNL     1      -0.750  11.430  20.506  0.00  0.00    +0.000 A 
ATOM     15  C   UNL     1      -1.644  12.279  21.181  0.00  0.00    +0.000 A 
ATOM     16  C   UNL     1      -1.956  12.045  22.521  0.00  0.00    +0.000 A 
ATOM     17  C   UNL     1      -1.375  10.972  23.189  0.00  0.00    +0.000 A 
ATOM     18  C   UNL     1      -0.494  10.127  22.511  0.00  0.00    +0.000 A 
ATOM     19  C   UNL     1      -0.178  10.334  21.178  0.00  0.00    +0.000 A 
ATOM     20  N   UNL     1       0.652   9.481  20.574  0.00  0.00    +0.000 NA
ATOM     21  H   UNL     1       1.848   8.852  17.618  0.00  0.00    +0.000 HD
ENDBRANCH   5   8
BRANCH   7  22
ATOM     22  S   UNL     1       3.227   2.807  17.479  0.00  0.00    +0.000 S 
ATOM     23  O   UNL     1       2.198   2.476  16.526  0.00  0.00    +0.000 OA
ATOM     24  O   UNL     1       4.510   2.121  17.441  0.00  0.00    +0.000 OA
BRANCH  22  25
ATOM     25  N   UNL     1       2.606   2.600  19.058  0.00  0.00    +0.000 NA
ATOM     26  C   UNL     1       3.571   2.554  20.175  0.00  0.00    +0.000 C 
ATOM     27  C   UNL     1       2.975   2.598  21.575  0.00  0.00    +0.000 C 
ATOM     28  C   UNL     1       1.732   3.456  21.693  0.00  0.00    +0.000 C 
ATOM     29  C   UNL     1       0.699   3.020  20.678  0.00  0.00    +0.000 C 
ATOM     30  C   UNL     1       1.206   3.006  19.247  0.00  0.00    +0.000 C 
ENDBRANCH  22  25
ENDBRANCH   7  22
TORSDOF 3
ENDMDL
MODEL 7
REMARK VINA RESULT:      -8.4      3.226      8.909
REMARK  Name = 
REMARK  4 active torsions:
REMARK  status: ('A' for Active; 'I' for Inactive)
REMARK    1  A    between atoms: C_1  and  C_2
REMARK    2  A    between atoms: C_5  and  C_6
REMARK    3  A    between atoms: C_20  and  S_21
REMARK    4  A    between atoms: S_21  and  N_24
REMARK                            x       y       z     vdW  Elec       q    Type
REMARK                         _______ _______ _______ _____ _____    ______ ____
ROOT
ATOM      1  C   UNL     1      -1.507  12.184  23.209  0.00  0.00    +0.000 C 
ATOM      2  C   UNL     1      -0.789  11.202  22.324  0.00  0.00    +0.000 A 
ATOM      3  C   UNL     1      -0.370  10.018  22.971  0.00  0.00    +0.000 A 
ATOM      4  C   UNL     1       0.337   9.019  22.303  0.00  0.00    +0.000 A 
ATOM      5  C   UNL     1       0.647   9.186  20.953  0.00  0.00    +0.000 A 
ATOM      6  C   UNL     1       0.223  10.331  20.286  0.00  0.00    +0.000 A 
ATOM      7  C   UNL     1      -0.501  11.339  20.948  0.00  0.00    +0.000 A 
ENDROOT
BRANCH   5   8
ATOM      8  C   UNL     1       1.400   8.120  20.254  0.00  0.00    +0.000 C 
ATOM      9  O   UNL     1       1.920   8.414  19.180  0.00  0.00    +0.000 OA
ATOM     10  N   UNL     1       1.417   6.902  20.903  0.00  0.00    +0.000 N 
ATOM     11  C   UNL     1       2.052   5.753  20.419  0.00  0.00    +0.000 A 
ATOM     12  C   UNL     1       1.972   4.598  21.187  0.00  0.00    +0.000 A 
ATOM     13  C   UNL     1       2.523   3.424  20.679  0.00  0.00    +0.000 A 
ATOM     14  C   UNL     1       3.145   3.439  19.425  0.00  0.00    +0.000 A 
ATOM     15  C   UNL     1       3.691   2.282  18.845  0.00  0.00    +0.000 A 
ATOM     16  C   UNL     1       4.310   2.350  17.597  0.00  0.00    +0.000 A 
ATOM     17  C   UNL     1       4.391   3.567  16.929  0.00  0.00    +0.000 A 
ATOM     18  C   UNL     1       3.838   4.712  17.508  0.00  0.00    +0.000 A 
ATOM     19  C   UNL     1       3.210   4.666  18.741  0.00  0.00    +0.000 A 
ATOM     20  N   UNL     1       2.680   5.788  19.235  0.00  0.00    +0.000 NA
ATOM     21  H   UNL     1       0.871   6.784  21.744  0.00  0.00    +0.000 HD
ENDBRANCH   5   8
BRANCH   7  22
ATOM     22  S   UNL     1      -0.794  12.799  19.929  0.00  0.00    +0.000 S 
ATOM     23  O   UNL     1      -1.112  13.899  20.803  0.00  0.00    +0.000 OA
ATOM     24  O   UNL     1       0.340  12.887  19.020  0.00  0.00    +0.000 OA
BRANCH  22  25
ATOM     25  N   UNL     1      -2.163  12.437  18.972  0.00  0.00    +0.000 NA
ATOM     26  C   UNL     1      -1.942  11.731  17.695  0.00  0.00    +0.000 C 
ATOM     27  C   UNL     1      -3.190  11.226  16.985  0.00  0.00    +0.000 C 
ATOM     28  C   UNL     1      -4.289  10.760  17.918  0.00  0.00    +0.000 C 
ATOM     29  C   UNL     1      -4.631  11.854  18.906  0.00  0.00    +0.000 C 
ATOM     30  C   UNL     1      -3.441  12.369  19.695  0.00  0.00    +0.000 C 
ENDBRANCH  22  25
ENDBRANCH   7  22
TORSDOF 3
ENDMDL
MODEL 8
REMARK VINA RESULT:      -8.4      3.486      9.185
REMARK  Name = 
REMARK  4 active torsions:
REMARK  status: ('A' for Active; 'I' for Inactive)
REMARK    1  A    between atoms: C_1  and  C_2
REMARK    2  A    between atoms: C_5  and  C_6
REMARK    3  A    between atoms: C_20  and  S_21
REMARK    4  A    between atoms: S_21  and  N_24
REMARK                            x       y       z     vdW  Elec       q    Type
REMARK                         _______ _______ _______ _____ _____    ______ ____
ROOT
ATOM      1  C   UNL     1      -1.910  12.288  23.212  0.00  0.00    +0.000 C 
ATOM      2  C   UNL     1      -1.147  11.366  22.301  0.00  0.00    +0.000 A 
ATOM      3  C   UNL     1      -0.430  10.342  22.959  0.00  0.00    +0.000 A 
ATOM      4  C   UNL     1       0.354   9.422  22.264  0.00  0.00    +0.000 A 
ATOM      5  C   UNL     1       0.442   9.509  20.874  0.00  0.00    +0.000 A 
ATOM      6  C   UNL     1      -0.275  10.493  20.199  0.00  0.00    +0.000 A 
ATOM      7  C   UNL     1      -1.078  11.418  20.890  0.00  0.00    +0.000 A 
ENDROOT
BRANCH   5   8
ATOM      8  C   UNL     1       1.280   8.529  20.146  0.00  0.00    +0.000 C 
ATOM      9  O   UNL     1       1.796   8.905  19.095  0.00  0.00    +0.000 OA
ATOM     10  N   UNL     1       1.372   7.290  20.745  0.00  0.00    +0.000 N 
ATOM     11  C   UNL     1       2.094   6.209  20.227  0.00  0.00    +0.000 A 
ATOM     12  C   UNL     1       2.084   5.019  20.944  0.00  0.00    +0.000 A 
ATOM     13  C   UNL     1       2.724   3.910  20.399  0.00  0.00    +0.000 A 
ATOM     14  C   UNL     1       3.364   4.021  19.160  0.00  0.00    +0.000 A 
ATOM     15  C   UNL     1       4.000   2.930  18.543  0.00  0.00    +0.000 A 
ATOM     16  C   UNL     1       4.633   3.094  17.311  0.00  0.00    +0.000 A 
ATOM     17  C   UNL     1       4.639   4.341  16.696  0.00  0.00    +0.000 A 
ATOM     18  C   UNL     1       3.998   5.420  17.310  0.00  0.00    +0.000 A 
ATOM     19  C   UNL     1       3.354   5.278  18.528  0.00  0.00    +0.000 A 
ATOM     20  N   UNL     1       2.738   6.338  19.058  0.00  0.00    +0.000 NA
ATOM     21  H   UNL     1       0.822   7.098  21.570  0.00  0.00    +0.000 HD
ENDBRANCH   5   8
BRANCH   7  22
ATOM     22  S   UNL     1      -1.773  12.699  19.827  0.00  0.00    +0.000 S 
ATOM     23  O   UNL     1      -1.821  13.928  20.578  0.00  0.00    +0.000 OA
ATOM     24  O   UNL     1      -1.029  12.631  18.578  0.00  0.00    +0.000 OA
BRANCH  22  25
ATOM     25  N   UNL     1      -3.370  12.202  19.475  0.00  0.00    +0.000 NA
ATOM     26  C   UNL     1      -4.475  12.895  20.166  0.00  0.00    +0.000 C 
ATOM     27  C   UNL     1      -5.877  12.585  19.663  0.00  0.00    +0.000 C 
ATOM     28  C   UNL     1      -5.961  12.345  18.170  0.00  0.00    +0.000 C 
ATOM     29  C   UNL     1      -4.987  11.263  17.760  0.00  0.00    +0.000 C 
ATOM     30  C   UNL     1      -3.553  11.531  18.180  0.00  0.00    +0.000 C 
ENDBRANCH  22  25
ENDBRANCH   7  22
TORSDOF 3
ENDMDL
MODEL 9
REMARK VINA RESULT:      -8.4      3.512      9.042
REMARK  Name = 
REMARK  4 active torsions:
REMARK  status: ('A' for Active; 'I' for Inactive)
REMARK    1  A    between atoms: C_1  and  C_2
REMARK    2  A    between atoms: C_5  and  C_6
REMARK    3  A    between atoms: C_20  and  S_21
REMARK    4  A    between atoms: S_21  and  N_24
REMARK                            x       y       z     vdW  Elec       q    Type
REMARK                         _______ _______ _______ _____ _____    ______ ____
ROOT
ATOM      1  C   UNL     1      -2.331  12.670  23.197  0.00  0.00    +0.000 C 
ATOM      2  C   UNL     1      -1.534  11.623  22.471  0.00  0.00    +0.000 A 
ATOM      3  C   UNL     1      -0.914  10.666  23.305  0.00  0.00    +0.000 A 
ATOM      4  C   UNL     1      -0.114   9.645  22.793  0.00  0.00    +0.000 A 
ATOM      5  C   UNL     1       0.091   9.560  21.416  0.00  0.00    +0.000 A 
ATOM      6  C   UNL     1      -0.530  10.474  20.570  0.00  0.00    +0.000 A 
ATOM      7  C   UNL     1      -1.350  11.500  21.075  0.00  0.00    +0.000 A 
ENDROOT
BRANCH   5   8
ATOM      8  C   UNL     1       0.945   8.474  20.883  0.00  0.00    +0.000 C 
ATOM      9  O   UNL     1       1.112   7.490  21.601  0.00  0.00    +0.000 OA
ATOM     10  N   UNL     1       1.464   8.710  19.627  0.00  0.00    +0.000 N 
ATOM     11  C   UNL     1       2.308   7.832  18.939  0.00  0.00    +0.000 A 
ATOM     12  C   UNL     1       2.757   8.217  17.681  0.00  0.00    +0.000 A 
ATOM     13  C   UNL     1       3.666   7.395  17.020  0.00  0.00    +0.000 A 
ATOM     14  C   UNL     1       4.093   6.210  17.628  0.00  0.00    +0.000 A 
ATOM     15  C   UNL     1       5.033   5.355  17.026  0.00  0.00    +0.000 A 
ATOM     16  C   UNL     1       5.420   4.178  17.668  0.00  0.00    +0.000 A 
ATOM     17  C   UNL     1       4.871   3.849  18.902  0.00  0.00    +0.000 A 
ATOM     18  C   UNL     1       3.944   4.708  19.499  0.00  0.00    +0.000 A 
ATOM     19  C   UNL     1       3.552   5.886  18.885  0.00  0.00    +0.000 A 
ATOM     20  N   UNL     1       2.680   6.679  19.512  0.00  0.00    +0.000 NA
ATOM     21  H   UNL     1       1.309   9.607  19.189  0.00  0.00    +0.000 HD
ENDBRANCH   5   8
BRANCH   7  22
ATOM     22  S   UNL     1      -1.905  12.662  19.812  0.00  0.00    +0.000 S 
ATOM     23  O   UNL     1      -2.863  13.554  20.413  0.00  0.00    +0.000 OA
ATOM     24  O   UNL     1      -0.697  13.190  19.194  0.00  0.00    +0.000 OA
BRANCH  22  25
ATOM     25  N   UNL     1      -2.693  11.721  18.623  0.00  0.00    +0.000 NA
ATOM     26  C   UNL     1      -4.169  11.727  18.609  0.00  0.00    +0.000 C 
ATOM     27  C   UNL     1      -4.829  11.067  17.406  0.00  0.00    +0.000 C 
ATOM     28  C   UNL     1      -4.067  11.240  16.108  0.00  0.00    +0.000 C 
ATOM     29  C   UNL     1      -2.641  10.763  16.274  0.00  0.00    +0.000 C 
ATOM     30  C   UNL     1      -1.899  11.421  17.423  0.00  0.00    +0.000 C 
ENDBRANCH  22  25
ENDBRANCH   7  22
TORSDOF 3
ENDMDL
