MODEL 1
REMARK VINA RESULT:      -8.5      0.000      0.000
REMARK  Name = 
REMARK  8 active torsions:
REMARK  status: ('A' for Active; 'I' for Inactive)
REMARK    1  A    between atoms: C_1  and  C_2
REMARK    2  A    between atoms: N_4  and  C_5
REMARK    3  A    between atoms: C_6  and  C_7
REMARK    4  A    between atoms: C_8  and  N_9
REMARK    5  A    between atoms: C_10  and  C_12
REMARK    6  A    between atoms: C_12  and  N_13
REMARK    7  A    between atoms: C_17  and  C_18
REMARK    8  A    between atoms: C_17  and  C_19
REMARK                            x       y       z     vdW  Elec       q    Type
REMARK                         _______ _______ _______ _____ _____    ______ ____
ROOT
ATOM      1  N   UNL     1       1.986   4.164  19.340  0.00  0.00    +0.000 N 
ATOM      2  C   UNL     1       1.736   4.109  18.006  0.00  0.00    +0.000 C 
ATOM      3  O   UNL     1       0.854   4.672  17.378  0.00  0.00    +0.000 OA
ATOM      4  N   UNL     1       2.648   3.239  17.441  0.00  0.00    +0.000 N 
ATOM      5  C   UNL     1       3.759   2.948  18.349  0.00  0.00    +0.000 C 
ATOM      6  C   UNL     1       4.163   1.483  18.253  0.00  0.00    +0.000 C 
ATOM      7  C   UNL     1       2.949   3.249  19.631  0.00  0.00    +0.000 C 
ATOM      8  O   UNL     1       3.090   2.753  20.746  0.00  0.00    +0.000 OA
ATOM      9  H   UNL     1       2.671   3.134  16.433  0.00  0.00    +0.000 HD
ENDROOT
BRANCH   5  10
ATOM     10  C   UNL     1       4.926   3.949  18.124  0.00  0.00    +0.000 A 
ATOM     11  C   UNL     1       5.457   4.597  19.269  0.00  0.00    +0.000 A 
ATOM     12  C   UNL     1       6.583   5.409  19.208  0.00  0.00    +0.000 A 
ATOM     13  C   UNL     1       7.208   5.628  17.991  0.00  0.00    +0.000 A 
ATOM     14  C   UNL     1       6.706   5.060  16.818  0.00  0.00    +0.000 A 
ATOM     15  C   UNL     1       7.383   5.337  15.619  0.00  0.00    +0.000 A 
ATOM     16  C   UNL     1       6.946   4.810  14.410  0.00  0.00    +0.000 A 
ATOM     17  C   UNL     1       5.815   4.016  14.393  0.00  0.00    +0.000 A 
ATOM     18  C   UNL     1       5.123   3.745  15.583  0.00  0.00    +0.000 A 
ATOM     19  C   UNL     1       5.547   4.226  16.848  0.00  0.00    +0.000 A 
ENDBRANCH   5  10
BRANCH   1  20
ATOM     20  C   UNL     1       1.303   4.990  20.304  0.00  0.00    +0.000 C 
BRANCH  20  22
ATOM     21  N   UNL     1       0.677   7.324  20.657  0.00  0.00    +0.000 N 
ATOM     22  C   UNL     1       1.701   6.460  20.306  0.00  0.00    +0.000 C 
ATOM     23  O   UNL     1       2.863   6.795  20.089  0.00  0.00    +0.000 OA
ATOM     24  H   UNL     1      -0.276   6.987  20.543  0.00  0.00    +0.000 HD
BRANCH  21  32
ATOM     25  C   UNL     1       0.579   9.455  23.163  0.00  0.00    +0.000 C 
ATOM     26  C   UNL     1       0.848   9.645  21.717  0.00  0.00    +0.000 A 
ATOM     27  N   UNL     1       1.029  10.889  21.254  0.00  0.00    +0.000 NA
ATOM     28  N   UNL     1       1.181  10.735  19.931  0.00  0.00    +0.000 N 
ATOM     29  C   UNL     1       1.416  11.910  19.123  0.00  0.00    +0.000 C 
ATOM     30  C   UNL     1       1.093   9.433  19.512  0.00  0.00    +0.000 A 
ATOM     31  C   UNL     1       1.355   8.993  18.119  0.00  0.00    +0.000 C 
ATOM     32  C   UNL     1       0.855   8.697  20.656  0.00  0.00    +0.000 A 
ENDBRANCH  21  32
ENDBRANCH  20  22
ENDBRANCH   1  20
TORSDOF 4
ENDMDL
MODEL 2
REMARK VINA RESULT:      -8.3      2.155      2.542
REMARK  Name = 
REMARK  8 active torsions:
REMARK  status: ('A' for Active; 'I' for Inactive)
REMARK    1  A    between atoms: C_1  and  C_2
REMARK    2  A    between atoms: N_4  and  C_5
REMARK    3  A    between atoms: C_6  and  C_7
REMARK    4  A    between atoms: C_8  and  N_9
REMARK    5  A    between atoms: C_10  and  C_12
REMARK    6  A    between atoms: C_12  and  N_13
REMARK    7  A    between atoms: C_17  and  C_18
REMARK    8  A    between atoms: C_17  and  C_19
REMARK                            x       y       z     vdW  Elec       q    Type
REMARK                         _______ _______ _______ _____ _____    ______ ____
ROOT
ATOM      1  N   UNL     1       2.248   6.994  19.539  0.00  0.00    +0.000 N 
ATOM      2  C   UNL     1       2.075   7.198  18.207  0.00  0.00    +0.000 C 
ATOM      3  O   UNL     1       1.737   8.222  17.637  0.00  0.00    +0.000 OA
ATOM      4  N   UNL     1       2.305   5.998  17.563  0.00  0.00    +0.000 N 
ATOM      5  C   UNL     1       2.977   5.032  18.434  0.00  0.00    +0.000 C 
ATOM      6  C   UNL     1       2.425   3.631  18.210  0.00  0.00    +0.000 C 
ATOM      7  C   UNL     1       2.455   5.665  19.743  0.00  0.00    +0.000 C 
ATOM      8  O   UNL     1       2.219   5.104  20.811  0.00  0.00    +0.000 OA
ATOM      9  H   UNL     1       2.306   5.975  16.549  0.00  0.00    +0.000 HD
ENDROOT
BRANCH   5  10
ATOM     10  C   UNL     1       4.521   5.141  18.285  0.00  0.00    +0.000 A 
ATOM     11  C   UNL     1       5.269   5.411  19.459  0.00  0.00    +0.000 A 
ATOM     12  C   UNL     1       6.659   5.400  19.472  0.00  0.00    +0.000 A 
ATOM     13  C   UNL     1       7.356   5.147  18.302  0.00  0.00    +0.000 A 
ATOM     14  C   UNL     1       6.679   4.924  17.101  0.00  0.00    +0.000 A 
ATOM     15  C   UNL     1       7.451   4.688  15.952  0.00  0.00    +0.000 A 
ATOM     16  C   UNL     1       6.853   4.458  14.720  0.00  0.00    +0.000 A 
ATOM     17  C   UNL     1       5.474   4.481  14.628  0.00  0.00    +0.000 A 
ATOM     18  C   UNL     1       4.694   4.731  15.766  0.00  0.00    +0.000 A 
ATOM     19  C   UNL     1       5.252   4.934  17.055  0.00  0.00    +0.000 A 
ENDBRANCH   5  10
BRANCH   1  20
ATOM     20  C   UNL     1       2.155   7.991  20.575  0.00  0.00    +0.000 C 
BRANCH  20  22
ATOM     21  N   UNL     1       0.685   9.791  19.824  0.00  0.00    +0.000 N 
ATOM     22  C   UNL     1       0.815   8.708  20.677  0.00  0.00    +0.000 C 
ATOM     23  O   UNL     1      -0.073   8.276  21.409  0.00  0.00    +0.000 OA
ATOM     24  H   UNL     1       1.542  10.220  19.482  0.00  0.00    +0.000 HD
BRANCH  21  32
ATOM     25  C   UNL     1      -0.387  11.915  22.099  0.00  0.00    +0.000 C 
ATOM     26  C   UNL     1      -0.931  11.531  20.773  0.00  0.00    +0.000 A 
ATOM     27  N   UNL     1      -2.104  12.049  20.384  0.00  0.00    +0.000 NA
ATOM     28  N   UNL     1      -2.350  11.470  19.200  0.00  0.00    +0.000 N 
ATOM     29  C   UNL     1      -3.556  11.833  18.493  0.00  0.00    +0.000 C 
ATOM     30  C   UNL     1      -1.382  10.582  18.808  0.00  0.00    +0.000 A 
ATOM     31  C   UNL     1      -1.362   9.914  17.483  0.00  0.00    +0.000 C 
ATOM     32  C   UNL     1      -0.450  10.584  19.827  0.00  0.00    +0.000 A 
ENDBRANCH  21  32
ENDBRANCH  20  22
ENDBRANCH   1  20
TORSDOF 4
ENDMDL
MODEL 3
REMARK VINA RESULT:      -8.3      0.548      1.576
REMARK  Name = 
REMARK  8 active torsions:
REMARK  status: ('A' for Active; 'I' for Inactive)
REMARK    1  A    between atoms: C_1  and  C_2
REMARK    2  A    between atoms: N_4  and  C_5
REMARK    3  A    between atoms: C_6  and  C_7
REMARK    4  A    between atoms: C_8  and  N_9
REMARK    5  A    between atoms: C_10  and  C_12
REMARK    6  A    between atoms: C_12  and  N_13
REMARK    7  A    between atoms: C_17  and  C_18
REMARK    8  A    between atoms: C_17  and  C_19
REMARK                            x       y       z     vdW  Elec       q    Type
REMARK                         _______ _______ _______ _____ _____    ______ ____
ROOT
ATOM      1  N   UNL     1       2.156   4.320  19.455  0.00  0.00    +0.000 N 
ATOM      2  C   UNL     1       1.888   4.200  18.129  0.00  0.00    +0.000 C 
ATOM      3  O   UNL     1       1.004   4.742  17.485  0.00  0.00    +0.000 OA
ATOM      4  N   UNL     1       2.781   3.291  17.597  0.00  0.00    +0.000 N 
ATOM      5  C   UNL     1       3.901   3.033  18.504  0.00  0.00    +0.000 C 
ATOM      6  C   UNL     1       4.287   1.560  18.477  0.00  0.00    +0.000 C 
ATOM      7  C   UNL     1       3.113   3.408  19.780  0.00  0.00    +0.000 C 
ATOM      8  O   UNL     1       3.262   2.967  20.916  0.00  0.00    +0.000 OA
ATOM      9  H   UNL     1       2.789   3.136  16.595  0.00  0.00    +0.000 HD
ENDROOT
BRANCH   5  10
ATOM     10  C   UNL     1       5.077   4.007  18.213  0.00  0.00    +0.000 A 
ATOM     11  C   UNL     1       5.663   4.668  19.323  0.00  0.00    +0.000 A 
ATOM     12  C   UNL     1       6.801   5.457  19.202  0.00  0.00    +0.000 A 
ATOM     13  C   UNL     1       7.382   5.639  17.958  0.00  0.00    +0.000 A 
ATOM     14  C   UNL     1       6.824   5.058  16.817  0.00  0.00    +0.000 A 
ATOM     15  C   UNL     1       7.458   5.298  15.587  0.00  0.00    +0.000 A 
ATOM     16  C   UNL     1       6.965   4.756  14.407  0.00  0.00    +0.000 A 
ATOM     17  C   UNL     1       5.821   3.983  14.450  0.00  0.00    +0.000 A 
ATOM     18  C   UNL     1       5.171   3.749  15.671  0.00  0.00    +0.000 A 
ATOM     19  C   UNL     1       5.652   4.247  16.909  0.00  0.00    +0.000 A 
ENDBRANCH   5  10
BRANCH   1  20
ATOM     20  C   UNL     1       1.496   5.201  20.385  0.00  0.00    +0.000 C 
BRANCH  20  22
ATOM     21  N   UNL     1       0.705   7.509  20.510  0.00  0.00    +0.000 N 
ATOM     22  C   UNL     1       1.771   6.686  20.188  0.00  0.00    +0.000 C 
ATOM     23  O   UNL     1       2.887   7.077  19.849  0.00  0.00    +0.000 OA
ATOM     24  H   UNL     1      -0.222   7.091  20.507  0.00  0.00    +0.000 HD
BRANCH  21  32
ATOM     25  C   UNL     1       1.458   9.257  17.825  0.00  0.00    +0.000 C 
ATOM     26  C   UNL     1       1.062   9.672  19.193  0.00  0.00    +0.000 A 
ATOM     27  N   UNL     1       1.047  10.978  19.491  0.00  0.00    +0.000 NA
ATOM     28  N   UNL     1       0.720  11.021  20.790  0.00  0.00    +0.000 N 
ATOM     29  C   UNL     1       0.602  12.312  21.428  0.00  0.00    +0.000 C 
ATOM     30  C   UNL     1       0.532   9.786  21.355  0.00  0.00    +0.000 A 
ATOM     31  C   UNL     1       0.040   9.577  22.739  0.00  0.00    +0.000 C 
ATOM     32  C   UNL     1       0.769   8.881  20.339  0.00  0.00    +0.000 A 
ENDBRANCH  21  32
ENDBRANCH  20  22
ENDBRANCH   1  20
TORSDOF 4
ENDMDL
MODEL 4
REMARK VINA RESULT:      -8.1      2.155      2.899
REMARK  Name = 
REMARK  8 active torsions:
REMARK  status: ('A' for Active; 'I' for Inactive)
REMARK    1  A    between atoms: C_1  and  C_2
REMARK    2  A    between atoms: N_4  and  C_5
REMARK    3  A    between atoms: C_6  and  C_7
REMARK    4  A    between atoms: C_8  and  N_9
REMARK    5  A    between atoms: C_10  and  C_12
REMARK    6  A    between atoms: C_12  and  N_13
REMARK    7  A    between atoms: C_17  and  C_18
REMARK    8  A    between atoms: C_17  and  C_19
REMARK                            x       y       z     vdW  Elec       q    Type
REMARK                         _______ _______ _______ _____ _____    ______ ____
ROOT
ATOM      1  N   UNL     1       2.221   7.023  19.501  0.00  0.00    +0.000 N 
ATOM      2  C   UNL     1       2.055   7.191  18.164  0.00  0.00    +0.000 C 
ATOM      3  O   UNL     1       1.711   8.198  17.567  0.00  0.00    +0.000 OA
ATOM      4  N   UNL     1       2.300   5.978  17.551  0.00  0.00    +0.000 N 
ATOM      5  C   UNL     1       2.975   5.040  18.450  0.00  0.00    +0.000 C 
ATOM      6  C   UNL     1       2.436   3.629  18.258  0.00  0.00    +0.000 C 
ATOM      7  C   UNL     1       2.439   5.701  19.740  0.00  0.00    +0.000 C 
ATOM      8  O   UNL     1       2.202   5.165  20.820  0.00  0.00    +0.000 OA
ATOM      9  H   UNL     1       2.307   5.929  16.539  0.00  0.00    +0.000 HD
ENDROOT
BRANCH   5  10
ATOM     10  C   UNL     1       4.518   5.160  18.307  0.00  0.00    +0.000 A 
ATOM     11  C   UNL     1       5.260   5.435  19.484  0.00  0.00    +0.000 A 
ATOM     12  C   UNL     1       6.650   5.434  19.503  0.00  0.00    +0.000 A 
ATOM     13  C   UNL     1       7.354   5.184  18.337  0.00  0.00    +0.000 A 
ATOM     14  C   UNL     1       6.683   4.956  17.133  0.00  0.00    +0.000 A 
ATOM     15  C   UNL     1       7.462   4.724  15.987  0.00  0.00    +0.000 A 
ATOM     16  C   UNL     1       6.870   4.490  14.753  0.00  0.00    +0.000 A 
ATOM     17  C   UNL     1       5.492   4.503  14.655  0.00  0.00    +0.000 A 
ATOM     18  C   UNL     1       4.705   4.749  15.790  0.00  0.00    +0.000 A 
ATOM     19  C   UNL     1       5.256   4.957  17.080  0.00  0.00    +0.000 A 
ENDBRANCH   5  10
BRANCH   1  20
ATOM     20  C   UNL     1       2.114   8.044  20.512  0.00  0.00    +0.000 C 
BRANCH  20  22
ATOM     21  N   UNL     1       0.659   9.838  19.719  0.00  0.00    +0.000 N 
ATOM     22  C   UNL     1       0.771   8.760  20.580  0.00  0.00    +0.000 C 
ATOM     23  O   UNL     1      -0.133   8.329  21.294  0.00  0.00    +0.000 OA
ATOM     24  H   UNL     1       1.522  10.266  19.394  0.00  0.00    +0.000 HD
BRANCH  21  32
ATOM     25  C   UNL     1      -1.728  10.015  17.458  0.00  0.00    +0.000 C 
ATOM     26  C   UNL     1      -1.541  10.715  18.753  0.00  0.00    +0.000 A 
ATOM     27  N   UNL     1      -2.427  11.655  19.110  0.00  0.00    +0.000 NA
ATOM     28  N   UNL     1      -1.956  12.136  20.269  0.00  0.00    +0.000 N 
ATOM     29  C   UNL     1      -2.704  13.174  20.939  0.00  0.00    +0.000 C 
ATOM     30  C   UNL     1      -0.784  11.550  20.675  0.00  0.00    +0.000 A 
ATOM     31  C   UNL     1      -0.137  11.819  21.984  0.00  0.00    +0.000 C 
ATOM     32  C   UNL     1      -0.477  10.630  19.693  0.00  0.00    +0.000 A 
ENDBRANCH  21  32
ENDBRANCH  20  22
ENDBRANCH   1  20
TORSDOF 4
ENDMDL
MODEL 5
REMARK VINA RESULT:      -7.5      5.284      8.657
REMARK  Name = 
REMARK  8 active torsions:
REMARK  status: ('A' for Active; 'I' for Inactive)
REMARK    1  A    between atoms: C_1  and  C_2
REMARK    2  A    between atoms: N_4  and  C_5
REMARK    3  A    between atoms: C_6  and  C_7
REMARK    4  A    between atoms: C_8  and  N_9
REMARK    5  A    between atoms: C_10  and  C_12
REMARK    6  A    between atoms: C_12  and  N_13
REMARK    7  A    between atoms: C_17  and  C_18
REMARK    8  A    between atoms: C_17  and  C_19
REMARK                            x       y       z     vdW  Elec       q    Type
REMARK                         _______ _______ _______ _____ _____    ______ ____
ROOT
ATOM      1  N   UNL     1      -1.106  13.356  19.497  0.00  0.00    +0.000 N 
ATOM      2  C   UNL     1       0.009  13.375  18.722  0.00  0.00    +0.000 C 
ATOM      3  O   UNL     1       0.845  14.259  18.624  0.00  0.00    +0.000 OA
ATOM      4  N   UNL     1       0.034  12.206  17.988  0.00  0.00    +0.000 N 
ATOM      5  C   UNL     1      -0.903  11.212  18.514  0.00  0.00    +0.000 C 
ATOM      6  C   UNL     1      -1.582  10.458  17.378  0.00  0.00    +0.000 C 
ATOM      7  C   UNL     1      -1.838  12.258  19.163  0.00  0.00    +0.000 C 
ATOM      8  O   UNL     1      -3.050  12.177  19.345  0.00  0.00    +0.000 OA
ATOM      9  H   UNL     1       0.843  12.003  17.412  0.00  0.00    +0.000 HD
ENDROOT
BRANCH   5  10
ATOM     10  C   UNL     1      -0.203  10.298  19.559  0.00  0.00    +0.000 A 
ATOM     11  C   UNL     1      -0.628  10.409  20.908  0.00  0.00    +0.000 A 
ATOM     12  C   UNL     1      -0.169   9.554  21.903  0.00  0.00    +0.000 A 
ATOM     13  C   UNL     1       0.755   8.571  21.594  0.00  0.00    +0.000 A 
ATOM     14  C   UNL     1       1.252   8.441  20.295  0.00  0.00    +0.000 A 
ATOM     15  C   UNL     1       2.198   7.430  20.057  0.00  0.00    +0.000 A 
ATOM     16  C   UNL     1       2.740   7.237  18.793  0.00  0.00    +0.000 A 
ATOM     17  C   UNL     1       2.350   8.069  17.760  0.00  0.00    +0.000 A 
ATOM     18  C   UNL     1       1.417   9.091  17.990  0.00  0.00    +0.000 A 
ATOM     19  C   UNL     1       0.805   9.308  19.252  0.00  0.00    +0.000 A 
ENDBRANCH   5  10
BRANCH   1  20
ATOM     20  C   UNL     1      -1.499  14.357  20.456  0.00  0.00    +0.000 C 
BRANCH  20  22
ATOM     21  N   UNL     1      -3.807  14.270  21.251  0.00  0.00    +0.000 N 
ATOM     22  C   UNL     1      -2.499  13.898  21.510  0.00  0.00    +0.000 C 
ATOM     23  O   UNL     1      -2.139  13.190  22.448  0.00  0.00    +0.000 OA
ATOM     24  H   UNL     1      -3.951  15.061  20.628  0.00  0.00    +0.000 HD
BRANCH  21  32
ATOM     25  C   UNL     1      -4.501  15.608  24.177  0.00  0.00    +0.000 C 
ATOM     26  C   UNL     1      -5.181  14.550  23.389  0.00  0.00    +0.000 A 
ATOM     27  N   UNL     1      -6.241  13.930  23.925  0.00  0.00    +0.000 NA
ATOM     28  N   UNL     1      -6.581  13.004  23.017  0.00  0.00    +0.000 N 
ATOM     29  C   UNL     1      -7.720  12.159  23.289  0.00  0.00    +0.000 C 
ATOM     30  C   UNL     1      -5.771  12.991  21.910  0.00  0.00    +0.000 A 
ATOM     31  C   UNL     1      -6.021  12.149  20.714  0.00  0.00    +0.000 C 
ATOM     32  C   UNL     1      -4.832  13.979  22.135  0.00  0.00    +0.000 A 
ENDBRANCH  21  32
ENDBRANCH  20  22
ENDBRANCH   1  20
TORSDOF 4
ENDMDL
MODEL 6
REMARK VINA RESULT:      -7.3      0.881      2.548
REMARK  Name = 
REMARK  8 active torsions:
REMARK  status: ('A' for Active; 'I' for Inactive)
REMARK    1  A    between atoms: C_1  and  C_2
REMARK    2  A    between atoms: N_4  and  C_5
REMARK    3  A    between atoms: C_6  and  C_7
REMARK    4  A    between atoms: C_8  and  N_9
REMARK    5  A    between atoms: C_10  and  C_12
REMARK    6  A    between atoms: C_12  and  N_13
REMARK    7  A    between atoms: C_17  and  C_18
REMARK    8  A    between atoms: C_17  and  C_19
REMARK                            x       y       z     vdW  Elec       q    Type
REMARK                         _______ _______ _______ _____ _____    ______ ____
ROOT
ATOM      1  N   UNL     1       2.508   4.055  19.278  0.00  0.00    +0.000 N 
ATOM      2  C   UNL     1       1.804   3.797  18.146  0.00  0.00    +0.000 C 
ATOM      3  O   UNL     1       0.705   4.220  17.828  0.00  0.00    +0.000 OA
ATOM      4  N   UNL     1       2.534   2.902  17.389  0.00  0.00    +0.000 N 
ATOM      5  C   UNL     1       3.920   2.800  17.851  0.00  0.00    +0.000 C 
ATOM      6  C   UNL     1       4.406   1.359  17.782  0.00  0.00    +0.000 C 
ATOM      7  C   UNL     1       3.598   3.241  19.297  0.00  0.00    +0.000 C 
ATOM      8  O   UNL     1       4.178   2.917  20.331  0.00  0.00    +0.000 OA
ATOM      9  H   UNL     1       2.205   2.655  16.463  0.00  0.00    +0.000 HD
ENDROOT
BRANCH   5  10
ATOM     10  C   UNL     1       4.824   3.816  17.098  0.00  0.00    +0.000 A 
ATOM     11  C   UNL     1       4.603   3.975  15.706  0.00  0.00    +0.000 A 
ATOM     12  C   UNL     1       5.257   4.946  14.957  0.00  0.00    +0.000 A 
ATOM     13  C   UNL     1       6.180   5.779  15.566  0.00  0.00    +0.000 A 
ATOM     14  C   UNL     1       6.481   5.641  16.923  0.00  0.00    +0.000 A 
ATOM     15  C   UNL     1       7.438   6.511  17.470  0.00  0.00    +0.000 A 
ATOM     16  C   UNL     1       7.792   6.437  18.810  0.00  0.00    +0.000 A 
ATOM     17  C   UNL     1       7.202   5.477  19.610  0.00  0.00    +0.000 A 
ATOM     18  C   UNL     1       6.255   4.593  19.070  0.00  0.00    +0.000 A 
ATOM     19  C   UNL     1       5.830   4.649  17.718  0.00  0.00    +0.000 A 
ENDBRANCH   5  10
BRANCH   1  20
ATOM     20  C   UNL     1       2.139   4.975  20.325  0.00  0.00    +0.000 C 
BRANCH  20  22
ATOM     21  N   UNL     1       1.245   7.242  20.495  0.00  0.00    +0.000 N 
ATOM     22  C   UNL     1       2.254   6.452  19.969  0.00  0.00    +0.000 C 
ATOM     23  O   UNL     1       3.222   6.871  19.338  0.00  0.00    +0.000 OA
ATOM     24  H   UNL     1       0.376   6.778  20.750  0.00  0.00    +0.000 HD
BRANCH  21  32
ATOM     25  C   UNL     1       1.608   8.838  17.638  0.00  0.00    +0.000 C 
ATOM     26  C   UNL     1       1.292   9.320  19.005  0.00  0.00    +0.000 A 
ATOM     27  N   UNL     1       1.185  10.639  19.213  0.00  0.00    +0.000 NA
ATOM     28  N   UNL     1       0.966  10.754  20.530  0.00  0.00    +0.000 N 
ATOM     29  C   UNL     1       0.785  12.075  21.086  0.00  0.00    +0.000 C 
ATOM     30  C   UNL     1       0.939   9.554  21.193  0.00  0.00    +0.000 A 
ATOM     31  C   UNL     1       0.586   9.410  22.627  0.00  0.00    +0.000 C 
ATOM     32  C   UNL     1       1.170   8.597  20.224  0.00  0.00    +0.000 A 
ENDBRANCH  21  32
ENDBRANCH  20  22
ENDBRANCH   1  20
TORSDOF 4
ENDMDL
MODEL 7
REMARK VINA RESULT:      -7.3      5.483      8.821
REMARK  Name = 
REMARK  8 active torsions:
REMARK  status: ('A' for Active; 'I' for Inactive)
REMARK    1  A    between atoms: C_1  and  C_2
REMARK    2  A    between atoms: N_4  and  C_5
REMARK    3  A    between atoms: C_6  and  C_7
REMARK    4  A    between atoms: C_8  and  N_9
REMARK    5  A    between atoms: C_10  and  C_12
REMARK    6  A    between atoms: C_12  and  N_13
REMARK    7  A    between atoms: C_17  and  C_18
REMARK    8  A    between atoms: C_17  and  C_19
REMARK                            x       y       z     vdW  Elec       q    Type
REMARK                         _______ _______ _______ _____ _____    ______ ____
ROOT
ATOM      1  N   UNL     1       0.536  14.058  19.450  0.00  0.00    +0.000 N 
ATOM      2  C   UNL     1       1.294  13.520  18.460  0.00  0.00    +0.000 C 
ATOM      3  O   UNL     1       2.355  13.927  18.016  0.00  0.00    +0.000 OA
ATOM      4  N   UNL     1       0.630  12.412  17.974  0.00  0.00    +0.000 N 
ATOM      5  C   UNL     1      -0.445  11.983  18.871  0.00  0.00    +0.000 C 
ATOM      6  C   UNL     1      -1.662  11.530  18.076  0.00  0.00    +0.000 C 
ATOM      7  C   UNL     1      -0.643  13.381  19.499  0.00  0.00    +0.000 C 
ATOM      8  O   UNL     1      -1.677  13.864  19.955  0.00  0.00    +0.000 OA
ATOM      9  H   UNL     1       1.086  11.827  17.283  0.00  0.00    +0.000 HD
ENDROOT
BRANCH   5  10
ATOM     10  C   UNL     1       0.079  10.933  19.891  0.00  0.00    +0.000 A 
ATOM     11  C   UNL     1      -0.289  11.106  21.249  0.00  0.00    +0.000 A 
ATOM     12  C   UNL     1       0.009  10.162  22.225  0.00  0.00    +0.000 A 
ATOM     13  C   UNL     1       0.713   9.019  21.885  0.00  0.00    +0.000 A 
ATOM     14  C   UNL     1       1.149   8.812  20.574  0.00  0.00    +0.000 A 
ATOM     15  C   UNL     1       1.870   7.638  20.305  0.00  0.00    +0.000 A 
ATOM     16  C   UNL     1       2.338   7.360  19.027  0.00  0.00    +0.000 A 
ATOM     17  C   UNL     1       2.102   8.268  18.012  0.00  0.00    +0.000 A 
ATOM     18  C   UNL     1       1.395   9.451  18.274  0.00  0.00    +0.000 A 
ATOM     19  C   UNL     1       0.863   9.767  19.551  0.00  0.00    +0.000 A 
ENDBRANCH   5  10
BRANCH   1  20
ATOM     20  C   UNL     1       0.876  15.197  20.265  0.00  0.00    +0.000 C 
BRANCH  20  22
ATOM     21  N   UNL     1      -0.446  15.743  22.245  0.00  0.00    +0.000 N 
ATOM     22  C   UNL     1       0.636  15.028  21.760  0.00  0.00    +0.000 C 
ATOM     23  O   UNL     1       1.320  14.249  22.420  0.00  0.00    +0.000 OA
ATOM     24  H   UNL     1      -0.757  16.543  21.700  0.00  0.00    +0.000 HD
BRANCH  21  32
ATOM     25  C   UNL     1      -2.539  13.816  23.901  0.00  0.00    +0.000 C 
ATOM     26  C   UNL     1      -1.645  14.912  24.346  0.00  0.00    +0.000 A 
ATOM     27  N   UNL     1      -1.684  15.294  25.630  0.00  0.00    +0.000 NA
ATOM     28  N   UNL     1      -0.830  16.324  25.699  0.00  0.00    +0.000 N 
ATOM     29  C   UNL     1      -0.626  16.965  26.978  0.00  0.00    +0.000 C 
ATOM     30  C   UNL     1      -0.242  16.637  24.500  0.00  0.00    +0.000 A 
ATOM     31  C   UNL     1       0.832  17.650  24.347  0.00  0.00    +0.000 C 
ATOM     32  C   UNL     1      -0.771  15.743  23.591  0.00  0.00    +0.000 A 
ENDBRANCH  21  32
ENDBRANCH  20  22
ENDBRANCH   1  20
TORSDOF 4
ENDMDL
MODEL 8
REMARK VINA RESULT:      -7.3      4.035     10.133
REMARK  Name = 
REMARK  8 active torsions:
REMARK  status: ('A' for Active; 'I' for Inactive)
REMARK    1  A    between atoms: C_1  and  C_2
REMARK    2  A    between atoms: N_4  and  C_5
REMARK    3  A    between atoms: C_6  and  C_7
REMARK    4  A    between atoms: C_8  and  N_9
REMARK    5  A    between atoms: C_10  and  C_12
REMARK    6  A    between atoms: C_12  and  N_13
REMARK    7  A    between atoms: C_17  and  C_18
REMARK    8  A    between atoms: C_17  and  C_19
REMARK                            x       y       z     vdW  Elec       q    Type
REMARK                         _______ _______ _______ _____ _____    ______ ____
ROOT
ATOM      1  N   UNL     1      -0.305  10.207  21.212  0.00  0.00    +0.000 N 
ATOM      2  C   UNL     1      -0.022  10.855  20.053  0.00  0.00    +0.000 C 
ATOM      3  O   UNL     1       0.353  10.378  18.994  0.00  0.00    +0.000 OA
ATOM      4  N   UNL     1      -0.184  12.208  20.274  0.00  0.00    +0.000 N 
ATOM      5  C   UNL     1      -0.918  12.474  21.513  0.00  0.00    +0.000 C 
ATOM      6  C   UNL     1      -0.334  13.681  22.235  0.00  0.00    +0.000 C 
ATOM      7  C   UNL     1      -0.515  11.140  22.181  0.00  0.00    +0.000 C 
ATOM      8  O   UNL     1      -0.365  10.911  23.378  0.00  0.00    +0.000 OA
ATOM      9  H   UNL     1      -0.098  12.849  19.493  0.00  0.00    +0.000 HD
ENDROOT
BRANCH   5  10
ATOM     10  C   UNL     1      -2.444  12.573  21.235  0.00  0.00    +0.000 A 
ATOM     11  C   UNL     1      -2.864  12.506  19.882  0.00  0.00    +0.000 A 
ATOM     12  C   UNL     1      -4.205  12.451  19.522  0.00  0.00    +0.000 A 
ATOM     13  C   UNL     1      -5.182  12.489  20.503  0.00  0.00    +0.000 A 
ATOM     14  C   UNL     1      -4.837  12.606  21.851  0.00  0.00    +0.000 A 
ATOM     15  C   UNL     1      -5.881  12.653  22.789  0.00  0.00    +0.000 A 
ATOM     16  C   UNL     1      -5.620  12.769  24.148  0.00  0.00    +0.000 A 
ATOM     17  C   UNL     1      -4.309  12.856  24.575  0.00  0.00    +0.000 A 
ATOM     18  C   UNL     1      -3.259  12.825  23.645  0.00  0.00    +0.000 A 
ATOM     19  C   UNL     1      -3.467  12.670  22.251  0.00  0.00    +0.000 A 
ENDBRANCH   5  10
BRANCH   1  20
ATOM     20  C   UNL     1      -0.312   8.781  21.416  0.00  0.00    +0.000 C 
BRANCH  20  22
ATOM     21  N   UNL     1       1.039   7.282  20.040  0.00  0.00    +0.000 N 
ATOM     22  C   UNL     1       1.018   8.078  21.172  0.00  0.00    +0.000 C 
ATOM     23  O   UNL     1       1.984   8.296  21.900  0.00  0.00    +0.000 OA
ATOM     24  H   UNL     1       0.144   6.958  19.681  0.00  0.00    +0.000 HD
BRANCH  21  32
ATOM     25  C   UNL     1       2.111   4.432  21.289  0.00  0.00    +0.000 C 
ATOM     26  C   UNL     1       2.633   5.287  20.195  0.00  0.00    +0.000 A 
ATOM     27  N   UNL     1       3.781   4.941  19.600  0.00  0.00    +0.000 NA
ATOM     28  N   UNL     1       4.013   5.927  18.721  0.00  0.00    +0.000 N 
ATOM     29  C   UNL     1       5.192   5.846  17.890  0.00  0.00    +0.000 C 
ATOM     30  C   UNL     1       3.060   6.912  18.731  0.00  0.00    +0.000 A 
ATOM     31  C   UNL     1       3.025   8.038  17.765  0.00  0.00    +0.000 C 
ATOM     32  C   UNL     1       2.153   6.532  19.701  0.00  0.00    +0.000 A 
ENDBRANCH  21  32
ENDBRANCH  20  22
ENDBRANCH   1  20
TORSDOF 4
ENDMDL
MODEL 9
REMARK VINA RESULT:      -7.2      3.100      8.876
REMARK  Name = 
REMARK  8 active torsions:
REMARK  status: ('A' for Active; 'I' for Inactive)
REMARK    1  A    between atoms: C_1  and  C_2
REMARK    2  A    between atoms: N_4  and  C_5
REMARK    3  A    between atoms: C_6  and  C_7
REMARK    4  A    between atoms: C_8  and  N_9
REMARK    5  A    between atoms: C_10  and  C_12
REMARK    6  A    between atoms: C_12  and  N_13
REMARK    7  A    between atoms: C_17  and  C_18
REMARK    8  A    between atoms: C_17  and  C_19
REMARK                            x       y       z     vdW  Elec       q    Type
REMARK                         _______ _______ _______ _____ _____    ______ ____
ROOT
ATOM      1  N   UNL     1       1.215   9.520  19.999  0.00  0.00    +0.000 N 
ATOM      2  C   UNL     1       1.541   9.343  18.693  0.00  0.00    +0.000 C 
ATOM      3  O   UNL     1       1.999   8.347  18.157  0.00  0.00    +0.000 OA
ATOM      4  N   UNL     1       1.308  10.534  18.033  0.00  0.00    +0.000 N 
ATOM      5  C   UNL     1       0.490  11.448  18.832  0.00  0.00    +0.000 C 
ATOM      6  C   UNL     1       0.977  12.882  18.676  0.00  0.00    +0.000 C 
ATOM      7  C   UNL     1       0.907  10.832  20.187  0.00  0.00    +0.000 C 
ATOM      8  O   UNL     1       0.993  11.394  21.276  0.00  0.00    +0.000 OA
ATOM      9  H   UNL     1       1.415  10.569  17.026  0.00  0.00    +0.000 HD
ENDROOT
BRANCH   5  10
ATOM     10  C   UNL     1      -1.019  11.248  18.518  0.00  0.00    +0.000 A 
ATOM     11  C   UNL     1      -1.358  10.256  17.562  0.00  0.00    +0.000 A 
ATOM     12  C   UNL     1      -2.675   9.898  17.299  0.00  0.00    +0.000 A 
ATOM     13  C   UNL     1      -3.708  10.540  17.961  0.00  0.00    +0.000 A 
ATOM     14  C   UNL     1      -3.444  11.561  18.877  0.00  0.00    +0.000 A 
ATOM     15  C   UNL     1      -4.542  12.176  19.501  0.00  0.00    +0.000 A 
ATOM     16  C   UNL     1      -4.363  13.199  20.422  0.00  0.00    +0.000 A 
ATOM     17  C   UNL     1      -3.080  13.625  20.713  0.00  0.00    +0.000 A 
ATOM     18  C   UNL     1      -1.978  13.027  20.085  0.00  0.00    +0.000 A 
ATOM     19  C   UNL     1      -2.102  11.955  19.165  0.00  0.00    +0.000 A 
ENDBRANCH   5  10
BRANCH   1  20
ATOM     20  C   UNL     1       1.256   8.519  21.034  0.00  0.00    +0.000 C 
BRANCH  20  22
ATOM     21  N   UNL     1       2.695   6.678  20.323  0.00  0.00    +0.000 N 
ATOM     22  C   UNL     1       1.390   7.081  20.550  0.00  0.00    +0.000 C 
ATOM     23  O   UNL     1       0.403   6.354  20.464  0.00  0.00    +0.000 OA
ATOM     24  H   UNL     1       3.385   7.407  20.156  0.00  0.00    +0.000 HD
BRANCH  21  32
ATOM     25  C   UNL     1       2.126   3.717  21.644  0.00  0.00    +0.000 C 
ATOM     26  C   UNL     1       2.737   4.121  20.354  0.00  0.00    +0.000 A 
ATOM     27  N   UNL     1       3.233   3.170  19.551  0.00  0.00    +0.000 NA
ATOM     28  N   UNL     1       3.763   3.844  18.521  0.00  0.00    +0.000 N 
ATOM     29  C   UNL     1       4.376   3.094  17.450  0.00  0.00    +0.000 C 
ATOM     30  C   UNL     1       3.640   5.205  18.629  0.00  0.00    +0.000 A 
ATOM     31  C   UNL     1       4.030   6.157  17.560  0.00  0.00    +0.000 C 
ATOM     32  C   UNL     1       2.991   5.418  19.830  0.00  0.00    +0.000 A 
ENDBRANCH  21  32
ENDBRANCH  20  22
ENDBRANCH   1  20
TORSDOF 4
ENDMDL
