MODEL 1
REMARK VINA RESULT:      -9.9      0.000      0.000
REMARK  Name = 
REMARK  2 active torsions:
REMARK  status: ('A' for Active; 'I' for Inactive)
REMARK    1  A    between atoms: C_5  and  N_6
REMARK    2  A    between atoms: C_10  and  N_11
REMARK                            x       y       z     vdW  Elec       q    Type
REMARK                         _______ _______ _______ _____ _____    ______ ____
ROOT
ATOM      1  N   UNL     1       3.779   4.751  18.313  0.00  0.00    +0.000 N 
ATOM      2  C   UNL     1       3.944   5.926  17.462  0.00  0.00    +0.000 C 
ATOM      3  C   UNL     1       5.352   6.344  17.754  0.00  0.00    +0.000 A 
ATOM      4  C   UNL     1       6.105   7.417  17.296  0.00  0.00    +0.000 A 
ATOM      5  C   UNL     1       7.420   7.591  17.787  0.00  0.00    +0.000 A 
ATOM      6  C   UNL     1       7.940   6.633  18.689  0.00  0.00    +0.000 A 
ATOM      7  C   UNL     1       7.192   5.557  19.144  0.00  0.00    +0.000 A 
ATOM      8  C   UNL     1       5.917   5.446  18.653  0.00  0.00    +0.000 A 
ATOM      9  C   UNL     1       4.949   4.408  18.959  0.00  0.00    +0.000 C 
ATOM     10  O   UNL     1       5.195   3.430  19.633  0.00  0.00    +0.000 OA
ENDROOT
BRANCH   5  11
ATOM     11  N   UNL     1       8.177   8.704  17.369  0.00  0.00    +0.000 N 
ATOM     12  C   UNL     1       8.726   9.732  18.148  0.00  0.00    +0.000 A 
ATOM     13  N   UNL     1       8.938   9.551  19.472  0.00  0.00    +0.000 NA
ATOM     14  C   UNL     1       9.320  10.592  20.227  0.00  0.00    +0.000 A 
ATOM     15  C   UNL     1       9.510  11.813  19.677  0.00  0.00    +0.000 A 
ATOM     16  C   UNL     1       9.318  11.910  18.329  0.00  0.00    +0.000 A 
ATOM     17  N   UNL     1       8.929  10.907  17.526  0.00  0.00    +0.000 NA
ATOM     18  C   UNL     1       9.522  13.335  17.929  0.00  0.00    +0.000 C 
ATOM     19  O   UNL     1      10.081  13.965  19.115  0.00  0.00    +0.000 OA
ATOM     20  C   UNL     1       9.828  13.121  20.262  0.00  0.00    +0.000 C 
ATOM     21  H   UNL     1       7.986   9.067  16.447  0.00  0.00    +0.000 HD
ENDBRANCH   5  11
BRANCH   1  26
ATOM     22  O   UNL     1       2.033   2.267  22.129  0.00  0.00    +0.000 OA
ATOM     23  C   UNL     1       2.125   2.784  21.017  0.00  0.00    +0.000 C 
ATOM     24  C   UNL     1       1.709   4.216  20.767  0.00  0.00    +0.000 C 
ATOM     25  C   UNL     1       1.471   4.514  19.295  0.00  0.00    +0.000 C 
ATOM     26  C   UNL     1       2.551   3.965  18.364  0.00  0.00    +0.000 C 
ATOM     27  C   UNL     1       2.883   2.503  18.675  0.00  0.00    +0.000 C 
ATOM     28  O   UNL     1       3.453   1.771  17.863  0.00  0.00    +0.000 OA
ATOM     29  N   UNL     1       2.616   2.069  19.952  0.00  0.00    +0.000 N 
ATOM     30  H   UNL     1       2.928   1.134  20.172  0.00  0.00    +0.000 HD
ENDBRANCH   1  26
TORSDOF 2
ENDMDL
MODEL 2
REMARK VINA RESULT:      -9.3      5.557      6.567
REMARK  Name = 
REMARK  2 active torsions:
REMARK  status: ('A' for Active; 'I' for Inactive)
REMARK    1  A    between atoms: C_5  and  N_6
REMARK    2  A    between atoms: C_10  and  N_11
REMARK                            x       y       z     vdW  Elec       q    Type
REMARK                         _______ _______ _______ _____ _____    ______ ____
ROOT
ATOM      1  N   UNL     1       3.674   5.931  18.581  0.00  0.00    +0.000 N 
ATOM      2  C   UNL     1       3.623   7.051  17.645  0.00  0.00    +0.000 C 
ATOM      3  C   UNL     1       2.641   7.974  18.296  0.00  0.00    +0.000 A 
ATOM      4  C   UNL     1       2.123   9.198  17.893  0.00  0.00    +0.000 A 
ATOM      5  C   UNL     1       1.159   9.837  18.705  0.00  0.00    +0.000 A 
ATOM      6  C   UNL     1       0.794   9.230  19.930  0.00  0.00    +0.000 A 
ATOM      7  C   UNL     1       1.313   8.010  20.339  0.00  0.00    +0.000 A 
ATOM      8  C   UNL     1       2.229   7.424  19.505  0.00  0.00    +0.000 A 
ATOM      9  C   UNL     1       2.924   6.166  19.715  0.00  0.00    +0.000 C 
ATOM     10  O   UNL     1       2.846   5.511  20.733  0.00  0.00    +0.000 OA
ENDROOT
BRANCH   5  11
ATOM     11  N   UNL     1       0.588  11.054  18.283  0.00  0.00    +0.000 N 
ATOM     12  C   UNL     1       1.025  12.361  18.539  0.00  0.00    +0.000 A 
ATOM     13  N   UNL     1       2.309  12.599  18.893  0.00  0.00    +0.000 NA
ATOM     14  C   UNL     1       2.669  13.832  19.280  0.00  0.00    +0.000 A 
ATOM     15  C   UNL     1       1.768  14.840  19.304  0.00  0.00    +0.000 A 
ATOM     16  C   UNL     1       0.503  14.536  18.893  0.00  0.00    +0.000 A 
ATOM     17  N   UNL     1       0.083  13.321  18.504  0.00  0.00    +0.000 NA
ATOM     18  C   UNL     1      -0.345  15.757  19.044  0.00  0.00    +0.000 C 
ATOM     19  O   UNL     1       0.605  16.820  19.335  0.00  0.00    +0.000 OA
ATOM     20  C   UNL     1       1.856  16.233  19.761  0.00  0.00    +0.000 C 
ATOM     21  H   UNL     1      -0.413  11.070  18.155  0.00  0.00    +0.000 HD
ENDBRANCH   5  11
BRANCH   1  26
ATOM     22  O   UNL     1       7.379   5.482  15.443  0.00  0.00    +0.000 OA
ATOM     23  C   UNL     1       6.581   5.243  16.348  0.00  0.00    +0.000 C 
ATOM     24  C   UNL     1       6.817   5.715  17.764  0.00  0.00    +0.000 C 
ATOM     25  C   UNL     1       5.988   4.955  18.787  0.00  0.00    +0.000 C 
ATOM     26  C   UNL     1       4.525   4.762  18.386  0.00  0.00    +0.000 C 
ATOM     27  C   UNL     1       4.390   4.254  16.948  0.00  0.00    +0.000 C 
ATOM     28  O   UNL     1       3.361   3.716  16.535  0.00  0.00    +0.000 OA
ATOM     29  N   UNL     1       5.434   4.530  16.097  0.00  0.00    +0.000 N 
ATOM     30  H   UNL     1       5.291   4.276  15.130  0.00  0.00    +0.000 HD
ENDBRANCH   1  26
TORSDOF 2
ENDMDL
MODEL 3
REMARK VINA RESULT:      -9.3      5.958      7.845
REMARK  Name = 
REMARK  2 active torsions:
REMARK  status: ('A' for Active; 'I' for Inactive)
REMARK    1  A    between atoms: C_5  and  N_6
REMARK    2  A    between atoms: C_10  and  N_11
REMARK                            x       y       z     vdW  Elec       q    Type
REMARK                         _______ _______ _______ _____ _____    ______ ____
ROOT
ATOM      1  N   UNL     1       3.637   6.114  18.286  0.00  0.00    +0.000 N 
ATOM      2  C   UNL     1       3.336   7.421  17.708  0.00  0.00    +0.000 C 
ATOM      3  C   UNL     1       2.387   8.007  18.706  0.00  0.00    +0.000 A 
ATOM      4  C   UNL     1       1.700   9.214  18.723  0.00  0.00    +0.000 A 
ATOM      5  C   UNL     1       0.820   9.488  19.794  0.00  0.00    +0.000 A 
ATOM      6  C   UNL     1       0.709   8.542  20.841  0.00  0.00    +0.000 A 
ATOM      7  C   UNL     1       1.398   7.338  20.830  0.00  0.00    +0.000 A 
ATOM      8  C   UNL     1       2.222   7.113  19.759  0.00  0.00    +0.000 A 
ATOM      9  C   UNL     1       3.056   5.947  19.527  0.00  0.00    +0.000 C 
ATOM     10  O   UNL     1       3.200   5.047  20.327  0.00  0.00    +0.000 OA
ENDROOT
BRANCH   5  11
ATOM     11  N   UNL     1       0.079  10.687  19.798  0.00  0.00    +0.000 N 
ATOM     12  C   UNL     1      -0.682  11.243  20.835  0.00  0.00    +0.000 A 
ATOM     13  N   UNL     1      -0.457  10.883  22.120  0.00  0.00    +0.000 NA
ATOM     14  C   UNL     1      -1.292  11.309  23.080  0.00  0.00    +0.000 A 
ATOM     15  C   UNL     1      -2.344  12.104  22.780  0.00  0.00    +0.000 A 
ATOM     16  C   UNL     1      -2.483  12.460  21.469  0.00  0.00    +0.000 A 
ATOM     17  N   UNL     1      -1.685  12.060  20.466  0.00  0.00    +0.000 NA
ATOM     18  C   UNL     1      -3.721  13.287  21.338  0.00  0.00    +0.000 C 
ATOM     19  O   UNL     1      -4.116  13.563  22.710  0.00  0.00    +0.000 OA
ATOM     20  C   UNL     1      -3.448  12.631  23.591  0.00  0.00    +0.000 C 
ATOM     21  H   UNL     1      -0.313  10.985  18.917  0.00  0.00    +0.000 HD
ENDBRANCH   5  11
BRANCH   1  26
ATOM     22  O   UNL     1       3.810   1.300  19.045  0.00  0.00    +0.000 OA
ATOM     23  C   UNL     1       4.034   2.417  18.581  0.00  0.00    +0.000 C 
ATOM     24  C   UNL     1       3.202   2.996  17.459  0.00  0.00    +0.000 C 
ATOM     25  C   UNL     1       3.896   4.141  16.740  0.00  0.00    +0.000 C 
ATOM     26  C   UNL     1       4.553   5.158  17.673  0.00  0.00    +0.000 C 
ATOM     27  C   UNL     1       5.397   4.478  18.754  0.00  0.00    +0.000 C 
ATOM     28  O   UNL     1       6.268   5.082  19.385  0.00  0.00    +0.000 OA
ATOM     29  N   UNL     1       5.061   3.184  19.074  0.00  0.00    +0.000 N 
ATOM     30  H   UNL     1       5.560   2.781  19.853  0.00  0.00    +0.000 HD
ENDBRANCH   1  26
TORSDOF 2
ENDMDL
MODEL 4
REMARK VINA RESULT:      -9.3      5.354      6.085
REMARK  Name = 
REMARK  2 active torsions:
REMARK  status: ('A' for Active; 'I' for Inactive)
REMARK    1  A    between atoms: C_5  and  N_6
REMARK    2  A    between atoms: C_10  and  N_11
REMARK                            x       y       z     vdW  Elec       q    Type
REMARK                         _______ _______ _______ _____ _____    ______ ____
ROOT
ATOM      1  N   UNL     1       3.745   6.125  17.939  0.00  0.00    +0.000 N 
ATOM      2  C   UNL     1       3.493   7.310  17.122  0.00  0.00    +0.000 C 
ATOM      3  C   UNL     1       2.600   8.127  18.003  0.00  0.00    +0.000 A 
ATOM      4  C   UNL     1       1.974   9.350  17.795  0.00  0.00    +0.000 A 
ATOM      5  C   UNL     1       1.136   9.872  18.806  0.00  0.00    +0.000 A 
ATOM      6  C   UNL     1       1.007   9.153  20.019  0.00  0.00    +0.000 A 
ATOM      7  C   UNL     1       1.635   7.935  20.232  0.00  0.00    +0.000 A 
ATOM      8  C   UNL     1       2.419   7.464  19.211  0.00  0.00    +0.000 A 
ATOM      9  C   UNL     1       3.188   6.232  19.197  0.00  0.00    +0.000 C 
ATOM     10  O   UNL     1       3.309   5.497  20.154  0.00  0.00    +0.000 OA
ENDROOT
BRANCH   5  11
ATOM     11  N   UNL     1       0.455  11.086  18.589  0.00  0.00    +0.000 N 
ATOM     12  C   UNL     1       0.979  12.385  18.529  0.00  0.00    +0.000 A 
ATOM     13  N   UNL     1       2.290  12.585  18.265  0.00  0.00    +0.000 NA
ATOM     14  C   UNL     1       2.802  13.821  18.361  0.00  0.00    +0.000 A 
ATOM     15  C   UNL     1       2.019  14.869  18.703  0.00  0.00    +0.000 A 
ATOM     16  C   UNL     1       0.698  14.599  18.914  0.00  0.00    +0.000 A 
ATOM     17  N   UNL     1       0.132  13.383  18.840  0.00  0.00    +0.000 NA
ATOM     18  C   UNL     1       0.022  15.864  19.331  0.00  0.00    +0.000 C 
ATOM     19  O   UNL     1       1.017  16.898  19.095  0.00  0.00    +0.000 OA
ATOM     20  C   UNL     1       2.319  16.281  18.971  0.00  0.00    +0.000 C 
ATOM     21  H   UNL     1      -0.499  11.139  18.913  0.00  0.00    +0.000 HD
ENDBRANCH   5  11
BRANCH   1  26
ATOM     22  O   UNL     1       4.336   1.824  20.159  0.00  0.00    +0.000 OA
ATOM     23  C   UNL     1       4.409   2.728  19.328  0.00  0.00    +0.000 C 
ATOM     24  C   UNL     1       3.362   2.908  18.252  0.00  0.00    +0.000 C 
ATOM     25  C   UNL     1       3.851   3.755  17.089  0.00  0.00    +0.000 C 
ATOM     26  C   UNL     1       4.597   5.022  17.508  0.00  0.00    +0.000 C 
ATOM     27  C   UNL     1       5.654   4.733  18.577  0.00  0.00    +0.000 C 
ATOM     28  O   UNL     1       6.583   5.510  18.810  0.00  0.00    +0.000 OA
ATOM     29  N   UNL     1       5.457   3.614  19.351  0.00  0.00    +0.000 N 
ATOM     30  H   UNL     1       6.107   3.488  20.114  0.00  0.00    +0.000 HD
ENDBRANCH   1  26
TORSDOF 2
ENDMDL
MODEL 5
REMARK VINA RESULT:      -9.1      5.764      7.031
REMARK  Name = 
REMARK  2 active torsions:
REMARK  status: ('A' for Active; 'I' for Inactive)
REMARK    1  A    between atoms: C_5  and  N_6
REMARK    2  A    between atoms: C_10  and  N_11
REMARK                            x       y       z     vdW  Elec       q    Type
REMARK                         _______ _______ _______ _____ _____    ______ ____
ROOT
ATOM      1  N   UNL     1       4.019   5.689  18.908  0.00  0.00    +0.000 N 
ATOM      2  C   UNL     1       3.116   5.991  20.015  0.00  0.00    +0.000 C 
ATOM      3  C   UNL     1       2.414   7.224  19.536  0.00  0.00    +0.000 A 
ATOM      4  C   UNL     1       1.461   8.032  20.141  0.00  0.00    +0.000 A 
ATOM      5  C   UNL     1       1.000   9.180  19.456  0.00  0.00    +0.000 A 
ATOM      6  C   UNL     1       1.489   9.434  18.152  0.00  0.00    +0.000 A 
ATOM      7  C   UNL     1       2.438   8.625  17.543  0.00  0.00    +0.000 A 
ATOM      8  C   UNL     1       2.866   7.538  18.258  0.00  0.00    +0.000 A 
ATOM      9  C   UNL     1       3.832   6.539  17.837  0.00  0.00    +0.000 C 
ATOM     10  O   UNL     1       4.318   6.492  16.727  0.00  0.00    +0.000 OA
ENDROOT
BRANCH   5  11
ATOM     11  N   UNL     1       0.070  10.036  20.078  0.00  0.00    +0.000 N 
ATOM     12  C   UNL     1       0.245  11.363  20.496  0.00  0.00    +0.000 A 
ATOM     13  N   UNL     1       1.232  12.124  19.969  0.00  0.00    +0.000 NA
ATOM     14  C   UNL     1       1.478  13.336  20.488  0.00  0.00    +0.000 A 
ATOM     15  C   UNL     1       0.743  13.810  21.519  0.00  0.00    +0.000 A 
ATOM     16  C   UNL     1      -0.262  13.004  21.971  0.00  0.00    +0.000 A 
ATOM     17  N   UNL     1      -0.550  11.781  21.497  0.00  0.00    +0.000 NA
ATOM     18  C   UNL     1      -0.913  13.677  23.135  0.00  0.00    +0.000 C 
ATOM     19  O   UNL     1      -0.354  15.020  23.134  0.00  0.00    +0.000 OA
ATOM     20  C   UNL     1       0.848  15.030  22.329  0.00  0.00    +0.000 C 
ATOM     21  H   UNL     1      -0.628   9.604  20.665  0.00  0.00    +0.000 HD
ENDBRANCH   5  11
BRANCH   1  26
ATOM     22  O   UNL     1       7.629   4.806  15.751  0.00  0.00    +0.000 OA
ATOM     23  C   UNL     1       6.876   4.710  16.718  0.00  0.00    +0.000 C 
ATOM     24  C   UNL     1       7.139   5.452  18.010  0.00  0.00    +0.000 C 
ATOM     25  C   UNL     1       6.384   4.866  19.192  0.00  0.00    +0.000 C 
ATOM     26  C   UNL     1       4.919   4.541  18.899  0.00  0.00    +0.000 C 
ATOM     27  C   UNL     1       4.758   3.765  17.588  0.00  0.00    +0.000 C 
ATOM     28  O   UNL     1       3.742   3.116  17.329  0.00  0.00    +0.000 OA
ATOM     29  N   UNL     1       5.756   3.917  16.657  0.00  0.00    +0.000 N 
ATOM     30  H   UNL     1       5.592   3.479  15.762  0.00  0.00    +0.000 HD
ENDBRANCH   1  26
TORSDOF 2
ENDMDL
MODEL 6
REMARK VINA RESULT:      -9.0      6.118      7.730
REMARK  Name = 
REMARK  2 active torsions:
REMARK  status: ('A' for Active; 'I' for Inactive)
REMARK    1  A    between atoms: C_5  and  N_6
REMARK    2  A    between atoms: C_10  and  N_11
REMARK                            x       y       z     vdW  Elec       q    Type
REMARK                         _______ _______ _______ _____ _____    ______ ____
ROOT
ATOM      1  N   UNL     1       3.880   6.178  18.265  0.00  0.00    +0.000 N 
ATOM      2  C   UNL     1       3.182   6.072  19.544  0.00  0.00    +0.000 C 
ATOM      3  C   UNL     1       2.371   7.330  19.577  0.00  0.00    +0.000 A 
ATOM      4  C   UNL     1       1.519   7.850  20.543  0.00  0.00    +0.000 A 
ATOM      5  C   UNL     1       0.910   9.105  20.318  0.00  0.00    +0.000 A 
ATOM      6  C   UNL     1       1.150   9.766  19.090  0.00  0.00    +0.000 A 
ATOM      7  C   UNL     1       1.996   9.247  18.120  0.00  0.00    +0.000 A 
ATOM      8  C   UNL     1       2.576   8.037  18.397  0.00  0.00    +0.000 A 
ATOM      9  C   UNL     1       3.478   7.284  17.544  0.00  0.00    +0.000 C 
ATOM     10  O   UNL     1       3.758   7.601  16.407  0.00  0.00    +0.000 OA
ENDROOT
BRANCH   5  11
ATOM     11  N   UNL     1       0.084   9.667  21.312  0.00  0.00    +0.000 N 
ATOM     12  C   UNL     1      -0.740  10.798  21.229  0.00  0.00    +0.000 A 
ATOM     13  N   UNL     1      -1.156  11.257  20.027  0.00  0.00    +0.000 NA
ATOM     14  C   UNL     1      -1.815  12.423  19.958  0.00  0.00    +0.000 A 
ATOM     15  C   UNL     1      -2.082  13.134  21.077  0.00  0.00    +0.000 A 
ATOM     16  C   UNL     1      -1.669  12.588  22.258  0.00  0.00    +0.000 A 
ATOM     17  N   UNL     1      -1.000  11.431  22.387  0.00  0.00    +0.000 NA
ATOM     18  C   UNL     1      -2.006  13.542  23.358  0.00  0.00    +0.000 C 
ATOM     19  O   UNL     1      -2.854  14.539  22.723  0.00  0.00    +0.000 OA
ATOM     20  C   UNL     1      -2.688  14.455  21.288  0.00  0.00    +0.000 C 
ATOM     21  H   UNL     1       0.380   9.555  22.270  0.00  0.00    +0.000 HD
ENDBRANCH   5  11
BRANCH   1  26
ATOM     22  O   UNL     1       3.672   1.378  19.098  0.00  0.00    +0.000 OA
ATOM     23  C   UNL     1       4.013   2.470  18.647  0.00  0.00    +0.000 C 
ATOM     24  C   UNL     1       3.343   3.078  17.435  0.00  0.00    +0.000 C 
ATOM     25  C   UNL     1       4.179   4.165  16.780  0.00  0.00    +0.000 C 
ATOM     26  C   UNL     1       4.795   5.158  17.766  0.00  0.00    +0.000 C 
ATOM     27  C   UNL     1       5.475   4.449  18.941  0.00  0.00    +0.000 C 
ATOM     28  O   UNL     1       6.308   5.011  19.654  0.00  0.00    +0.000 OA
ATOM     29  N   UNL     1       5.027   3.184  19.238  0.00  0.00    +0.000 N 
ATOM     30  H   UNL     1       5.414   2.766  20.072  0.00  0.00    +0.000 HD
ENDBRANCH   1  26
TORSDOF 2
ENDMDL
MODEL 7
REMARK VINA RESULT:      -9.0      5.186      5.815
REMARK  Name = 
REMARK  2 active torsions:
REMARK  status: ('A' for Active; 'I' for Inactive)
REMARK    1  A    between atoms: C_5  and  N_6
REMARK    2  A    between atoms: C_10  and  N_11
REMARK                            x       y       z     vdW  Elec       q    Type
REMARK                         _______ _______ _______ _____ _____    ______ ____
ROOT
ATOM      1  N   UNL     1       2.791   6.412  18.375  0.00  0.00    +0.000 N 
ATOM      2  C   UNL     1       2.864   7.557  17.471  0.00  0.00    +0.000 C 
ATOM      3  C   UNL     1       2.148   8.624  18.240  0.00  0.00    +0.000 A 
ATOM      4  C   UNL     1       1.838   9.938  17.916  0.00  0.00    +0.000 A 
ATOM      5  C   UNL     1       1.100  10.716  18.837  0.00  0.00    +0.000 A 
ATOM      6  C   UNL     1       0.749  10.142  20.082  0.00  0.00    +0.000 A 
ATOM      7  C   UNL     1       1.062   8.831  20.411  0.00  0.00    +0.000 A 
ATOM      8  C   UNL     1       1.760   8.115  19.474  0.00  0.00    +0.000 A 
ATOM      9  C   UNL     1       2.217   6.741  19.586  0.00  0.00    +0.000 C 
ATOM     10  O   UNL     1       2.117   6.073  20.594  0.00  0.00    +0.000 OA
ENDROOT
BRANCH   5  11
ATOM     11  N   UNL     1       0.735  12.035  18.501  0.00  0.00    +0.000 N 
ATOM     12  C   UNL     1       1.546  13.176  18.426  0.00  0.00    +0.000 A 
ATOM     13  N   UNL     1       2.885  13.057  18.272  0.00  0.00    +0.000 NA
ATOM     14  C   UNL     1       3.657  14.151  18.355  0.00  0.00    +0.000 A 
ATOM     15  C   UNL     1       3.112  15.368  18.574  0.00  0.00    +0.000 A 
ATOM     16  C   UNL     1       1.752  15.417  18.677  0.00  0.00    +0.000 A 
ATOM     17  N   UNL     1       0.930  14.357  18.611  0.00  0.00    +0.000 NA
ATOM     18  C   UNL     1       1.354  16.827  18.969  0.00  0.00    +0.000 C 
ATOM     19  O   UNL     1       2.576  17.593  18.775  0.00  0.00    +0.000 OA
ATOM     20  C   UNL     1       3.707  16.692  18.799  0.00  0.00    +0.000 C 
ATOM     21  H   UNL     1      -0.204  12.323  18.734  0.00  0.00    +0.000 HD
ENDBRANCH   5  11
BRANCH   1  26
ATOM     22  O   UNL     1       1.805   2.156  20.543  0.00  0.00    +0.000 OA
ATOM     23  C   UNL     1       2.264   2.990  19.763  0.00  0.00    +0.000 C 
ATOM     24  C   UNL     1       1.511   3.423  18.525  0.00  0.00    +0.000 C 
ATOM     25  C   UNL     1       2.406   4.084  17.490  0.00  0.00    +0.000 C 
ATOM     26  C   UNL     1       3.378   5.112  18.070  0.00  0.00    +0.000 C 
ATOM     27  C   UNL     1       4.113   4.572  19.299  0.00  0.00    +0.000 C 
ATOM     28  O   UNL     1       5.160   5.075  19.714  0.00  0.00    +0.000 OA
ATOM     29  N   UNL     1       3.490   3.563  19.995  0.00  0.00    +0.000 N 
ATOM     30  H   UNL     1       3.937   3.283  20.856  0.00  0.00    +0.000 HD
ENDBRANCH   1  26
TORSDOF 2
ENDMDL
MODEL 8
REMARK VINA RESULT:      -8.9      7.231     10.109
REMARK  Name = 
REMARK  2 active torsions:
REMARK  status: ('A' for Active; 'I' for Inactive)
REMARK    1  A    between atoms: C_5  and  N_6
REMARK    2  A    between atoms: C_10  and  N_11
REMARK                            x       y       z     vdW  Elec       q    Type
REMARK                         _______ _______ _______ _____ _____    ______ ____
ROOT
ATOM      1  N   UNL     1      -1.386  12.079  20.498  0.00  0.00    +0.000 N 
ATOM      2  C   UNL     1      -0.895  11.153  21.516  0.00  0.00    +0.000 C 
ATOM      3  C   UNL     1       0.016  10.260  20.731  0.00  0.00    +0.000 A 
ATOM      4  C   UNL     1       0.762   9.150  21.106  0.00  0.00    +0.000 A 
ATOM      5  C   UNL     1       1.510   8.463  20.124  0.00  0.00    +0.000 A 
ATOM      6  C   UNL     1       1.514   8.963  18.800  0.00  0.00    +0.000 A 
ATOM      7  C   UNL     1       0.775  10.075  18.423  0.00  0.00    +0.000 A 
ATOM      8  C   UNL     1       0.051  10.692  19.410  0.00  0.00    +0.000 A 
ATOM      9  C   UNL     1      -0.783  11.874  19.274  0.00  0.00    +0.000 C 
ATOM     10  O   UNL     1      -0.863  12.533  18.259  0.00  0.00    +0.000 OA
ENDROOT
BRANCH   5  11
ATOM     11  N   UNL     1       2.231   7.306  20.480  0.00  0.00    +0.000 N 
ATOM     12  C   UNL     1       2.451   6.145  19.727  0.00  0.00    +0.000 A 
ATOM     13  N   UNL     1       2.333   6.168  18.379  0.00  0.00    +0.000 NA
ATOM     14  C   UNL     1       2.399   5.019  17.691  0.00  0.00    +0.000 A 
ATOM     15  C   UNL     1       2.597   3.842  18.327  0.00  0.00    +0.000 A 
ATOM     16  C   UNL     1       2.750   3.901  19.682  0.00  0.00    +0.000 A 
ATOM     17  N   UNL     1       2.686   5.018  20.423  0.00  0.00    +0.000 NA
ATOM     18  C   UNL     1       2.902   2.506  20.197  0.00  0.00    +0.000 C 
ATOM     19  O   UNL     1       3.069   1.697  19.000  0.00  0.00    +0.000 OA
ATOM     20  C   UNL     1       2.617   2.453  17.852  0.00  0.00    +0.000 C 
ATOM     21  H   UNL     1       2.248   7.061  21.459  0.00  0.00    +0.000 HD
ENDBRANCH   5  11
BRANCH   1  26
ATOM     22  O   UNL     1      -4.658  12.286  24.106  0.00  0.00    +0.000 OA
ATOM     23  C   UNL     1      -3.956  12.606  23.149  0.00  0.00    +0.000 C 
ATOM     24  C   UNL     1      -2.561  13.161  23.333  0.00  0.00    +0.000 C 
ATOM     25  C   UNL     1      -2.053  13.900  22.106  0.00  0.00    +0.000 C 
ATOM     26  C   UNL     1      -2.308  13.171  20.787  0.00  0.00    +0.000 C 
ATOM     27  C   UNL     1      -3.753  12.673  20.681  0.00  0.00    +0.000 C 
ATOM     28  O   UNL     1      -4.267  12.372  19.601  0.00  0.00    +0.000 OA
ATOM     29  N   UNL     1      -4.421  12.466  21.864  0.00  0.00    +0.000 N 
ATOM     30  H   UNL     1      -5.336  12.047  21.784  0.00  0.00    +0.000 HD
ENDBRANCH   1  26
TORSDOF 2
ENDMDL
MODEL 9
REMARK VINA RESULT:      -8.8      5.811      6.515
REMARK  Name = 
REMARK  2 active torsions:
REMARK  status: ('A' for Active; 'I' for Inactive)
REMARK    1  A    between atoms: C_5  and  N_6
REMARK    2  A    between atoms: C_10  and  N_11
REMARK                            x       y       z     vdW  Elec       q    Type
REMARK                         _______ _______ _______ _____ _____    ______ ____
ROOT
ATOM      1  N   UNL     1       3.793   6.125  18.119  0.00  0.00    +0.000 N 
ATOM      2  C   UNL     1       3.544   7.367  17.392  0.00  0.00    +0.000 C 
ATOM      3  C   UNL     1       2.584   8.083  18.291  0.00  0.00    +0.000 A 
ATOM      4  C   UNL     1       1.930   9.301  18.155  0.00  0.00    +0.000 A 
ATOM      5  C   UNL     1       1.029   9.712  19.162  0.00  0.00    +0.000 A 
ATOM      6  C   UNL     1       0.864   8.891  20.303  0.00  0.00    +0.000 A 
ATOM      7  C   UNL     1       1.519   7.676  20.445  0.00  0.00    +0.000 A 
ATOM      8  C   UNL     1       2.366   7.315  19.430  0.00  0.00    +0.000 A 
ATOM      9  C   UNL     1       3.173   6.110  19.351  0.00  0.00    +0.000 C 
ATOM     10  O   UNL     1       3.271   5.300  20.249  0.00  0.00    +0.000 OA
ENDROOT
BRANCH   5  11
ATOM     11  N   UNL     1       0.321  10.922  19.013  0.00  0.00    +0.000 N 
ATOM     12  C   UNL     1       0.580  12.166  19.603  0.00  0.00    +0.000 A 
ATOM     13  N   UNL     1       1.811  12.456  20.084  0.00  0.00    +0.000 NA
ATOM     14  C   UNL     1       1.998  13.588  20.778  0.00  0.00    +0.000 A 
ATOM     15  C   UNL     1       0.977  14.448  20.990  0.00  0.00    +0.000 A 
ATOM     16  C   UNL     1      -0.226  14.110  20.440  0.00  0.00    +0.000 A 
ATOM     17  N   UNL     1      -0.475  12.989  19.743  0.00  0.00    +0.000 NA
ATOM     18  C   UNL     1      -1.227  15.150  20.828  0.00  0.00    +0.000 C 
ATOM     19  O   UNL     1      -0.430  16.210  21.426  0.00  0.00    +0.000 OA
ATOM     20  C   UNL     1       0.871  15.684  21.774  0.00  0.00    +0.000 C 
ATOM     21  H   UNL     1      -0.669  10.853  18.830  0.00  0.00    +0.000 HD
ENDBRANCH   5  11
BRANCH   1  26
ATOM     22  O   UNL     1       3.783   1.412  19.369  0.00  0.00    +0.000 OA
ATOM     23  C   UNL     1       4.060   2.468  18.803  0.00  0.00    +0.000 C 
ATOM     24  C   UNL     1       3.287   2.953  17.597  0.00  0.00    +0.000 C 
ATOM     25  C   UNL     1       4.042   3.998  16.792  0.00  0.00    +0.000 C 
ATOM     26  C   UNL     1       4.699   5.086  17.641  0.00  0.00    +0.000 C 
ATOM     27  C   UNL     1       5.481   4.497  18.818  0.00  0.00    +0.000 C 
ATOM     28  O   UNL     1       6.348   5.137  19.417  0.00  0.00    +0.000 OA
ATOM     29  N   UNL     1       5.093   3.253  19.254  0.00  0.00    +0.000 N 
ATOM     30  H   UNL     1       5.550   2.918  20.090  0.00  0.00    +0.000 HD
ENDBRANCH   1  26
TORSDOF 2
ENDMDL
