MODEL 1
REMARK VINA RESULT:      -8.2      0.000      0.000
REMARK  Name = 
REMARK  3 active torsions:
REMARK  status: ('A' for Active; 'I' for Inactive)
REMARK    1  A    between atoms: C_2  and  C_17
REMARK    2  A    between atoms: N_3  and  C_4
REMARK    3  A    between atoms: C_6  and  C_7
REMARK                            x       y       z     vdW  Elec       q    Type
REMARK                         _______ _______ _______ _____ _____    ______ ____
ROOT
ATOM      1  C   UNL     1       1.049   9.280  18.358  0.00  0.00    +0.000 C 
ATOM      2  C   UNL     1       2.378   9.762  17.862  0.00  0.00    +0.000 C 
ATOM      3  C   UNL     1       1.982   8.319  17.650  0.00  0.00    +0.000 C 
ENDROOT
BRANCH   3   4
ATOM      4  C   UNL     1       2.742   7.216  18.368  0.00  0.00    +0.000 A 
ATOM      5  C   UNL     1       2.291   6.748  19.618  0.00  0.00    +0.000 A 
ATOM      6  C   UNL     1       2.904   5.672  20.260  0.00  0.00    +0.000 A 
ATOM      7  C   UNL     1       3.978   5.023  19.657  0.00  0.00    +0.000 A 
ATOM      8  C   UNL     1       4.460   5.448  18.414  0.00  0.00    +0.000 A 
ATOM      9  C   UNL     1       5.532   4.773  17.800  0.00  0.00    +0.000 A 
ATOM     10  C   UNL     1       6.024   5.180  16.562  0.00  0.00    +0.000 A 
ATOM     11  C   UNL     1       5.453   6.271  15.921  0.00  0.00    +0.000 A 
ATOM     12  C   UNL     1       4.381   6.941  16.513  0.00  0.00    +0.000 A 
ATOM     13  C   UNL     1       3.854   6.553  17.766  0.00  0.00    +0.000 A 
ENDBRANCH   3   4
BRANCH   1  16
ATOM     14  O   UNL     1      -1.113  10.555  19.617  0.00  0.00    +0.000 OA
ATOM     15  C   UNL     1      -1.183  10.299  18.418  0.00  0.00    +0.000 C 
ATOM     16  N   UNL     1      -0.153   9.718  17.711  0.00  0.00    +0.000 N 
ATOM     17  H   UNL     1      -0.218   9.616  16.708  0.00  0.00    +0.000 HD
BRANCH  15  18
ATOM     18  C   UNL     1      -2.403  10.635  17.616  0.00  0.00    +0.000 A 
ATOM     19  C   UNL     1      -3.537  11.376  18.143  0.00  0.00    +0.000 A 
ATOM     20  C   UNL     1      -4.573  11.663  17.343  0.00  0.00    +0.000 A 
ATOM     21  N   UNL     1      -4.561  11.268  16.033  0.00  0.00    +0.000 N 
ATOM     22  C   UNL     1      -3.522  10.591  15.442  0.00  0.00    +0.000 A 
ATOM     23  O   UNL     1      -3.534  10.266  14.261  0.00  0.00    +0.000 OA
ATOM     24  C   UNL     1      -2.374  10.272  16.321  0.00  0.00    +0.000 A 
ATOM     25  H   UNL     1      -5.339  11.492  15.421  0.00  0.00    +0.000 HD
ENDBRANCH  15  18
ENDBRANCH   1  16
TORSDOF 3
ENDMDL
MODEL 2
REMARK VINA RESULT:      -8.1      5.526      8.607
REMARK  Name = 
REMARK  3 active torsions:
REMARK  status: ('A' for Active; 'I' for Inactive)
REMARK    1  A    between atoms: C_2  and  C_17
REMARK    2  A    between atoms: N_3  and  C_4
REMARK    3  A    between atoms: C_6  and  C_7
REMARK                            x       y       z     vdW  Elec       q    Type
REMARK                         _______ _______ _______ _____ _____    ______ ____
ROOT
ATOM      1  C   UNL     1       4.545   3.108  17.456  0.00  0.00    +0.000 C 
ATOM      2  C   UNL     1       3.576   1.990  17.694  0.00  0.00    +0.000 C 
ATOM      3  C   UNL     1       3.064   3.407  17.576  0.00  0.00    +0.000 C 
ENDROOT
BRANCH   3   4
ATOM      4  C   UNL     1       2.448   4.088  18.787  0.00  0.00    +0.000 A 
ATOM      5  C   UNL     1       2.060   3.323  19.904  0.00  0.00    +0.000 A 
ATOM      6  C   UNL     1       1.584   3.923  21.070  0.00  0.00    +0.000 A 
ATOM      7  C   UNL     1       1.500   5.310  21.155  0.00  0.00    +0.000 A 
ATOM      8  C   UNL     1       1.877   6.114  20.073  0.00  0.00    +0.000 A 
ATOM      9  C   UNL     1       1.811   7.516  20.173  0.00  0.00    +0.000 A 
ATOM     10  C   UNL     1       2.185   8.332  19.108  0.00  0.00    +0.000 A 
ATOM     11  C   UNL     1       2.627   7.757  17.925  0.00  0.00    +0.000 A 
ATOM     12  C   UNL     1       2.710   6.368  17.816  0.00  0.00    +0.000 A 
ATOM     13  C   UNL     1       2.344   5.510  18.878  0.00  0.00    +0.000 A 
ENDBRANCH   3   4
BRANCH   1  16
ATOM     14  O   UNL     1       5.968   5.353  16.552  0.00  0.00    +0.000 OA
ATOM     15  C   UNL     1       5.840   4.385  15.809  0.00  0.00    +0.000 C 
ATOM     16  N   UNL     1       5.199   3.225  16.186  0.00  0.00    +0.000 N 
ATOM     17  H   UNL     1       5.203   2.418  15.577  0.00  0.00    +0.000 HD
BRANCH  15  18
ATOM     18  C   UNL     1       6.411   4.380  14.423  0.00  0.00    +0.000 A 
ATOM     19  C   UNL     1       5.926   3.522  13.353  0.00  0.00    +0.000 A 
ATOM     20  C   UNL     1       6.473   3.608  12.133  0.00  0.00    +0.000 A 
ATOM     21  N   UNL     1       7.478   4.507  11.891  0.00  0.00    +0.000 N 
ATOM     22  C   UNL     1       7.977   5.375  12.831  0.00  0.00    +0.000 A 
ATOM     23  O   UNL     1       8.865   6.179  12.578  0.00  0.00    +0.000 OA
ATOM     24  C   UNL     1       7.376   5.284  14.181  0.00  0.00    +0.000 A 
ATOM     25  H   UNL     1       7.887   4.582  10.967  0.00  0.00    +0.000 HD
ENDBRANCH  15  18
ENDBRANCH   1  16
TORSDOF 3
ENDMDL
MODEL 3
REMARK VINA RESULT:      -8.0      5.992      8.554
REMARK  Name = 
REMARK  3 active torsions:
REMARK  status: ('A' for Active; 'I' for Inactive)
REMARK    1  A    between atoms: C_2  and  C_17
REMARK    2  A    between atoms: N_3  and  C_4
REMARK    3  A    between atoms: C_6  and  C_7
REMARK                            x       y       z     vdW  Elec       q    Type
REMARK                         _______ _______ _______ _____ _____    ______ ____
ROOT
ATOM      1  C   UNL     1       6.476   6.628  17.036  0.00  0.00    +0.000 C 
ATOM      2  C   UNL     1       6.035   6.190  15.672  0.00  0.00    +0.000 C 
ATOM      3  C   UNL     1       4.998   6.492  16.730  0.00  0.00    +0.000 C 
ENDROOT
BRANCH   3   4
ATOM      4  C   UNL     1       4.135   5.369  17.280  0.00  0.00    +0.000 A 
ATOM      5  C   UNL     1       4.279   4.060  16.780  0.00  0.00    +0.000 A 
ATOM      6  C   UNL     1       3.576   2.987  17.328  0.00  0.00    +0.000 A 
ATOM      7  C   UNL     1       2.720   3.194  18.406  0.00  0.00    +0.000 A 
ATOM      8  C   UNL     1       2.545   4.476  18.941  0.00  0.00    +0.000 A 
ATOM      9  C   UNL     1       1.695   4.675  20.045  0.00  0.00    +0.000 A 
ATOM     10  C   UNL     1       1.511   5.942  20.592  0.00  0.00    +0.000 A 
ATOM     11  C   UNL     1       2.172   7.031  20.040  0.00  0.00    +0.000 A 
ATOM     12  C   UNL     1       3.028   6.846  18.953  0.00  0.00    +0.000 A 
ATOM     13  C   UNL     1       3.242   5.573  18.376  0.00  0.00    +0.000 A 
ENDBRANCH   3   4
BRANCH   1  16
ATOM     14  O   UNL     1       8.530   7.271  18.839  0.00  0.00    +0.000 OA
ATOM     15  C   UNL     1       8.032   8.160  18.156  0.00  0.00    +0.000 C 
ATOM     16  N   UNL     1       7.054   7.928  17.214  0.00  0.00    +0.000 N 
ATOM     17  H   UNL     1       6.744   8.673  16.606  0.00  0.00    +0.000 HD
BRANCH  15  18
ATOM     18  C   UNL     1       8.483   9.585  18.274  0.00  0.00    +0.000 A 
ATOM     19  C   UNL     1       7.982  10.662  17.436  0.00  0.00    +0.000 A 
ATOM     20  C   UNL     1       8.414  11.914  17.634  0.00  0.00    +0.000 A 
ATOM     21  N   UNL     1       9.319  12.181  18.627  0.00  0.00    +0.000 N 
ATOM     22  C   UNL     1       9.823  11.233  19.484  0.00  0.00    +0.000 A 
ATOM     23  O   UNL     1      10.618  11.506  20.374  0.00  0.00    +0.000 OA
ATOM     24  C   UNL     1       9.347   9.847  19.270  0.00  0.00    +0.000 A 
ATOM     25  H   UNL     1       9.641  13.129  18.787  0.00  0.00    +0.000 HD
ENDBRANCH  15  18
ENDBRANCH   1  16
TORSDOF 3
ENDMDL
MODEL 4
REMARK VINA RESULT:      -8.0      5.858      8.244
REMARK  Name = 
REMARK  3 active torsions:
REMARK  status: ('A' for Active; 'I' for Inactive)
REMARK    1  A    between atoms: C_2  and  C_17
REMARK    2  A    between atoms: N_3  and  C_4
REMARK    3  A    between atoms: C_6  and  C_7
REMARK                            x       y       z     vdW  Elec       q    Type
REMARK                         _______ _______ _______ _____ _____    ______ ____
ROOT
ATOM      1  C   UNL     1       6.436   6.439  17.017  0.00  0.00    +0.000 C 
ATOM      2  C   UNL     1       6.006   6.008  15.649  0.00  0.00    +0.000 C 
ATOM      3  C   UNL     1       4.962   6.276  16.708  0.00  0.00    +0.000 C 
ENDROOT
BRANCH   3   4
ATOM      4  C   UNL     1       4.122   5.128  17.243  0.00  0.00    +0.000 A 
ATOM      5  C   UNL     1       4.276   3.833  16.710  0.00  0.00    +0.000 A 
ATOM      6  C   UNL     1       3.595   2.739  17.243  0.00  0.00    +0.000 A 
ATOM      7  C   UNL     1       2.752   2.909  18.338  0.00  0.00    +0.000 A 
ATOM      8  C   UNL     1       2.569   4.175  18.905  0.00  0.00    +0.000 A 
ATOM      9  C   UNL     1       1.734   4.336  20.026  0.00  0.00    +0.000 A 
ATOM     10  C   UNL     1       1.541   5.588  20.606  0.00  0.00    +0.000 A 
ATOM     11  C   UNL     1       2.180   6.698  20.071  0.00  0.00    +0.000 A 
ATOM     12  C   UNL     1       3.022   6.550  18.968  0.00  0.00    +0.000 A 
ATOM     13  C   UNL     1       3.243   5.295  18.357  0.00  0.00    +0.000 A 
ENDBRANCH   3   4
BRANCH   1  16
ATOM     14  O   UNL     1       8.490   7.099  18.814  0.00  0.00    +0.000 OA
ATOM     15  C   UNL     1       7.967   7.988  18.149  0.00  0.00    +0.000 C 
ATOM     16  N   UNL     1       6.986   7.749  17.211  0.00  0.00    +0.000 N 
ATOM     17  H   UNL     1       6.655   8.496  16.618  0.00  0.00    +0.000 HD
BRANCH  15  18
ATOM     18  C   UNL     1       8.387   9.420  18.286  0.00  0.00    +0.000 A 
ATOM     19  C   UNL     1       9.460   9.866  19.160  0.00  0.00    +0.000 A 
ATOM     20  C   UNL     1       9.793  11.163  19.195  0.00  0.00    +0.000 A 
ATOM     21  N   UNL     1       9.132  12.065  18.404  0.00  0.00    +0.000 N 
ATOM     22  C   UNL     1       8.127  11.731  17.529  0.00  0.00    +0.000 A 
ATOM     23  O   UNL     1       7.566  12.559  16.823  0.00  0.00    +0.000 OA
ATOM     24  C   UNL     1       7.756  10.298  17.486  0.00  0.00    +0.000 A 
ATOM     25  H   UNL     1       9.387  13.046  18.420  0.00  0.00    +0.000 HD
ENDBRANCH  15  18
ENDBRANCH   1  16
TORSDOF 3
ENDMDL
MODEL 5
REMARK VINA RESULT:      -7.9      0.983      1.407
REMARK  Name = 
REMARK  3 active torsions:
REMARK  status: ('A' for Active; 'I' for Inactive)
REMARK    1  A    between atoms: C_2  and  C_17
REMARK    2  A    between atoms: N_3  and  C_4
REMARK    3  A    between atoms: C_6  and  C_7
REMARK                            x       y       z     vdW  Elec       q    Type
REMARK                         _______ _______ _______ _____ _____    ______ ____
ROOT
ATOM      1  C   UNL     1       1.099   9.253  18.348  0.00  0.00    +0.000 C 
ATOM      2  C   UNL     1       2.448   9.713  17.885  0.00  0.00    +0.000 C 
ATOM      3  C   UNL     1       2.028   8.281  17.649  0.00  0.00    +0.000 C 
ENDROOT
BRANCH   3   4
ATOM      4  C   UNL     1       2.751   7.155  18.371  0.00  0.00    +0.000 A 
ATOM      5  C   UNL     1       2.262   6.680  19.604  0.00  0.00    +0.000 A 
ATOM      6  C   UNL     1       2.841   5.585  20.246  0.00  0.00    +0.000 A 
ATOM      7  C   UNL     1       3.917   4.924  19.660  0.00  0.00    +0.000 A 
ATOM      8  C   UNL     1       4.436   5.356  18.434  0.00  0.00    +0.000 A 
ATOM      9  C   UNL     1       5.509   4.669  17.837  0.00  0.00    +0.000 A 
ATOM     10  C   UNL     1       6.038   5.083  16.616  0.00  0.00    +0.000 A 
ATOM     11  C   UNL     1       5.502   6.192  15.976  0.00  0.00    +0.000 A 
ATOM     12  C   UNL     1       4.428   6.874  16.551  0.00  0.00    +0.000 A 
ATOM     13  C   UNL     1       3.865   6.480  17.786  0.00  0.00    +0.000 A 
ENDBRANCH   3   4
BRANCH   1  16
ATOM     14  O   UNL     1      -1.085  10.511  19.585  0.00  0.00    +0.000 OA
ATOM     15  C   UNL     1      -1.124  10.290  18.378  0.00  0.00    +0.000 C 
ATOM     16  N   UNL     1      -0.080   9.721  17.682  0.00  0.00    +0.000 N 
ATOM     17  H   UNL     1      -0.118   9.650  16.675  0.00  0.00    +0.000 HD
BRANCH  15  18
ATOM     18  C   UNL     1      -2.318  10.662  17.552  0.00  0.00    +0.000 A 
ATOM     19  C   UNL     1      -2.481  10.291  16.156  0.00  0.00    +0.000 A 
ATOM     20  C   UNL     1      -3.598  10.636  15.502  0.00  0.00    +0.000 A 
ATOM     21  N   UNL     1      -4.588  11.327  16.148  0.00  0.00    +0.000 N 
ATOM     22  C   UNL     1      -4.534  11.693  17.471  0.00  0.00    +0.000 A 
ATOM     23  O   UNL     1      -5.444  12.297  18.025  0.00  0.00    +0.000 OA
ATOM     24  C   UNL     1      -3.301  11.314  18.199  0.00  0.00    +0.000 A 
ATOM     25  H   UNL     1      -5.440  11.581  15.660  0.00  0.00    +0.000 HD
ENDBRANCH  15  18
ENDBRANCH   1  16
TORSDOF 3
ENDMDL
MODEL 6
REMARK VINA RESULT:      -7.9      5.413      8.508
REMARK  Name = 
REMARK  3 active torsions:
REMARK  status: ('A' for Active; 'I' for Inactive)
REMARK    1  A    between atoms: C_2  and  C_17
REMARK    2  A    between atoms: N_3  and  C_4
REMARK    3  A    between atoms: C_6  and  C_7
REMARK                            x       y       z     vdW  Elec       q    Type
REMARK                         _______ _______ _______ _____ _____    ______ ____
ROOT
ATOM      1  C   UNL     1       4.600   3.276  17.504  0.00  0.00    +0.000 C 
ATOM      2  C   UNL     1       3.644   2.159  17.796  0.00  0.00    +0.000 C 
ATOM      3  C   UNL     1       3.118   3.567  17.632  0.00  0.00    +0.000 C 
ENDROOT
BRANCH   3   4
ATOM      4  C   UNL     1       2.512   4.287  18.826  0.00  0.00    +0.000 A 
ATOM      5  C   UNL     1       2.177   3.565  19.988  0.00  0.00    +0.000 A 
ATOM      6  C   UNL     1       1.712   4.206  21.137  0.00  0.00    +0.000 A 
ATOM      7  C   UNL     1       1.587   5.592  21.158  0.00  0.00    +0.000 A 
ATOM      8  C   UNL     1       1.911   6.354  20.029  0.00  0.00    +0.000 A 
ATOM      9  C   UNL     1       1.803   7.756  20.064  0.00  0.00    +0.000 A 
ATOM     10  C   UNL     1       2.123   8.531  18.951  0.00  0.00    +0.000 A 
ATOM     11  C   UNL     1       2.554   7.913  17.786  0.00  0.00    +0.000 A 
ATOM     12  C   UNL     1       2.678   6.523  17.741  0.00  0.00    +0.000 A 
ATOM     13  C   UNL     1       2.365   5.707  18.852  0.00  0.00    +0.000 A 
ENDBRANCH   3   4
BRANCH   1  16
ATOM     14  O   UNL     1       5.781   5.571  16.399  0.00  0.00    +0.000 OA
ATOM     15  C   UNL     1       5.753   4.535  15.741  0.00  0.00    +0.000 C 
ATOM     16  N   UNL     1       5.236   3.352  16.222  0.00  0.00    +0.000 N 
ATOM     17  H   UNL     1       5.323   2.501  15.683  0.00  0.00    +0.000 HD
BRANCH  15  18
ATOM     18  C   UNL     1       6.318   4.471  14.355  0.00  0.00    +0.000 A 
ATOM     19  C   UNL     1       7.417   5.304  13.893  0.00  0.00    +0.000 A 
ATOM     20  C   UNL     1       7.884   5.157  12.646  0.00  0.00    +0.000 A 
ATOM     21  N   UNL     1       7.335   4.220  11.812  0.00  0.00    +0.000 N 
ATOM     22  C   UNL     1       6.317   3.371  12.171  0.00  0.00    +0.000 A 
ATOM     23  O   UNL     1       5.859   2.531  11.407  0.00  0.00    +0.000 OA
ATOM     24  C   UNL     1       5.798   3.529  13.549  0.00  0.00    +0.000 A 
ATOM     25  H   UNL     1       7.693   4.098  10.871  0.00  0.00    +0.000 HD
ENDBRANCH  15  18
ENDBRANCH   1  16
TORSDOF 3
ENDMDL
MODEL 7
REMARK VINA RESULT:      -7.9      3.886      8.100
REMARK  Name = 
REMARK  3 active torsions:
REMARK  status: ('A' for Active; 'I' for Inactive)
REMARK    1  A    between atoms: C_2  and  C_17
REMARK    2  A    between atoms: N_3  and  C_4
REMARK    3  A    between atoms: C_6  and  C_7
REMARK                            x       y       z     vdW  Elec       q    Type
REMARK                         _______ _______ _______ _____ _____    ______ ____
ROOT
ATOM      1  C   UNL     1       1.514   8.493  21.000  0.00  0.00    +0.000 C 
ATOM      2  C   UNL     1       1.144   9.148  22.295  0.00  0.00    +0.000 C 
ATOM      3  C   UNL     1       0.227   9.286  21.102  0.00  0.00    +0.000 C 
ENDROOT
BRANCH   3   4
ATOM      4  C   UNL     1       0.035  10.647  20.454  0.00  0.00    +0.000 A 
ATOM      5  C   UNL     1       0.749  11.763  20.934  0.00  0.00    +0.000 A 
ATOM      6  C   UNL     1       0.673  13.005  20.303  0.00  0.00    +0.000 A 
ATOM      7  C   UNL     1      -0.107  13.158  19.160  0.00  0.00    +0.000 A 
ATOM      8  C   UNL     1      -0.831  12.079  18.642  0.00  0.00    +0.000 A 
ATOM      9  C   UNL     1      -1.600  12.235  17.474  0.00  0.00    +0.000 A 
ATOM     10  C   UNL     1      -2.326  11.172  16.942  0.00  0.00    +0.000 A 
ATOM     11  C   UNL     1      -2.295   9.936  17.574  0.00  0.00    +0.000 A 
ATOM     12  C   UNL     1      -1.526   9.763  18.725  0.00  0.00    +0.000 A 
ATOM     13  C   UNL     1      -0.774  10.819  19.290  0.00  0.00    +0.000 A 
ENDBRANCH   3   4
BRANCH   1  16
ATOM     14  O   UNL     1       2.825   6.967  19.041  0.00  0.00    +0.000 OA
ATOM     15  C   UNL     1       2.110   6.401  19.863  0.00  0.00    +0.000 C 
ATOM     16  N   UNL     1       1.467   7.065  20.885  0.00  0.00    +0.000 N 
ATOM     17  H   UNL     1       0.970   6.547  21.596  0.00  0.00    +0.000 HD
BRANCH  15  18
ATOM     18  C   UNL     1       1.907   4.917  19.835  0.00  0.00    +0.000 A 
ATOM     19  C   UNL     1       1.796   4.140  18.610  0.00  0.00    +0.000 A 
ATOM     20  C   UNL     1       1.651   2.810  18.677  0.00  0.00    +0.000 A 
ATOM     21  N   UNL     1       1.614   2.183  19.894  0.00  0.00    +0.000 N 
ATOM     22  C   UNL     1       1.740   2.830  21.099  0.00  0.00    +0.000 A 
ATOM     23  O   UNL     1       1.721   2.238  22.170  0.00  0.00    +0.000 OA
ATOM     24  C   UNL     1       1.902   4.301  21.030  0.00  0.00    +0.000 A 
ATOM     25  H   UNL     1       1.514   1.175  19.949  0.00  0.00    +0.000 HD
ENDBRANCH  15  18
ENDBRANCH   1  16
TORSDOF 3
ENDMDL
MODEL 8
REMARK VINA RESULT:      -7.8      3.835      7.892
REMARK  Name = 
REMARK  3 active torsions:
REMARK  status: ('A' for Active; 'I' for Inactive)
REMARK    1  A    between atoms: C_2  and  C_17
REMARK    2  A    between atoms: N_3  and  C_4
REMARK    3  A    between atoms: C_6  and  C_7
REMARK                            x       y       z     vdW  Elec       q    Type
REMARK                         _______ _______ _______ _____ _____    ______ ____
ROOT
ATOM      1  C   UNL     1       1.553   8.445  21.033  0.00  0.00    +0.000 C 
ATOM      2  C   UNL     1       1.137   9.070  22.330  0.00  0.00    +0.000 C 
ATOM      3  C   UNL     1       0.254   9.220  21.112  0.00  0.00    +0.000 C 
ENDROOT
BRANCH   3   4
ATOM      4  C   UNL     1       0.064  10.592  20.486  0.00  0.00    +0.000 A 
ATOM      5  C   UNL     1       0.774  11.701  20.988  0.00  0.00    +0.000 A 
ATOM      6  C   UNL     1       0.700  12.952  20.376  0.00  0.00    +0.000 A 
ATOM      7  C   UNL     1      -0.074  13.123  19.232  0.00  0.00    +0.000 A 
ATOM      8  C   UNL     1      -0.794  12.052  18.693  0.00  0.00    +0.000 A 
ATOM      9  C   UNL     1      -1.557  12.226  17.523  0.00  0.00    +0.000 A 
ATOM     10  C   UNL     1      -2.279  11.170  16.971  0.00  0.00    +0.000 A 
ATOM     11  C   UNL     1      -2.250   9.925  17.582  0.00  0.00    +0.000 A 
ATOM     12  C   UNL     1      -1.487   9.734  18.735  0.00  0.00    +0.000 A 
ATOM     13  C   UNL     1      -0.740  10.782  19.320  0.00  0.00    +0.000 A 
ENDBRANCH   3   4
BRANCH   1  16
ATOM     14  O   UNL     1       2.927   6.975  19.074  0.00  0.00    +0.000 OA
ATOM     15  C   UNL     1       2.202   6.384  19.869  0.00  0.00    +0.000 C 
ATOM     16  N   UNL     1       1.529   7.019  20.889  0.00  0.00    +0.000 N 
ATOM     17  H   UNL     1       1.023   6.480  21.579  0.00  0.00    +0.000 HD
BRANCH  15  18
ATOM     18  C   UNL     1       2.020   4.898  19.807  0.00  0.00    +0.000 A 
ATOM     19  C   UNL     1       1.619   4.086  20.945  0.00  0.00    +0.000 A 
ATOM     20  C   UNL     1       1.446   2.767  20.791  0.00  0.00    +0.000 A 
ATOM     21  N   UNL     1       1.635   2.186  19.566  0.00  0.00    +0.000 N 
ATOM     22  C   UNL     1       1.984   2.877  18.431  0.00  0.00    +0.000 A 
ATOM     23  O   UNL     1       2.129   2.330  17.345  0.00  0.00    +0.000 OA
ATOM     24  C   UNL     1       2.177   4.336  18.596  0.00  0.00    +0.000 A 
ATOM     25  H   UNL     1       1.495   1.189  19.443  0.00  0.00    +0.000 HD
ENDBRANCH  15  18
ENDBRANCH   1  16
TORSDOF 3
ENDMDL
MODEL 9
REMARK VINA RESULT:      -7.7      4.002      8.863
REMARK  Name = 
REMARK  3 active torsions:
REMARK  status: ('A' for Active; 'I' for Inactive)
REMARK    1  A    between atoms: C_2  and  C_17
REMARK    2  A    between atoms: N_3  and  C_4
REMARK    3  A    between atoms: C_6  and  C_7
REMARK                            x       y       z     vdW  Elec       q    Type
REMARK                         _______ _______ _______ _____ _____    ______ ____
ROOT
ATOM      1  C   UNL     1       1.472   8.541  20.989  0.00  0.00    +0.000 C 
ATOM      2  C   UNL     1       1.120   9.183  22.296  0.00  0.00    +0.000 C 
ATOM      3  C   UNL     1       0.079   9.096  21.205  0.00  0.00    +0.000 C 
ENDROOT
BRANCH   3   4
ATOM      4  C   UNL     1      -0.422  10.368  20.540  0.00  0.00    +0.000 A 
ATOM      5  C   UNL     1      -0.287  10.536  19.148  0.00  0.00    +0.000 A 
ATOM      6  C   UNL     1      -0.822  11.643  18.490  0.00  0.00    +0.000 A 
ATOM      7  C   UNL     1      -1.525  12.607  19.208  0.00  0.00    +0.000 A 
ATOM      8  C   UNL     1      -1.690  12.483  20.593  0.00  0.00    +0.000 A 
ATOM      9  C   UNL     1      -2.420  13.449  21.309  0.00  0.00    +0.000 A 
ATOM     10  C   UNL     1      -2.597  13.341  22.687  0.00  0.00    +0.000 A 
ATOM     11  C   UNL     1      -2.043  12.267  23.368  0.00  0.00    +0.000 A 
ATOM     12  C   UNL     1      -1.327  11.294  22.668  0.00  0.00    +0.000 A 
ATOM     13  C   UNL     1      -1.132  11.370  21.270  0.00  0.00    +0.000 A 
ENDBRANCH   3   4
BRANCH   1  16
ATOM     14  O   UNL     1       2.697   7.161  18.873  0.00  0.00    +0.000 OA
ATOM     15  C   UNL     1       2.249   6.526  19.824  0.00  0.00    +0.000 C 
ATOM     16  N   UNL     1       1.675   7.123  20.924  0.00  0.00    +0.000 N 
ATOM     17  H   UNL     1       1.410   6.568  21.726  0.00  0.00    +0.000 HD
BRANCH  15  18
ATOM     18  C   UNL     1       2.326   5.030  19.873  0.00  0.00    +0.000 A 
ATOM     19  C   UNL     1       2.884   4.215  18.805  0.00  0.00    +0.000 A 
ATOM     20  C   UNL     1       2.945   2.885  18.948  0.00  0.00    +0.000 A 
ATOM     21  N   UNL     1       2.492   2.294  20.097  0.00  0.00    +0.000 N 
ATOM     22  C   UNL     1       1.978   2.985  21.167  0.00  0.00    +0.000 A 
ATOM     23  O   UNL     1       1.597   2.429  22.189  0.00  0.00    +0.000 OA
ATOM     24  C   UNL     1       1.909   4.457  21.015  0.00  0.00    +0.000 A 
ATOM     25  H   UNL     1       2.546   1.288  20.213  0.00  0.00    +0.000 HD
ENDBRANCH  15  18
ENDBRANCH   1  16
TORSDOF 3
ENDMDL
