MODEL 1
REMARK VINA RESULT:      -8.1      0.000      0.000
REMARK  Name = 
REMARK  7 active torsions:
REMARK  status: ('A' for Active; 'I' for Inactive)
REMARK    1  A    between atoms: C_1  and  C_2
REMARK    2  A    between atoms: C_4  and  C_5
REMARK    3  A    between atoms: C_9  and  N_10
REMARK    4  A    between atoms: C_11  and  C_13
REMARK    5  A    between atoms: C_13  and  C_14
REMARK    6  A    between atoms: C_17  and  N_18
REMARK    7  A    between atoms: C_19  and  C_21
REMARK                            x       y       z     vdW  Elec       q    Type
REMARK                         _______ _______ _______ _____ _____    ______ ____
ROOT
ATOM      1  N   UNL     1       8.467   9.595  17.795  0.00  0.00    +0.000 N 
ATOM      2  C   UNL     1       8.271   8.245  18.073  0.00  0.00    +0.000 C 
ATOM      3  O   UNL     1       8.707   7.632  19.045  0.00  0.00    +0.000 OA
ATOM      4  H   UNL     1       7.877  10.010  17.083  0.00  0.00    +0.000 HD
ENDROOT
BRANCH   1   9
ATOM      5  C   UNL     1       9.462  11.742  20.663  0.00  0.00    +0.000 A 
ATOM      6  C   UNL     1      10.757  12.115  20.277  0.00  0.00    +0.000 A 
ATOM      7  C   UNL     1      11.272  11.716  19.049  0.00  0.00    +0.000 A 
ATOM      8  C   UNL     1      10.509  10.913  18.205  0.00  0.00    +0.000 A 
ATOM      9  C   UNL     1       9.230  10.491  18.580  0.00  0.00    +0.000 A 
ATOM     10  C   UNL     1       8.692  10.949  19.793  0.00  0.00    +0.000 A 
BRANCH   5  14
ATOM     11  C   UNL     1       7.117  11.575  24.990  0.00  0.00    +0.000 C 
ATOM     12  C   UNL     1       7.925  11.991  23.825  0.00  0.00    +0.000 A 
ATOM     13  N   UNL     1       8.250  11.273  22.775  0.00  0.00    +0.000 NA
ATOM     14  C   UNL     1       8.974  12.140  21.981  0.00  0.00    +0.000 A 
ATOM     15  N   UNL     1       9.124  13.361  22.522  0.00  0.00    +0.000 NA
ATOM     16  N   UNL     1       8.448  13.241  23.676  0.00  0.00    +0.000 N 
ATOM     17  H   UNL     1       8.373  14.040  24.295  0.00  0.00    +0.000 HD
ENDBRANCH   5  14
ENDBRANCH   1   9
BRANCH   2  18
ATOM     18  C   UNL     1       7.412   7.528  17.051  0.00  0.00    +0.000 C 
BRANCH  18  19
ATOM     19  C   UNL     1       6.254   6.772  17.655  0.00  0.00    +0.000 A 
ATOM     20  C   UNL     1       4.950   7.092  17.275  0.00  0.00    +0.000 A 
ATOM     21  C   UNL     1       3.865   6.359  17.762  0.00  0.00    +0.000 A 
ATOM     22  C   UNL     1       4.054   5.290  18.639  0.00  0.00    +0.000 A 
ATOM     23  C   UNL     1       5.358   4.976  19.037  0.00  0.00    +0.000 A 
ATOM     24  C   UNL     1       6.449   5.709  18.547  0.00  0.00    +0.000 A 
BRANCH  22  25
ATOM     25  N   UNL     1       2.992   4.493  19.131  0.00  0.00    +0.000 N 
ATOM     26  C   UNL     1       1.994   4.900  19.994  0.00  0.00    +0.000 C 
ATOM     27  O   UNL     1       1.877   6.000  20.510  0.00  0.00    +0.000 OA
ATOM     28  H   UNL     1       2.959   3.538  18.800  0.00  0.00    +0.000 HD
BRANCH  26  29
ATOM     29  C   UNL     1       0.983   3.845  20.305  0.00  0.00    +0.000 C 
ATOM     30  C   UNL     1       1.278   2.819  21.379  0.00  0.00    +0.000 C 
ATOM     31  C   UNL     1       1.282   2.409  19.935  0.00  0.00    +0.000 C 
ENDBRANCH  26  29
ENDBRANCH  22  25
ENDBRANCH  18  19
ENDBRANCH   2  18
TORSDOF 6
ENDMDL
MODEL 2
REMARK VINA RESULT:      -8.1      6.279      9.702
REMARK  Name = 
REMARK  7 active torsions:
REMARK  status: ('A' for Active; 'I' for Inactive)
REMARK    1  A    between atoms: C_1  and  C_2
REMARK    2  A    between atoms: C_4  and  C_5
REMARK    3  A    between atoms: C_9  and  N_10
REMARK    4  A    between atoms: C_11  and  C_13
REMARK    5  A    between atoms: C_13  and  C_14
REMARK    6  A    between atoms: C_17  and  N_18
REMARK    7  A    between atoms: C_19  and  C_21
REMARK                            x       y       z     vdW  Elec       q    Type
REMARK                         _______ _______ _______ _____ _____    ______ ____
ROOT
ATOM      1  N   UNL     1       1.690   7.424  20.615  0.00  0.00    +0.000 N 
ATOM      2  C   UNL     1       1.602   8.537  19.783  0.00  0.00    +0.000 C 
ATOM      3  O   UNL     1       1.866   8.570  18.583  0.00  0.00    +0.000 OA
ATOM      4  H   UNL     1       1.240   7.489  21.521  0.00  0.00    +0.000 HD
ENDROOT
BRANCH   1   9
ATOM      5  C   UNL     1       3.822   4.774  19.112  0.00  0.00    +0.000 A 
ATOM      6  C   UNL     1       3.160   3.621  19.554  0.00  0.00    +0.000 A 
ATOM      7  C   UNL     1       1.982   3.717  20.286  0.00  0.00    +0.000 A 
ATOM      8  C   UNL     1       1.468   4.970  20.611  0.00  0.00    +0.000 A 
ATOM      9  C   UNL     1       2.127   6.139  20.220  0.00  0.00    +0.000 A 
ATOM     10  C   UNL     1       3.282   6.034  19.427  0.00  0.00    +0.000 A 
BRANCH   5  14
ATOM     11  C   UNL     1       7.022   4.441  15.383  0.00  0.00    +0.000 C 
ATOM     12  C   UNL     1       6.396   4.490  16.721  0.00  0.00    +0.000 A 
ATOM     13  N   UNL     1       5.143   4.749  17.013  0.00  0.00    +0.000 NA
ATOM     14  C   UNL     1       5.083   4.633  18.388  0.00  0.00    +0.000 A 
ATOM     15  N   UNL     1       6.265   4.333  18.951  0.00  0.00    +0.000 NA
ATOM     16  N   UNL     1       7.070   4.241  17.880  0.00  0.00    +0.000 N 
ATOM     17  H   UNL     1       8.045   3.996  18.009  0.00  0.00    +0.000 HD
ENDBRANCH   5  14
ENDBRANCH   1   9
BRANCH   2  18
ATOM     18  C   UNL     1       1.107   9.787  20.482  0.00  0.00    +0.000 C 
BRANCH  18  19
ATOM     19  C   UNL     1      -0.060  10.448  19.791  0.00  0.00    +0.000 A 
ATOM     20  C   UNL     1      -0.407  10.056  18.497  0.00  0.00    +0.000 A 
ATOM     21  C   UNL     1      -1.527  10.599  17.863  0.00  0.00    +0.000 A 
ATOM     22  C   UNL     1      -2.328  11.545  18.503  0.00  0.00    +0.000 A 
ATOM     23  C   UNL     1      -1.975  11.955  19.794  0.00  0.00    +0.000 A 
ATOM     24  C   UNL     1      -0.852  11.410  20.433  0.00  0.00    +0.000 A 
BRANCH  22  25
ATOM     25  N   UNL     1      -3.493  12.097  17.919  0.00  0.00    +0.000 N 
ATOM     26  C   UNL     1      -4.735  11.498  17.842  0.00  0.00    +0.000 C 
ATOM     27  O   UNL     1      -5.030  10.376  18.227  0.00  0.00    +0.000 OA
ATOM     28  H   UNL     1      -3.405  13.030  17.538  0.00  0.00    +0.000 HD
BRANCH  26  29
ATOM     29  C   UNL     1      -5.788  12.344  17.204  0.00  0.00    +0.000 C 
ATOM     30  C   UNL     1      -6.327  13.551  17.942  0.00  0.00    +0.000 C 
ATOM     31  C   UNL     1      -7.187  12.332  17.778  0.00  0.00    +0.000 C 
ENDBRANCH  26  29
ENDBRANCH  22  25
ENDBRANCH  18  19
ENDBRANCH   2  18
TORSDOF 6
ENDMDL
MODEL 3
REMARK VINA RESULT:      -8.0      5.829      8.741
REMARK  Name = 
REMARK  7 active torsions:
REMARK  status: ('A' for Active; 'I' for Inactive)
REMARK    1  A    between atoms: C_1  and  C_2
REMARK    2  A    between atoms: C_4  and  C_5
REMARK    3  A    between atoms: C_9  and  N_10
REMARK    4  A    between atoms: C_11  and  C_13
REMARK    5  A    between atoms: C_13  and  C_14
REMARK    6  A    between atoms: C_17  and  N_18
REMARK    7  A    between atoms: C_19  and  C_21
REMARK                            x       y       z     vdW  Elec       q    Type
REMARK                         _______ _______ _______ _____ _____    ______ ____
ROOT
ATOM      1  N   UNL     1       1.607   7.474  20.857  0.00  0.00    +0.000 N 
ATOM      2  C   UNL     1       2.321   7.054  19.738  0.00  0.00    +0.000 C 
ATOM      3  O   UNL     1       2.464   7.681  18.690  0.00  0.00    +0.000 OA
ATOM      4  H   UNL     1       1.752   6.957  21.717  0.00  0.00    +0.000 HD
ENDROOT
BRANCH   1   9
ATOM      5  C   UNL     1      -0.443  10.417  19.876  0.00  0.00    +0.000 A 
ATOM      6  C   UNL     1      -0.678  11.004  21.127  0.00  0.00    +0.000 A 
ATOM      7  C   UNL     1      -0.108  10.470  22.278  0.00  0.00    +0.000 A 
ATOM      8  C   UNL     1       0.679   9.324  22.194  0.00  0.00    +0.000 A 
ATOM      9  C   UNL     1       0.897   8.692  20.966  0.00  0.00    +0.000 A 
ATOM     10  C   UNL     1       0.371   9.272  19.801  0.00  0.00    +0.000 A 
BRANCH   5  14
ATOM     11  C   UNL     1      -2.835  10.681  15.580  0.00  0.00    +0.000 C 
ATOM     12  C   UNL     1      -2.125  11.003  16.835  0.00  0.00    +0.000 A 
ATOM     13  N   UNL     1      -1.734  10.172  17.772  0.00  0.00    +0.000 NA
ATOM     14  C   UNL     1      -1.098  10.978  18.697  0.00  0.00    +0.000 A 
ATOM     15  N   UNL     1      -1.107  12.280  18.367  0.00  0.00    +0.000 NA
ATOM     16  N   UNL     1      -1.752  12.266  17.189  0.00  0.00    +0.000 N 
ATOM     17  H   UNL     1      -1.887  13.135  16.685  0.00  0.00    +0.000 HD
ENDBRANCH   5  14
ENDBRANCH   1   9
BRANCH   2  18
ATOM     18  C   UNL     1       2.977   5.699  19.903  0.00  0.00    +0.000 C 
BRANCH  18  19
ATOM     19  C   UNL     1       3.708   5.223  18.671  0.00  0.00    +0.000 A 
ATOM     20  C   UNL     1       3.326   4.028  18.061  0.00  0.00    +0.000 A 
ATOM     21  C   UNL     1       3.936   3.603  16.879  0.00  0.00    +0.000 A 
ATOM     22  C   UNL     1       4.941   4.359  16.275  0.00  0.00    +0.000 A 
ATOM     23  C   UNL     1       5.341   5.550  16.891  0.00  0.00    +0.000 A 
ATOM     24  C   UNL     1       4.728   5.980  18.078  0.00  0.00    +0.000 A 
BRANCH  22  25
ATOM     25  N   UNL     1       5.564   3.991  15.059  0.00  0.00    +0.000 N 
ATOM     26  C   UNL     1       6.747   4.499  14.557  0.00  0.00    +0.000 C 
ATOM     27  O   UNL     1       7.435   5.377  15.055  0.00  0.00    +0.000 OA
ATOM     28  H   UNL     1       5.101   3.274  14.517  0.00  0.00    +0.000 HD
BRANCH  26  29
ATOM     29  C   UNL     1       7.180   3.886  13.265  0.00  0.00    +0.000 C 
ATOM     30  C   UNL     1       7.027   4.668  11.978  0.00  0.00    +0.000 C 
ATOM     31  C   UNL     1       6.130   3.497  12.249  0.00  0.00    +0.000 C 
ENDBRANCH  26  29
ENDBRANCH  22  25
ENDBRANCH  18  19
ENDBRANCH   2  18
TORSDOF 6
ENDMDL
MODEL 4
REMARK VINA RESULT:      -8.0      5.450      8.695
REMARK  Name = 
REMARK  7 active torsions:
REMARK  status: ('A' for Active; 'I' for Inactive)
REMARK    1  A    between atoms: C_1  and  C_2
REMARK    2  A    between atoms: C_4  and  C_5
REMARK    3  A    between atoms: C_9  and  N_10
REMARK    4  A    between atoms: C_11  and  C_13
REMARK    5  A    between atoms: C_13  and  C_14
REMARK    6  A    between atoms: C_17  and  N_18
REMARK    7  A    between atoms: C_19  and  C_21
REMARK                            x       y       z     vdW  Elec       q    Type
REMARK                         _______ _______ _______ _____ _____    ______ ____
ROOT
ATOM      1  N   UNL     1       4.107   5.761  19.263  0.00  0.00    +0.000 N 
ATOM      2  C   UNL     1       3.215   4.872  19.858  0.00  0.00    +0.000 C 
ATOM      3  O   UNL     1       3.368   3.659  19.976  0.00  0.00    +0.000 OA
ATOM      4  H   UNL     1       3.952   6.749  19.427  0.00  0.00    +0.000 HD
ENDROOT
BRANCH   1   9
ATOM      5  C   UNL     1       6.589   4.898  16.632  0.00  0.00    +0.000 A 
ATOM      6  C   UNL     1       7.773   4.885  17.381  0.00  0.00    +0.000 A 
ATOM      7  C   UNL     1       7.745   5.093  18.756  0.00  0.00    +0.000 A 
ATOM      8  C   UNL     1       6.533   5.347  19.393  0.00  0.00    +0.000 A 
ATOM      9  C   UNL     1       5.340   5.408  18.667  0.00  0.00    +0.000 A 
ATOM     10  C   UNL     1       5.368   5.134  17.290  0.00  0.00    +0.000 A 
BRANCH   5  14
ATOM     11  C   UNL     1       5.754   3.106  12.122  0.00  0.00    +0.000 C 
ATOM     12  C   UNL     1       6.255   3.885  13.273  0.00  0.00    +0.000 A 
ATOM     13  N   UNL     1       5.856   3.821  14.522  0.00  0.00    +0.000 NA
ATOM     14  C   UNL     1       6.665   4.724  15.184  0.00  0.00    +0.000 A 
ATOM     15  N   UNL     1       7.533   5.357  14.376  0.00  0.00    +0.000 NA
ATOM     16  N   UNL     1       7.259   4.805  13.183  0.00  0.00    +0.000 N 
ATOM     17  H   UNL     1       7.793   5.086  12.370  0.00  0.00    +0.000 HD
ENDBRANCH   5  14
ENDBRANCH   1   9
BRANCH   2  18
ATOM     18  C   UNL     1       1.968   5.534  20.409  0.00  0.00    +0.000 C 
BRANCH  18  19
ATOM     19  C   UNL     1       1.808   6.974  19.990  0.00  0.00    +0.000 A 
ATOM     20  C   UNL     1       2.044   7.337  18.663  0.00  0.00    +0.000 A 
ATOM     21  C   UNL     1       1.831   8.648  18.233  0.00  0.00    +0.000 A 
ATOM     22  C   UNL     1       1.379   9.631  19.115  0.00  0.00    +0.000 A 
ATOM     23  C   UNL     1       1.157   9.277  20.451  0.00  0.00    +0.000 A 
ATOM     24  C   UNL     1       1.368   7.960  20.885  0.00  0.00    +0.000 A 
BRANCH  22  25
ATOM     25  N   UNL     1       1.112  10.964  18.721  0.00  0.00    +0.000 N 
ATOM     26  C   UNL     1      -0.085  11.637  18.864  0.00  0.00    +0.000 C 
ATOM     27  O   UNL     1      -1.127  11.188  19.316  0.00  0.00    +0.000 OA
ATOM     28  H   UNL     1       1.884  11.472  18.310  0.00  0.00    +0.000 HD
BRANCH  26  29
ATOM     29  C   UNL     1      -0.053  13.054  18.391  0.00  0.00    +0.000 C 
ATOM     30  C   UNL     1       0.845  14.055  19.086  0.00  0.00    +0.000 C 
ATOM     31  C   UNL     1      -0.642  14.135  19.269  0.00  0.00    +0.000 C 
ENDBRANCH  26  29
ENDBRANCH  22  25
ENDBRANCH  18  19
ENDBRANCH   2  18
TORSDOF 6
ENDMDL
MODEL 5
REMARK VINA RESULT:      -7.9      5.815      9.042
REMARK  Name = 
REMARK  7 active torsions:
REMARK  status: ('A' for Active; 'I' for Inactive)
REMARK    1  A    between atoms: C_1  and  C_2
REMARK    2  A    between atoms: C_4  and  C_5
REMARK    3  A    between atoms: C_9  and  N_10
REMARK    4  A    between atoms: C_11  and  C_13
REMARK    5  A    between atoms: C_13  and  C_14
REMARK    6  A    between atoms: C_17  and  N_18
REMARK    7  A    between atoms: C_19  and  C_21
REMARK                            x       y       z     vdW  Elec       q    Type
REMARK                         _______ _______ _______ _____ _____    ______ ____
ROOT
ATOM      1  N   UNL     1       1.620   8.197  20.538  0.00  0.00    +0.000 N 
ATOM      2  C   UNL     1       2.140   7.672  19.358  0.00  0.00    +0.000 C 
ATOM      3  O   UNL     1       1.958   8.111  18.224  0.00  0.00    +0.000 OA
ATOM      4  H   UNL     1       2.024   7.867  21.407  0.00  0.00    +0.000 HD
ENDROOT
BRANCH   1   9
ATOM      5  C   UNL     1      -0.986  10.680  19.605  0.00  0.00    +0.000 A 
ATOM      6  C   UNL     1      -1.090  11.413  20.795  0.00  0.00    +0.000 A 
ATOM      7  C   UNL     1      -0.258  11.133  21.874  0.00  0.00    +0.000 A 
ATOM      8  C   UNL     1       0.666  10.096  21.785  0.00  0.00    +0.000 A 
ATOM      9  C   UNL     1       0.765   9.320  20.627  0.00  0.00    +0.000 A 
ATOM     10  C   UNL     1      -0.034   9.648  19.520  0.00  0.00    +0.000 A 
BRANCH   5  14
ATOM     11  C   UNL     1      -3.031  10.656  15.125  0.00  0.00    +0.000 C 
ATOM     12  C   UNL     1      -2.723  10.914  16.547  0.00  0.00    +0.000 A 
ATOM     13  N   UNL     1      -1.788  10.356  17.281  0.00  0.00    +0.000 NA
ATOM     14  C   UNL     1      -1.910  10.971  18.511  0.00  0.00    +0.000 A 
ATOM     15  N   UNL     1      -2.904  11.873  18.563  0.00  0.00    +0.000 NA
ATOM     16  N   UNL     1      -3.393  11.822  17.313  0.00  0.00    +0.000 N 
ATOM     17  H   UNL     1      -4.159  12.432  17.053  0.00  0.00    +0.000 HD
ENDBRANCH   5  14
ENDBRANCH   1   9
BRANCH   2  18
ATOM     18  C   UNL     1       3.024   6.459  19.565  0.00  0.00    +0.000 C 
BRANCH  18  19
ATOM     19  C   UNL     1       3.603   5.903  18.286  0.00  0.00    +0.000 A 
ATOM     20  C   UNL     1       4.422   6.707  17.493  0.00  0.00    +0.000 A 
ATOM     21  C   UNL     1       5.029   6.195  16.345  0.00  0.00    +0.000 A 
ATOM     22  C   UNL     1       4.834   4.868  15.958  0.00  0.00    +0.000 A 
ATOM     23  C   UNL     1       3.999   4.061  16.740  0.00  0.00    +0.000 A 
ATOM     24  C   UNL     1       3.390   4.574  17.895  0.00  0.00    +0.000 A 
BRANCH  22  25
ATOM     25  N   UNL     1       5.455   4.290  14.825  0.00  0.00    +0.000 N 
ATOM     26  C   UNL     1       6.733   4.550  14.369  0.00  0.00    +0.000 C 
ATOM     27  O   UNL     1       7.528   5.349  14.839  0.00  0.00    +0.000 OA
ATOM     28  H   UNL     1       4.911   3.608  14.315  0.00  0.00    +0.000 HD
BRANCH  26  29
ATOM     29  C   UNL     1       7.130   3.755  13.169  0.00  0.00    +0.000 C 
ATOM     30  C   UNL     1       7.081   4.395  11.797  0.00  0.00    +0.000 C 
ATOM     31  C   UNL     1       6.069   3.352  12.170  0.00  0.00    +0.000 C 
ENDBRANCH  26  29
ENDBRANCH  22  25
ENDBRANCH  18  19
ENDBRANCH   2  18
TORSDOF 6
ENDMDL
MODEL 6
REMARK VINA RESULT:      -7.9      6.554      9.751
REMARK  Name = 
REMARK  7 active torsions:
REMARK  status: ('A' for Active; 'I' for Inactive)
REMARK    1  A    between atoms: C_1  and  C_2
REMARK    2  A    between atoms: C_4  and  C_5
REMARK    3  A    between atoms: C_9  and  N_10
REMARK    4  A    between atoms: C_11  and  C_13
REMARK    5  A    between atoms: C_13  and  C_14
REMARK    6  A    between atoms: C_17  and  N_18
REMARK    7  A    between atoms: C_19  and  C_21
REMARK                            x       y       z     vdW  Elec       q    Type
REMARK                         _______ _______ _______ _____ _____    ______ ____
ROOT
ATOM      1  N   UNL     1       1.807   8.305  19.610  0.00  0.00    +0.000 N 
ATOM      2  C   UNL     1       1.783   9.105  18.471  0.00  0.00    +0.000 C 
ATOM      3  O   UNL     1       2.129   8.770  17.340  0.00  0.00    +0.000 OA
ATOM      4  H   UNL     1       1.297   8.640  20.419  0.00  0.00    +0.000 HD
ENDROOT
BRANCH   1   9
ATOM      5  C   UNL     1       3.846   5.283  18.875  0.00  0.00    +0.000 A 
ATOM      6  C   UNL     1       3.346   4.389  19.831  0.00  0.00    +0.000 A 
ATOM      7  C   UNL     1       2.298   4.759  20.667  0.00  0.00    +0.000 A 
ATOM      8  C   UNL     1       1.758   6.039  20.577  0.00  0.00    +0.000 A 
ATOM      9  C   UNL     1       2.263   6.967  19.662  0.00  0.00    +0.000 A 
ATOM     10  C   UNL     1       3.278   6.567  18.778  0.00  0.00    +0.000 A 
BRANCH   5  14
ATOM     11  C   UNL     1       6.500   4.072  14.908  0.00  0.00    +0.000 C 
ATOM     12  C   UNL     1       6.051   4.357  16.286  0.00  0.00    +0.000 A 
ATOM     13  N   UNL     1       4.890   4.834  16.671  0.00  0.00    +0.000 NA
ATOM     14  C   UNL     1       4.979   4.875  18.048  0.00  0.00    +0.000 A 
ATOM     15  N   UNL     1       6.166   4.460  18.520  0.00  0.00    +0.000 NA
ATOM     16  N   UNL     1       6.817   4.133  17.392  0.00  0.00    +0.000 N 
ATOM     17  H   UNL     1       7.756   3.758  17.450  0.00  0.00    +0.000 HD
ENDBRANCH   5  14
ENDBRANCH   1   9
BRANCH   2  18
ATOM     18  C   UNL     1       1.249  10.502  18.714  0.00  0.00    +0.000 C 
BRANCH  18  19
ATOM     19  C   UNL     1      -0.244  10.622  18.530  0.00  0.00    +0.000 A 
ATOM     20  C   UNL     1      -0.971  11.493  19.341  0.00  0.00    +0.000 A 
ATOM     21  C   UNL     1      -2.341  11.679  19.142  0.00  0.00    +0.000 A 
ATOM     22  C   UNL     1      -3.020  11.000  18.130  0.00  0.00    +0.000 A 
ATOM     23  C   UNL     1      -2.299  10.111  17.324  0.00  0.00    +0.000 A 
ATOM     24  C   UNL     1      -0.923   9.925  17.520  0.00  0.00    +0.000 A 
BRANCH  22  25
ATOM     25  N   UNL     1      -4.398  11.180  17.863  0.00  0.00    +0.000 N 
ATOM     26  C   UNL     1      -5.249  12.057  18.506  0.00  0.00    +0.000 C 
ATOM     27  O   UNL     1      -4.970  12.796  19.438  0.00  0.00    +0.000 OA
ATOM     28  H   UNL     1      -4.787  10.621  17.116  0.00  0.00    +0.000 HD
BRANCH  26  29
ATOM     29  C   UNL     1      -6.647  12.056  17.978  0.00  0.00    +0.000 C 
ATOM     30  C   UNL     1      -7.181  13.284  17.272  0.00  0.00    +0.000 C 
ATOM     31  C   UNL     1      -7.684  12.934  18.642  0.00  0.00    +0.000 C 
ENDBRANCH  26  29
ENDBRANCH  22  25
ENDBRANCH  18  19
ENDBRANCH   2  18
TORSDOF 6
ENDMDL
MODEL 7
REMARK VINA RESULT:      -7.9      6.707     10.132
REMARK  Name = 
REMARK  7 active torsions:
REMARK  status: ('A' for Active; 'I' for Inactive)
REMARK    1  A    between atoms: C_1  and  C_2
REMARK    2  A    between atoms: C_4  and  C_5
REMARK    3  A    between atoms: C_9  and  N_10
REMARK    4  A    between atoms: C_11  and  C_13
REMARK    5  A    between atoms: C_13  and  C_14
REMARK    6  A    between atoms: C_17  and  N_18
REMARK    7  A    between atoms: C_19  and  C_21
REMARK                            x       y       z     vdW  Elec       q    Type
REMARK                         _______ _______ _______ _____ _____    ______ ____
ROOT
ATOM      1  N   UNL     1       1.881   8.332  19.547  0.00  0.00    +0.000 N 
ATOM      2  C   UNL     1       0.970   8.963  20.390  0.00  0.00    +0.000 C 
ATOM      3  O   UNL     1       0.344   8.437  21.308  0.00  0.00    +0.000 OA
ATOM      4  H   UNL     1       2.476   8.927  18.982  0.00  0.00    +0.000 HD
ENDROOT
BRANCH   1   9
ATOM      5  C   UNL     1       3.503   5.110  18.642  0.00  0.00    +0.000 A 
ATOM      6  C   UNL     1       3.096   4.301  19.711  0.00  0.00    +0.000 A 
ATOM      7  C   UNL     1       2.239   4.795  20.688  0.00  0.00    +0.000 A 
ATOM      8  C   UNL     1       1.802   6.116  20.623  0.00  0.00    +0.000 A 
ATOM      9  C   UNL     1       2.223   6.960  19.591  0.00  0.00    +0.000 A 
ATOM     10  C   UNL     1       3.038   6.437  18.575  0.00  0.00    +0.000 A 
BRANCH   5  14
ATOM     11  C   UNL     1       6.937   4.921  15.118  0.00  0.00    +0.000 C 
ATOM     12  C   UNL     1       5.922   4.578  16.135  0.00  0.00    +0.000 A 
ATOM     13  N   UNL     1       5.301   5.391  16.957  0.00  0.00    +0.000 NA
ATOM     14  C   UNL     1       4.442   4.571  17.662  0.00  0.00    +0.000 A 
ATOM     15  N   UNL     1       4.533   3.276  17.314  0.00  0.00    +0.000 NA
ATOM     16  N   UNL     1       5.464   3.311  16.347  0.00  0.00    +0.000 N 
ATOM     17  H   UNL     1       5.723   2.453  15.874  0.00  0.00    +0.000 HD
ENDBRANCH   5  14
ENDBRANCH   1   9
BRANCH   2  18
ATOM     18  C   UNL     1       0.797  10.441  20.107  0.00  0.00    +0.000 C 
BRANCH  18  19
ATOM     19  C   UNL     1      -0.545  10.795  19.515  0.00  0.00    +0.000 A 
ATOM     20  C   UNL     1      -1.311  11.805  20.098  0.00  0.00    +0.000 A 
ATOM     21  C   UNL     1      -2.522  12.202  19.527  0.00  0.00    +0.000 A 
ATOM     22  C   UNL     1      -3.000  11.601  18.361  0.00  0.00    +0.000 A 
ATOM     23  C   UNL     1      -2.245  10.574  17.783  0.00  0.00    +0.000 A 
ATOM     24  C   UNL     1      -1.027  10.175  18.354  0.00  0.00    +0.000 A 
BRANCH  22  25
ATOM     25  N   UNL     1      -4.201  11.991  17.723  0.00  0.00    +0.000 N 
ATOM     26  C   UNL     1      -5.463  11.999  18.285  0.00  0.00    +0.000 C 
ATOM     27  O   UNL     1      -5.764  11.634  19.411  0.00  0.00    +0.000 OA
ATOM     28  H   UNL     1      -4.118  12.311  16.768  0.00  0.00    +0.000 HD
BRANCH  26  29
ATOM     29  C   UNL     1      -6.537  12.504  17.377  0.00  0.00    +0.000 C 
ATOM     30  C   UNL     1      -6.710  13.995  17.179  0.00  0.00    +0.000 C 
ATOM     31  C   UNL     1      -7.724  13.226  17.974  0.00  0.00    +0.000 C 
ENDBRANCH  26  29
ENDBRANCH  22  25
ENDBRANCH  18  19
ENDBRANCH   2  18
TORSDOF 6
ENDMDL
MODEL 8
REMARK VINA RESULT:      -7.9      6.502      9.695
REMARK  Name = 
REMARK  7 active torsions:
REMARK  status: ('A' for Active; 'I' for Inactive)
REMARK    1  A    between atoms: C_1  and  C_2
REMARK    2  A    between atoms: C_4  and  C_5
REMARK    3  A    between atoms: C_9  and  N_10
REMARK    4  A    between atoms: C_11  and  C_13
REMARK    5  A    between atoms: C_13  and  C_14
REMARK    6  A    between atoms: C_17  and  N_18
REMARK    7  A    between atoms: C_19  and  C_21
REMARK                            x       y       z     vdW  Elec       q    Type
REMARK                         _______ _______ _______ _____ _____    ______ ____
ROOT
ATOM      1  N   UNL     1       2.174   7.805  19.083  0.00  0.00    +0.000 N 
ATOM      2  C   UNL     1       1.883   8.999  18.428  0.00  0.00    +0.000 C 
ATOM      3  O   UNL     1       1.951   9.199  17.218  0.00  0.00    +0.000 OA
ATOM      4  H   UNL     1       1.870   7.721  20.046  0.00  0.00    +0.000 HD
ENDROOT
BRANCH   1   9
ATOM      5  C   UNL     1       4.312   5.512  17.083  0.00  0.00    +0.000 A 
ATOM      6  C   UNL     1       3.693   4.282  17.342  0.00  0.00    +0.000 A 
ATOM      7  C   UNL     1       2.539   4.218  18.115  0.00  0.00    +0.000 A 
ATOM      8  C   UNL     1       2.008   5.382  18.665  0.00  0.00    +0.000 A 
ATOM      9  C   UNL     1       2.627   6.619  18.460  0.00  0.00    +0.000 A 
ATOM     10  C   UNL     1       3.755   6.684  17.627  0.00  0.00    +0.000 A 
BRANCH   5  14
ATOM     11  C   UNL     1       7.473   4.842  13.367  0.00  0.00    +0.000 C 
ATOM     12  C   UNL     1       6.852   5.198  14.660  0.00  0.00    +0.000 A 
ATOM     13  N   UNL     1       5.585   5.111  14.993  0.00  0.00    +0.000 NA
ATOM     14  C   UNL     1       5.550   5.533  16.308  0.00  0.00    +0.000 A 
ATOM     15  N   UNL     1       6.752   5.898  16.785  0.00  0.00    +0.000 NA
ATOM     16  N   UNL     1       7.552   5.669  15.731  0.00  0.00    +0.000 N 
ATOM     17  H   UNL     1       8.547   5.841  15.814  0.00  0.00    +0.000 HD
ENDBRANCH   5  14
ENDBRANCH   1   9
BRANCH   2  18
ATOM     18  C   UNL     1       1.423  10.108  19.353  0.00  0.00    +0.000 C 
BRANCH  18  19
ATOM     19  C   UNL     1       0.062  10.661  19.009  0.00  0.00    +0.000 A 
ATOM     20  C   UNL     1      -0.816   9.900  18.236  0.00  0.00    +0.000 A 
ATOM     21  C   UNL     1      -2.108  10.356  17.966  0.00  0.00    +0.000 A 
ATOM     22  C   UNL     1      -2.557  11.582  18.460  0.00  0.00    +0.000 A 
ATOM     23  C   UNL     1      -1.674  12.358  19.221  0.00  0.00    +0.000 A 
ATOM     24  C   UNL     1      -0.377  11.900  19.495  0.00  0.00    +0.000 A 
BRANCH  22  25
ATOM     25  N   UNL     1      -3.867  12.072  18.246  0.00  0.00    +0.000 N 
ATOM     26  C   UNL     1      -4.785  12.409  19.221  0.00  0.00    +0.000 C 
ATOM     27  O   UNL     1      -4.640  12.304  20.430  0.00  0.00    +0.000 OA
ATOM     28  H   UNL     1      -4.146  12.202  17.283  0.00  0.00    +0.000 HD
BRANCH  26  29
ATOM     29  C   UNL     1      -6.078  12.939  18.692  0.00  0.00    +0.000 C 
ATOM     30  C   UNL     1      -7.164  11.975  18.265  0.00  0.00    +0.000 C 
ATOM     31  C   UNL     1      -6.405  12.748  17.228  0.00  0.00    +0.000 C 
ENDBRANCH  26  29
ENDBRANCH  22  25
ENDBRANCH  18  19
ENDBRANCH   2  18
TORSDOF 6
ENDMDL
MODEL 9
REMARK VINA RESULT:      -7.8      0.668      1.310
REMARK  Name = 
REMARK  7 active torsions:
REMARK  status: ('A' for Active; 'I' for Inactive)
REMARK    1  A    between atoms: C_1  and  C_2
REMARK    2  A    between atoms: C_4  and  C_5
REMARK    3  A    between atoms: C_9  and  N_10
REMARK    4  A    between atoms: C_11  and  C_13
REMARK    5  A    between atoms: C_13  and  C_14
REMARK    6  A    between atoms: C_17  and  N_18
REMARK    7  A    between atoms: C_19  and  C_21
REMARK                            x       y       z     vdW  Elec       q    Type
REMARK                         _______ _______ _______ _____ _____    ______ ____
ROOT
ATOM      1  N   UNL     1       8.492   9.691  17.931  0.00  0.00    +0.000 N 
ATOM      2  C   UNL     1       8.289   8.328  18.128  0.00  0.00    +0.000 C 
ATOM      3  O   UNL     1       8.699   7.661  19.076  0.00  0.00    +0.000 OA
ATOM      4  H   UNL     1       7.922  10.145  17.227  0.00  0.00    +0.000 HD
ENDROOT
BRANCH   1   9
ATOM      5  C   UNL     1       9.388  11.715  20.919  0.00  0.00    +0.000 A 
ATOM      6  C   UNL     1      10.709  12.068  20.612  0.00  0.00    +0.000 A 
ATOM      7  C   UNL     1      11.277  11.698  19.398  0.00  0.00    +0.000 A 
ATOM      8  C   UNL     1      10.540  10.943  18.489  0.00  0.00    +0.000 A 
ATOM      9  C   UNL     1       9.235  10.540  18.784  0.00  0.00    +0.000 A 
ATOM     10  C   UNL     1       8.646  10.970  19.984  0.00  0.00    +0.000 A 
BRANCH   5  14
ATOM     11  C   UNL     1       8.346  14.360  24.940  0.00  0.00    +0.000 C 
ATOM     12  C   UNL     1       8.446  13.286  23.930  0.00  0.00    +0.000 A 
ATOM     13  N   UNL     1       8.980  13.356  22.733  0.00  0.00    +0.000 NA
ATOM     14  C   UNL     1       8.842  12.080  22.224  0.00  0.00    +0.000 A 
ATOM     15  N   UNL     1       8.219  11.234  23.062  0.00  0.00    +0.000 NA
ATOM     16  N   UNL     1       7.989  12.017  24.129  0.00  0.00    +0.000 N 
ATOM     17  H   UNL     1       7.538  11.624  24.947  0.00  0.00    +0.000 HD
ENDBRANCH   5  14
ENDBRANCH   1   9
BRANCH   2  18
ATOM     18  C   UNL     1       7.457   7.670  17.046  0.00  0.00    +0.000 C 
BRANCH  18  19
ATOM     19  C   UNL     1       6.354   6.789  17.579  0.00  0.00    +0.000 A 
ATOM     20  C   UNL     1       6.654   5.800  18.517  0.00  0.00    +0.000 A 
ATOM     21  C   UNL     1       5.641   5.021  19.081  0.00  0.00    +0.000 A 
ATOM     22  C   UNL     1       4.305   5.207  18.724  0.00  0.00    +0.000 A 
ATOM     23  C   UNL     1       4.000   6.186  17.771  0.00  0.00    +0.000 A 
ATOM     24  C   UNL     1       5.015   6.971  17.204  0.00  0.00    +0.000 A 
BRANCH  22  25
ATOM     25  N   UNL     1       3.239   4.470  19.293  0.00  0.00    +0.000 N 
ATOM     26  C   UNL     1       2.213   4.977  20.065  0.00  0.00    +0.000 C 
ATOM     27  O   UNL     1       2.070   6.137  20.422  0.00  0.00    +0.000 OA
ATOM     28  H   UNL     1       3.225   3.479  19.097  0.00  0.00    +0.000 HD
BRANCH  26  29
ATOM     29  C   UNL     1       1.205   3.960  20.492  0.00  0.00    +0.000 C 
ATOM     30  C   UNL     1       1.563   2.959  21.570  0.00  0.00    +0.000 C 
ATOM     31  C   UNL     1       1.436   2.507  20.145  0.00  0.00    +0.000 C 
ENDBRANCH  26  29
ENDBRANCH  22  25
ENDBRANCH  18  19
ENDBRANCH   2  18
TORSDOF 6
ENDMDL
