MODEL 1
REMARK VINA RESULT:      -8.1      0.000      0.000
REMARK  Name = 
REMARK  6 active torsions:
REMARK  status: ('A' for Active; 'I' for Inactive)
REMARK    1  A    between atoms: C_1  and  C_2
REMARK    2  A    between atoms: C_7  and  C_8
REMARK    3  A    between atoms: C_14  and  C_15
REMARK    4  A    between atoms: C_15  and  N_16
REMARK    5  A    between atoms: C_18  and  C_19
REMARK    6  A    between atoms: C_24  and  C_25
REMARK                            x       y       z     vdW  Elec       q    Type
REMARK                         _______ _______ _______ _____ _____    ______ ____
ROOT
ATOM      1  C   UNL     1       4.334   3.053  19.704  0.00  0.00    +0.000 C 
ATOM      2  O   UNL     1       4.735   2.021  20.204  0.00  0.00    +0.000 OA
ATOM      3  N   UNL     1       3.179   3.651  20.193  0.00  0.00    +0.000 N 
ATOM      4  C   UNL     1       2.423   3.123  21.344  0.00  0.00    +0.000 C 
ATOM      5  C   UNL     1       0.985   3.448  20.990  0.00  0.00    +0.000 C 
ATOM      6  C   UNL     1       1.089   4.818  20.345  0.00  0.00    +0.000 C 
ATOM      7  C   UNL     1       2.453   4.818  19.673  0.00  0.00    +0.000 C 
ENDROOT
BRANCH   1  14
ATOM      8  C   UNL     1       6.900   4.822  12.976  0.00  0.00    +0.000 C 
ATOM      9  C   UNL     1       6.654   4.677  14.421  0.00  0.00    +0.000 A 
ATOM     10  C   UNL     1       7.523   5.067  15.442  0.00  0.00    +0.000 A 
ATOM     11  C   UNL     1       6.856   4.744  16.574  0.00  0.00    +0.000 A 
ATOM     12  N   UNL     1       7.228   4.921  17.847  0.00  0.00    +0.000 NA
ATOM     13  C   UNL     1       6.367   4.494  18.704  0.00  0.00    +0.000 A 
ATOM     14  C   UNL     1       5.088   3.740  18.538  0.00  0.00    +0.000 A 
ATOM     15  C   UNL     1       4.744   3.655  17.232  0.00  0.00    +0.000 A 
ATOM     16  C   UNL     1       3.506   3.008  16.662  0.00  0.00    +0.000 C 
ATOM     17  N   UNL     1       5.638   4.157  16.235  0.00  0.00    +0.000 N 
ATOM     18  N   UNL     1       5.523   4.122  14.882  0.00  0.00    +0.000 NA
ENDBRANCH   1  14
BRANCH   7  19
ATOM     19  C   UNL     1       3.243   6.127  19.865  0.00  0.00    +0.000 C 
BRANCH  19  20
ATOM     20  N   UNL     1       2.660   7.254  19.178  0.00  0.00    +0.000 N 
ATOM     21  C   UNL     1       1.891   8.270  19.665  0.00  0.00    +0.000 A 
ATOM     22  C   UNL     1       1.530   8.962  18.532  0.00  0.00    +0.000 A 
ATOM     23  N   UNL     1       2.120   8.396  17.440  0.00  0.00    +0.000 NA
ATOM     24  N   UNL     1       2.801   7.338  17.848  0.00  0.00    +0.000 NA
BRANCH  22  25
ATOM     25  C   UNL     1       0.600  10.156  18.487  0.00  0.00    +0.000 C 
ATOM     26  C   UNL     1      -0.626  10.145  19.379  0.00  0.00    +0.000 C 
ATOM     27  C   UNL     1      -0.790   9.964  17.910  0.00  0.00    +0.000 C 
ENDBRANCH  22  25
ENDBRANCH  19  20
ENDBRANCH   7  19
TORSDOF 4
ENDMDL
MODEL 2
REMARK VINA RESULT:      -7.7      2.030      7.109
REMARK  Name = 
REMARK  6 active torsions:
REMARK  status: ('A' for Active; 'I' for Inactive)
REMARK    1  A    between atoms: C_1  and  C_2
REMARK    2  A    between atoms: C_7  and  C_8
REMARK    3  A    between atoms: C_14  and  C_15
REMARK    4  A    between atoms: C_15  and  N_16
REMARK    5  A    between atoms: C_18  and  C_19
REMARK    6  A    between atoms: C_24  and  C_25
REMARK                            x       y       z     vdW  Elec       q    Type
REMARK                         _______ _______ _______ _____ _____    ______ ____
ROOT
ATOM      1  C   UNL     1       2.380   5.580  18.543  0.00  0.00    +0.000 C 
ATOM      2  O   UNL     1       1.412   4.847  18.493  0.00  0.00    +0.000 OA
ATOM      3  N   UNL     1       3.657   5.037  18.496  0.00  0.00    +0.000 N 
ATOM      4  C   UNL     1       3.914   3.595  18.331  0.00  0.00    +0.000 C 
ATOM      5  C   UNL     1       5.166   3.371  19.157  0.00  0.00    +0.000 C 
ATOM      6  C   UNL     1       5.987   4.618  18.884  0.00  0.00    +0.000 C 
ATOM      7  C   UNL     1       4.953   5.710  18.660  0.00  0.00    +0.000 C 
ENDROOT
BRANCH   1  14
ATOM      8  C   UNL     1       0.337  12.395  20.635  0.00  0.00    +0.000 C 
ATOM      9  C   UNL     1       0.860  11.210  19.933  0.00  0.00    +0.000 A 
ATOM     10  C   UNL     1       1.257  11.160  18.596  0.00  0.00    +0.000 A 
ATOM     11  C   UNL     1       1.666   9.881  18.428  0.00  0.00    +0.000 A 
ATOM     12  N   UNL     1       2.165   9.296  17.333  0.00  0.00    +0.000 NA
ATOM     13  C   UNL     1       2.454   8.052  17.496  0.00  0.00    +0.000 A 
ATOM     14  C   UNL     1       2.231   7.119  18.641  0.00  0.00    +0.000 A 
ATOM     15  C   UNL     1       1.787   7.790  19.730  0.00  0.00    +0.000 A 
ATOM     16  C   UNL     1       1.484   7.211  21.089  0.00  0.00    +0.000 C 
ATOM     17  N   UNL     1       1.495   9.187  19.625  0.00  0.00    +0.000 N 
ATOM     18  N   UNL     1       0.990  10.032  20.561  0.00  0.00    +0.000 NA
ENDBRANCH   1  14
BRANCH   7  19
ATOM     19  C   UNL     1       5.278   6.643  17.476  0.00  0.00    +0.000 C 
BRANCH  19  20
ATOM     20  N   UNL     1       5.856   5.956  16.347  0.00  0.00    +0.000 N 
ATOM     21  C   UNL     1       5.292   5.056  15.492  0.00  0.00    +0.000 A 
ATOM     22  C   UNL     1       6.353   4.656  14.712  0.00  0.00    +0.000 A 
ATOM     23  N   UNL     1       7.473   5.347  15.070  0.00  0.00    +0.000 NA
ATOM     24  N   UNL     1       7.159   6.133  16.086  0.00  0.00    +0.000 NA
BRANCH  22  25
ATOM     25  C   UNL     1       6.303   3.594  13.634  0.00  0.00    +0.000 C 
ATOM     26  C   UNL     1       6.797   3.954  12.247  0.00  0.00    +0.000 C 
ATOM     27  C   UNL     1       5.336   3.783  12.481  0.00  0.00    +0.000 C 
ENDBRANCH  22  25
ENDBRANCH  19  20
ENDBRANCH   7  19
TORSDOF 4
ENDMDL
MODEL 3
REMARK VINA RESULT:      -7.6      1.377      1.696
REMARK  Name = 
REMARK  6 active torsions:
REMARK  status: ('A' for Active; 'I' for Inactive)
REMARK    1  A    between atoms: C_1  and  C_2
REMARK    2  A    between atoms: C_7  and  C_8
REMARK    3  A    between atoms: C_14  and  C_15
REMARK    4  A    between atoms: C_15  and  N_16
REMARK    5  A    between atoms: C_18  and  C_19
REMARK    6  A    between atoms: C_24  and  C_25
REMARK                            x       y       z     vdW  Elec       q    Type
REMARK                         _______ _______ _______ _____ _____    ______ ____
ROOT
ATOM      1  C   UNL     1       4.424   3.283  19.685  0.00  0.00    +0.000 C 
ATOM      2  O   UNL     1       4.929   2.383  20.327  0.00  0.00    +0.000 OA
ATOM      3  N   UNL     1       3.208   3.817  20.089  0.00  0.00    +0.000 N 
ATOM      4  C   UNL     1       2.502   3.384  21.309  0.00  0.00    +0.000 C 
ATOM      5  C   UNL     1       1.041   3.498  20.922  0.00  0.00    +0.000 C 
ATOM      6  C   UNL     1       1.003   4.764  20.085  0.00  0.00    +0.000 C 
ATOM      7  C   UNL     1       2.366   4.812  19.411  0.00  0.00    +0.000 C 
ENDROOT
BRANCH   1  14
ATOM      8  C   UNL     1       6.698   4.427  12.720  0.00  0.00    +0.000 C 
ATOM      9  C   UNL     1       6.505   4.426  14.181  0.00  0.00    +0.000 A 
ATOM     10  C   UNL     1       7.388   4.956  15.123  0.00  0.00    +0.000 A 
ATOM     11  C   UNL     1       6.772   4.729  16.306  0.00  0.00    +0.000 A 
ATOM     12  N   UNL     1       7.177   5.055  17.539  0.00  0.00    +0.000 NA
ATOM     13  C   UNL     1       6.362   4.687  18.467  0.00  0.00    +0.000 A 
ATOM     14  C   UNL     1       5.111   3.871  18.427  0.00  0.00    +0.000 A 
ATOM     15  C   UNL     1       4.730   3.635  17.150  0.00  0.00    +0.000 A 
ATOM     16  C   UNL     1       3.504   2.883  16.696  0.00  0.00    +0.000 C 
ATOM     17  N   UNL     1       5.569   4.063  16.074  0.00  0.00    +0.000 N 
ATOM     18  N   UNL     1       5.413   3.880  14.737  0.00  0.00    +0.000 NA
ENDBRANCH   1  14
BRANCH   7  19
ATOM     19  C   UNL     1       3.009   6.213  19.407  0.00  0.00    +0.000 C 
BRANCH  19  20
ATOM     20  N   UNL     1       2.153   7.239  19.952  0.00  0.00    +0.000 N 
ATOM     21  C   UNL     1       1.418   7.242  21.100  0.00  0.00    +0.000 A 
ATOM     22  C   UNL     1       0.715   8.422  21.020  0.00  0.00    +0.000 A 
ATOM     23  N   UNL     1       1.078   9.099  19.894  0.00  0.00    +0.000 NA
ATOM     24  N   UNL     1       1.953   8.355  19.237  0.00  0.00    +0.000 NA
BRANCH  22  25
ATOM     25  C   UNL     1      -0.326   8.896  22.012  0.00  0.00    +0.000 C 
ATOM     26  C   UNL     1      -0.472  10.388  22.243  0.00  0.00    +0.000 C 
ATOM     27  C   UNL     1       0.149   9.542  23.300  0.00  0.00    +0.000 C 
ENDBRANCH  22  25
ENDBRANCH  19  20
ENDBRANCH   7  19
TORSDOF 4
ENDMDL
MODEL 4
REMARK VINA RESULT:      -7.3      1.818      6.711
REMARK  Name = 
REMARK  6 active torsions:
REMARK  status: ('A' for Active; 'I' for Inactive)
REMARK    1  A    between atoms: C_1  and  C_2
REMARK    2  A    between atoms: C_7  and  C_8
REMARK    3  A    between atoms: C_14  and  C_15
REMARK    4  A    between atoms: C_15  and  N_16
REMARK    5  A    between atoms: C_18  and  C_19
REMARK    6  A    between atoms: C_24  and  C_25
REMARK                            x       y       z     vdW  Elec       q    Type
REMARK                         _______ _______ _______ _____ _____    ______ ____
ROOT
ATOM      1  C   UNL     1       2.348   4.573  17.960  0.00  0.00    +0.000 C 
ATOM      2  O   UNL     1       1.615   4.225  17.055  0.00  0.00    +0.000 OA
ATOM      3  N   UNL     1       3.364   3.728  18.385  0.00  0.00    +0.000 N 
ATOM      4  C   UNL     1       3.648   2.426  17.753  0.00  0.00    +0.000 C 
ATOM      5  C   UNL     1       4.102   1.568  18.918  0.00  0.00    +0.000 C 
ATOM      6  C   UNL     1       4.930   2.530  19.753  0.00  0.00    +0.000 C 
ATOM      7  C   UNL     1       4.280   3.885  19.524  0.00  0.00    +0.000 C 
ENDROOT
BRANCH   1  14
ATOM      8  C   UNL     1       0.265  10.027  22.532  0.00  0.00    +0.000 C 
ATOM      9  C   UNL     1       0.797   9.211  21.427  0.00  0.00    +0.000 A 
ATOM     10  C   UNL     1       1.199   9.687  20.178  0.00  0.00    +0.000 A 
ATOM     11  C   UNL     1       1.615   8.576  19.527  0.00  0.00    +0.000 A 
ATOM     12  N   UNL     1       2.121   8.466  18.293  0.00  0.00    +0.000 NA
ATOM     13  C   UNL     1       2.415   7.257  17.959  0.00  0.00    +0.000 A 
ATOM     14  C   UNL     1       2.192   5.951  18.649  0.00  0.00    +0.000 A 
ATOM     15  C   UNL     1       1.740   6.144  19.911  0.00  0.00    +0.000 A 
ATOM     16  C   UNL     1       1.434   5.079  20.935  0.00  0.00    +0.000 C 
ATOM     17  N   UNL     1       1.443   7.469  20.358  0.00  0.00    +0.000 N 
ATOM     18  N   UNL     1       0.930   7.881  21.546  0.00  0.00    +0.000 NA
ENDBRANCH   1  14
BRANCH   7  19
ATOM     19  C   UNL     1       5.289   5.031  19.305  0.00  0.00    +0.000 C 
BRANCH  19  20
ATOM     20  N   UNL     1       5.998   4.939  18.052  0.00  0.00    +0.000 N 
ATOM     21  C   UNL     1       5.571   5.216  16.787  0.00  0.00    +0.000 A 
ATOM     22  C   UNL     1       6.632   4.820  16.004  0.00  0.00    +0.000 A 
ATOM     23  N   UNL     1       7.652   4.387  16.798  0.00  0.00    +0.000 NA
ATOM     24  N   UNL     1       7.246   4.451  18.056  0.00  0.00    +0.000 NA
BRANCH  22  25
ATOM     25  C   UNL     1       6.664   4.835  14.491  0.00  0.00    +0.000 C 
ATOM     26  C   UNL     1       5.374   4.559  13.743  0.00  0.00    +0.000 C 
ATOM     27  C   UNL     1       6.447   3.527  13.754  0.00  0.00    +0.000 C 
ENDBRANCH  22  25
ENDBRANCH  19  20
ENDBRANCH   7  19
TORSDOF 4
ENDMDL
MODEL 5
REMARK VINA RESULT:      -7.1      5.899      9.392
REMARK  Name = 
REMARK  6 active torsions:
REMARK  status: ('A' for Active; 'I' for Inactive)
REMARK    1  A    between atoms: C_1  and  C_2
REMARK    2  A    between atoms: C_7  and  C_8
REMARK    3  A    between atoms: C_14  and  C_15
REMARK    4  A    between atoms: C_15  and  N_16
REMARK    5  A    between atoms: C_18  and  C_19
REMARK    6  A    between atoms: C_24  and  C_25
REMARK                            x       y       z     vdW  Elec       q    Type
REMARK                         _______ _______ _______ _____ _____    ______ ____
ROOT
ATOM      1  C   UNL     1      -0.941  13.327  22.698  0.00  0.00    +0.000 C 
ATOM      2  O   UNL     1      -0.184  13.820  23.511  0.00  0.00    +0.000 OA
ATOM      3  N   UNL     1      -2.313  13.414  22.893  0.00  0.00    +0.000 N 
ATOM      4  C   UNL     1      -2.921  14.132  24.029  0.00  0.00    +0.000 C 
ATOM      5  C   UNL     1      -4.155  13.306  24.338  0.00  0.00    +0.000 C 
ATOM      6  C   UNL     1      -4.657  12.907  22.962  0.00  0.00    +0.000 C 
ATOM      7  C   UNL     1      -3.397  12.797  22.117  0.00  0.00    +0.000 C 
ENDROOT
BRANCH   1  14
ATOM      8  C   UNL     1       2.026   8.357  18.062  0.00  0.00    +0.000 C 
ATOM      9  C   UNL     1       1.481   9.563  18.710  0.00  0.00    +0.000 A 
ATOM     10  C   UNL     1       1.588  10.869  18.230  0.00  0.00    +0.000 A 
ATOM     11  C   UNL     1       0.928  11.607  19.152  0.00  0.00    +0.000 A 
ATOM     12  N   UNL     1       0.710  12.928  19.171  0.00  0.00    +0.000 NA
ATOM     13  C   UNL     1       0.050  13.329  20.202  0.00  0.00    +0.000 A 
ATOM     14  C   UNL     1      -0.417  12.613  21.427  0.00  0.00    +0.000 A 
ATOM     15  C   UNL     1      -0.222  11.279  21.308  0.00  0.00    +0.000 A 
ATOM     16  C   UNL     1      -0.595  10.217  22.313  0.00  0.00    +0.000 C 
ATOM     17  N   UNL     1       0.462  10.766  20.162  0.00  0.00    +0.000 N 
ATOM     18  N   UNL     1       0.815   9.486  19.872  0.00  0.00    +0.000 NA
ENDBRANCH   1  14
BRANCH   7  19
ATOM     19  C   UNL     1      -3.533  13.417  20.713  0.00  0.00    +0.000 C 
BRANCH  19  20
ATOM     20  N   UNL     1      -3.838  12.451  19.686  0.00  0.00    +0.000 N 
ATOM     21  C   UNL     1      -3.001  11.658  18.958  0.00  0.00    +0.000 A 
ATOM     22  C   UNL     1      -3.846  11.053  18.056  0.00  0.00    +0.000 A 
ATOM     23  N   UNL     1      -5.131  11.442  18.297  0.00  0.00    +0.000 NA
ATOM     24  N   UNL     1      -5.112  12.313  19.293  0.00  0.00    +0.000 NA
BRANCH  22  25
ATOM     25  C   UNL     1      -3.424  10.117  16.944  0.00  0.00    +0.000 C 
ATOM     26  C   UNL     1      -1.941   9.884  16.725  0.00  0.00    +0.000 C 
ATOM     27  C   UNL     1      -2.706  10.703  15.744  0.00  0.00    +0.000 C 
ENDBRANCH  22  25
ENDBRANCH  19  20
ENDBRANCH   7  19
TORSDOF 4
ENDMDL
MODEL 6
REMARK VINA RESULT:      -6.8      1.257      1.534
REMARK  Name = 
REMARK  6 active torsions:
REMARK  status: ('A' for Active; 'I' for Inactive)
REMARK    1  A    between atoms: C_1  and  C_2
REMARK    2  A    between atoms: C_7  and  C_8
REMARK    3  A    between atoms: C_14  and  C_15
REMARK    4  A    between atoms: C_15  and  N_16
REMARK    5  A    between atoms: C_18  and  C_19
REMARK    6  A    between atoms: C_24  and  C_25
REMARK                            x       y       z     vdW  Elec       q    Type
REMARK                         _______ _______ _______ _____ _____    ______ ____
ROOT
ATOM      1  C   UNL     1       4.917   4.334  18.978  0.00  0.00    +0.000 C 
ATOM      2  O   UNL     1       5.563   3.713  19.799  0.00  0.00    +0.000 OA
ATOM      3  N   UNL     1       3.644   4.783  19.300  0.00  0.00    +0.000 N 
ATOM      4  C   UNL     1       3.034   4.592  20.629  0.00  0.00    +0.000 C 
ATOM      5  C   UNL     1       1.564   4.397  20.311  0.00  0.00    +0.000 C 
ATOM      6  C   UNL     1       1.323   5.381  19.180  0.00  0.00    +0.000 C 
ATOM      7  C   UNL     1       2.650   5.439  18.439  0.00  0.00    +0.000 C 
ENDROOT
BRANCH   1  14
ATOM      8  C   UNL     1       6.934   3.879  11.856  0.00  0.00    +0.000 C 
ATOM      9  C   UNL     1       6.747   4.250  13.270  0.00  0.00    +0.000 A 
ATOM     10  C   UNL     1       7.522   5.164  13.985  0.00  0.00    +0.000 A 
ATOM     11  C   UNL     1       6.960   5.171  15.216  0.00  0.00    +0.000 A 
ATOM     12  N   UNL     1       7.301   5.890  16.291  0.00  0.00    +0.000 NA
ATOM     13  C   UNL     1       6.568   5.659  17.325  0.00  0.00    +0.000 A 
ATOM     14  C   UNL     1       5.485   4.660  17.573  0.00  0.00    +0.000 A 
ATOM     15  C   UNL     1       5.150   4.018  16.430  0.00  0.00    +0.000 A 
ATOM     16  C   UNL     1       4.078   2.970  16.262  0.00  0.00    +0.000 C 
ATOM     17  N   UNL     1       5.896   4.269  15.236  0.00  0.00    +0.000 N 
ATOM     18  N   UNL     1       5.773   3.699  14.009  0.00  0.00    +0.000 NA
ENDBRANCH   1  14
BRANCH   7  19
ATOM     19  C   UNL     1       3.078   6.864  18.038  0.00  0.00    +0.000 C 
BRANCH  19  20
ATOM     20  N   UNL     1       2.193   7.890  18.535  0.00  0.00    +0.000 N 
ATOM     21  C   UNL     1       1.521   8.865  17.860  0.00  0.00    +0.000 A 
ATOM     22  C   UNL     1       0.953   9.611  18.867  0.00  0.00    +0.000 A 
ATOM     23  N   UNL     1       1.241   9.048  20.074  0.00  0.00    +0.000 NA
ATOM     24  N   UNL     1       2.017   7.998  19.860  0.00  0.00    +0.000 NA
BRANCH  22  25
ATOM     25  C   UNL     1       0.149  10.879  18.677  0.00  0.00    +0.000 C 
ATOM     26  C   UNL     1      -0.729  11.352  19.820  0.00  0.00    +0.000 C 
ATOM     27  C   UNL     1      -1.362  10.770  18.605  0.00  0.00    +0.000 C 
ENDBRANCH  22  25
ENDBRANCH  19  20
ENDBRANCH   7  19
TORSDOF 4
ENDMDL
MODEL 7
REMARK VINA RESULT:      -6.8      6.933     10.164
REMARK  Name = 
REMARK  6 active torsions:
REMARK  status: ('A' for Active; 'I' for Inactive)
REMARK    1  A    between atoms: C_1  and  C_2
REMARK    2  A    between atoms: C_7  and  C_8
REMARK    3  A    between atoms: C_14  and  C_15
REMARK    4  A    between atoms: C_15  and  N_16
REMARK    5  A    between atoms: C_18  and  C_19
REMARK    6  A    between atoms: C_24  and  C_25
REMARK                            x       y       z     vdW  Elec       q    Type
REMARK                         _______ _______ _______ _____ _____    ______ ____
ROOT
ATOM      1  C   UNL     1      -1.442  13.942  23.430  0.00  0.00    +0.000 C 
ATOM      2  O   UNL     1      -0.845  14.511  24.322  0.00  0.00    +0.000 OA
ATOM      3  N   UNL     1      -2.728  14.345  23.095  0.00  0.00    +0.000 N 
ATOM      4  C   UNL     1      -3.409  15.484  23.739  0.00  0.00    +0.000 C 
ATOM      5  C   UNL     1      -4.860  15.047  23.768  0.00  0.00    +0.000 C 
ATOM      6  C   UNL     1      -5.034  14.341  22.435  0.00  0.00    +0.000 C 
ATOM      7  C   UNL     1      -3.670  13.735  22.147  0.00  0.00    +0.000 C 
ENDROOT
BRANCH   1  14
ATOM      8  C   UNL     1       1.767   9.924  18.087  0.00  0.00    +0.000 C 
ATOM      9  C   UNL     1       1.070  10.406  19.292  0.00  0.00    +0.000 A 
ATOM     10  C   UNL     1       0.345   9.618  20.188  0.00  0.00    +0.000 A 
ATOM     11  C   UNL     1      -0.085  10.501  21.119  0.00  0.00    +0.000 A 
ATOM     12  N   UNL     1      -0.813  10.274  22.219  0.00  0.00    +0.000 NA
ATOM     13  C   UNL     1      -1.068  11.336  22.901  0.00  0.00    +0.000 A 
ATOM     14  C   UNL     1      -0.798  12.781  22.632  0.00  0.00    +0.000 A 
ATOM     15  C   UNL     1      -0.007  12.929  21.543  0.00  0.00    +0.000 A 
ATOM     16  C   UNL     1       0.517  14.224  20.975  0.00  0.00    +0.000 C 
ATOM     17  N   UNL     1       0.352  11.779  20.772  0.00  0.00    +0.000 N 
ATOM     18  N   UNL     1       1.077  11.705  19.625  0.00  0.00    +0.000 NA
ENDBRANCH   1  14
BRANCH   7  19
ATOM     19  C   UNL     1      -3.211  13.899  20.685  0.00  0.00    +0.000 C 
BRANCH  19  20
ATOM     20  N   UNL     1      -3.573  12.786  19.842  0.00  0.00    +0.000 N 
ATOM     21  C   UNL     1      -2.777  11.894  19.186  0.00  0.00    +0.000 A 
ATOM     22  C   UNL     1      -3.674  11.154  18.449  0.00  0.00    +0.000 A 
ATOM     23  N   UNL     1      -4.944  11.570  18.719  0.00  0.00    +0.000 NA
ATOM     24  N   UNL     1      -4.869  12.584  19.566  0.00  0.00    +0.000 NA
BRANCH  22  25
ATOM     25  C   UNL     1      -3.316  10.060  17.466  0.00  0.00    +0.000 C 
ATOM     26  C   UNL     1      -1.868   9.923  17.039  0.00  0.00    +0.000 C 
ATOM     27  C   UNL     1      -2.866  10.461  16.075  0.00  0.00    +0.000 C 
ENDBRANCH  22  25
ENDBRANCH  19  20
ENDBRANCH   7  19
TORSDOF 4
ENDMDL
MODEL 8
REMARK VINA RESULT:      -6.7      1.371      1.724
REMARK  Name = 
REMARK  6 active torsions:
REMARK  status: ('A' for Active; 'I' for Inactive)
REMARK    1  A    between atoms: C_1  and  C_2
REMARK    2  A    between atoms: C_7  and  C_8
REMARK    3  A    between atoms: C_14  and  C_15
REMARK    4  A    between atoms: C_15  and  N_16
REMARK    5  A    between atoms: C_18  and  C_19
REMARK    6  A    between atoms: C_24  and  C_25
REMARK                            x       y       z     vdW  Elec       q    Type
REMARK                         _______ _______ _______ _____ _____    ______ ____
ROOT
ATOM      1  C   UNL     1       5.018   4.524  18.935  0.00  0.00    +0.000 C 
ATOM      2  O   UNL     1       5.680   3.947  19.775  0.00  0.00    +0.000 OA
ATOM      3  N   UNL     1       3.752   4.992  19.259  0.00  0.00    +0.000 N 
ATOM      4  C   UNL     1       3.171   4.876  20.610  0.00  0.00    +0.000 C 
ATOM      5  C   UNL     1       1.694   4.667  20.334  0.00  0.00    +0.000 C 
ATOM      6  C   UNL     1       1.430   5.588  19.156  0.00  0.00    +0.000 C 
ATOM      7  C   UNL     1       2.740   5.601  18.385  0.00  0.00    +0.000 C 
ENDROOT
BRANCH   1  14
ATOM      8  C   UNL     1       6.900   3.662  11.814  0.00  0.00    +0.000 C 
ATOM      9  C   UNL     1       6.737   4.115  13.207  0.00  0.00    +0.000 A 
ATOM     10  C   UNL     1       7.518   5.075  13.852  0.00  0.00    +0.000 A 
ATOM     11  C   UNL     1       6.980   5.150  15.091  0.00  0.00    +0.000 A 
ATOM     12  N   UNL     1       7.336   5.935  16.115  0.00  0.00    +0.000 NA
ATOM     13  C   UNL     1       6.625   5.760  17.174  0.00  0.00    +0.000 A 
ATOM     14  C   UNL     1       5.555   4.770  17.503  0.00  0.00    +0.000 A 
ATOM     15  C   UNL     1       5.203   4.058  16.407  0.00  0.00    +0.000 A 
ATOM     16  C   UNL     1       4.137   2.995  16.322  0.00  0.00    +0.000 C 
ATOM     17  N   UNL     1       5.924   4.244  15.186  0.00  0.00    +0.000 N 
ATOM     18  N   UNL     1       5.782   3.602  13.997  0.00  0.00    +0.000 NA
ENDBRANCH   1  14
BRANCH   7  19
ATOM     19  C   UNL     1       3.161   7.002  17.896  0.00  0.00    +0.000 C 
BRANCH  19  20
ATOM     20  N   UNL     1       2.331   8.063  18.412  0.00  0.00    +0.000 N 
ATOM     21  C   UNL     1       1.926   8.310  19.691  0.00  0.00    +0.000 A 
ATOM     22  C   UNL     1       1.057   9.367  19.546  0.00  0.00    +0.000 A 
ATOM     23  N   UNL     1       1.009   9.748  18.239  0.00  0.00    +0.000 NA
ATOM     24  N   UNL     1       1.786   8.930  17.547  0.00  0.00    +0.000 NA
BRANCH  22  25
ATOM     25  C   UNL     1       0.249  10.001  20.659  0.00  0.00    +0.000 C 
ATOM     26  C   UNL     1      -0.789  11.043  20.289  0.00  0.00    +0.000 C 
ATOM     27  C   UNL     1       0.469  11.472  20.959  0.00  0.00    +0.000 C 
ENDBRANCH  22  25
ENDBRANCH  19  20
ENDBRANCH   7  19
TORSDOF 4
ENDMDL
MODEL 9
REMARK VINA RESULT:      -6.4      1.953      5.317
REMARK  Name = 
REMARK  6 active torsions:
REMARK  status: ('A' for Active; 'I' for Inactive)
REMARK    1  A    between atoms: C_1  and  C_2
REMARK    2  A    between atoms: C_7  and  C_8
REMARK    3  A    between atoms: C_14  and  C_15
REMARK    4  A    between atoms: C_15  and  N_16
REMARK    5  A    between atoms: C_18  and  C_19
REMARK    6  A    between atoms: C_24  and  C_25
REMARK                            x       y       z     vdW  Elec       q    Type
REMARK                         _______ _______ _______ _____ _____    ______ ____
ROOT
ATOM      1  C   UNL     1       5.292   4.141  16.735  0.00  0.00    +0.000 C 
ATOM      2  O   UNL     1       5.872   3.264  16.126  0.00  0.00    +0.000 OA
ATOM      3  N   UNL     1       5.733   5.454  16.636  0.00  0.00    +0.000 N 
ATOM      4  C   UNL     1       6.858   5.864  15.774  0.00  0.00    +0.000 C 
ATOM      5  C   UNL     1       7.505   6.987  16.562  0.00  0.00    +0.000 C 
ATOM      6  C   UNL     1       6.316   7.724  17.154  0.00  0.00    +0.000 C 
ATOM      7  C   UNL     1       5.269   6.642  17.366  0.00  0.00    +0.000 C 
ENDROOT
BRANCH   1  14
ATOM      8  C   UNL     1       0.896   2.225  22.391  0.00  0.00    +0.000 C 
ATOM      9  C   UNL     1       1.472   2.573  21.080  0.00  0.00    +0.000 A 
ATOM     10  C   UNL     1       0.853   2.397  19.842  0.00  0.00    +0.000 A 
ATOM     11  C   UNL     1       1.761   2.872  18.957  0.00  0.00    +0.000 A 
ATOM     12  N   UNL     1       1.669   2.958  17.625  0.00  0.00    +0.000 NA
ATOM     13  C   UNL     1       2.718   3.453  17.064  0.00  0.00    +0.000 A 
ATOM     14  C   UNL     1       4.052   3.840  17.613  0.00  0.00    +0.000 A 
ATOM     15  C   UNL     1       4.050   3.789  18.965  0.00  0.00    +0.000 A 
ATOM     16  C   UNL     1       5.191   4.143  19.886  0.00  0.00    +0.000 C 
ATOM     17  N   UNL     1       2.895   3.295  19.649  0.00  0.00    +0.000 N 
ATOM     18  N   UNL     1       2.700   3.103  20.980  0.00  0.00    +0.000 NA
ENDBRANCH   1  14
BRANCH   7  19
ATOM     19  C   UNL     1       3.846   7.062  16.948  0.00  0.00    +0.000 C 
BRANCH  19  20
ATOM     20  N   UNL     1       3.064   7.601  18.034  0.00  0.00    +0.000 N 
ATOM     21  C   UNL     1       2.790   7.069  19.259  0.00  0.00    +0.000 A 
ATOM     22  C   UNL     1       1.903   7.969  19.802  0.00  0.00    +0.000 A 
ATOM     23  N   UNL     1       1.720   9.010  18.941  0.00  0.00    +0.000 NA
ATOM     24  N   UNL     1       2.428   8.766  17.850  0.00  0.00    +0.000 NA
BRANCH  22  25
ATOM     25  C   UNL     1       1.208   7.824  21.139  0.00  0.00    +0.000 C 
ATOM     26  C   UNL     1       0.004   8.702  21.422  0.00  0.00    +0.000 C 
ATOM     27  C   UNL     1       1.289   8.977  22.121  0.00  0.00    +0.000 C 
ENDBRANCH  22  25
ENDBRANCH  19  20
ENDBRANCH   7  19
TORSDOF 4
ENDMDL
