MODEL 1
REMARK VINA RESULT:      -9.1      0.000      0.000
REMARK  Name = 
REMARK  4 active torsions:
REMARK  status: ('A' for Active; 'I' for Inactive)
REMARK    1  A    between atoms: C_2  and  C_3
REMARK    2  A    between atoms: C_3  and  C_4
REMARK    3  A    between atoms: C_4  and  C_5
REMARK    4  A    between atoms: C_5  and  C_6
REMARK                            x       y       z     vdW  Elec       q    Type
REMARK                         _______ _______ _______ _____ _____    ______ ____
ROOT
ATOM      1  C   UNL     1       2.291   3.875  20.030  0.00  0.00    +0.000 C 
ENDROOT
BRANCH   1   3
ATOM      2  O   UNL     1       1.590   3.842  17.734  0.00  0.00    +0.000 OA
ATOM      3  C   UNL     1       2.534   3.842  18.527  0.00  0.00    +0.000 C 
ATOM      4  N   UNL     1       3.848   3.821  18.092  0.00  0.00    +0.000 N 
ATOM      5  C   UNL     1       4.121   3.915  16.662  0.00  0.00    +0.000 C 
ATOM      6  C   UNL     1       4.675   5.303  16.334  0.00  0.00    +0.000 C 
ATOM      7  C   UNL     1       5.785   5.703  17.281  0.00  0.00    +0.000 A 
ATOM      8  C   UNL     1       6.631   6.768  16.944  0.00  0.00    +0.000 A 
ATOM      9  C   UNL     1       7.642   7.152  17.817  0.00  0.00    +0.000 A 
ATOM     10  F   UNL     1       8.449   8.168  17.486  0.00  0.00    +0.000 F 
ATOM     11  C   UNL     1       7.832   6.496  19.027  0.00  0.00    +0.000 A 
ATOM     12  C   UNL     1       6.983   5.447  19.383  0.00  0.00    +0.000 A 
ATOM     13  C   UNL     1       5.942   5.055  18.526  0.00  0.00    +0.000 A 
ATOM     14  C   UNL     1       5.035   3.910  18.937  0.00  0.00    +0.000 C 
ENDBRANCH   1   3
BRANCH   1  15
ATOM     15  C   UNL     1       1.775   5.226  20.531  0.00  0.00    +0.000 C 
BRANCH  15  16
ATOM     16  C   UNL     1       2.439   6.416  19.836  0.00  0.00    +0.000 C 
BRANCH  16  17
ATOM     17  C   UNL     1       1.704   7.691  20.165  0.00  0.00    +0.000 A 
ATOM     18  N   UNL     1       1.120   7.825  21.310  0.00  0.00    +0.000 NA
ATOM     19  C   UNL     1       0.454   9.034  21.565  0.00  0.00    +0.000 A 
ATOM     20  C   UNL     1      -0.189   9.195  22.793  0.00  0.00    +0.000 A 
ATOM     21  C   UNL     1      -0.871  10.380  23.087  0.00  0.00    +0.000 A 
ATOM     22  C   UNL     1      -0.915  11.414  22.152  0.00  0.00    +0.000 A 
ATOM     23  C   UNL     1      -0.278  11.267  20.919  0.00  0.00    +0.000 A 
ATOM     24  C   UNL     1       0.401  10.078  20.637  0.00  0.00    +0.000 A 
ATOM     25  C   UNL     1       1.088   9.875  19.349  0.00  0.00    +0.000 A 
ATOM     26  O   UNL     1       1.083  10.723  18.466  0.00  0.00    +0.000 OA
ATOM     27  N   UNL     1       1.726   8.666  19.204  0.00  0.00    +0.000 N 
ATOM     28  H   UNL     1       2.192   8.510  18.321  0.00  0.00    +0.000 HD
ENDBRANCH  16  17
ENDBRANCH  15  16
ENDBRANCH   1  15
TORSDOF 4
ENDMDL
MODEL 2
REMARK VINA RESULT:      -8.9      1.143      1.841
REMARK  Name = 
REMARK  4 active torsions:
REMARK  status: ('A' for Active; 'I' for Inactive)
REMARK    1  A    between atoms: C_2  and  C_3
REMARK    2  A    between atoms: C_3  and  C_4
REMARK    3  A    between atoms: C_4  and  C_5
REMARK    4  A    between atoms: C_5  and  C_6
REMARK                            x       y       z     vdW  Elec       q    Type
REMARK                         _______ _______ _______ _____ _____    ______ ____
ROOT
ATOM      1  C   UNL     1       2.201   3.964  20.093  0.00  0.00    +0.000 C 
ENDROOT
BRANCH   1   3
ATOM      2  O   UNL     1       1.493   3.786  17.806  0.00  0.00    +0.000 OA
ATOM      3  C   UNL     1       2.439   3.832  18.595  0.00  0.00    +0.000 C 
ATOM      4  N   UNL     1       3.752   3.775  18.159  0.00  0.00    +0.000 N 
ATOM      5  C   UNL     1       4.022   3.774  16.725  0.00  0.00    +0.000 C 
ATOM      6  C   UNL     1       4.583   5.134  16.306  0.00  0.00    +0.000 C 
ATOM      7  C   UNL     1       5.697   5.590  17.222  0.00  0.00    +0.000 A 
ATOM      8  C   UNL     1       6.548   6.625  16.814  0.00  0.00    +0.000 A 
ATOM      9  C   UNL     1       7.564   7.060  17.658  0.00  0.00    +0.000 A 
ATOM     10  F   UNL     1       8.374   8.048  17.260  0.00  0.00    +0.000 F 
ATOM     11  C   UNL     1       7.753   6.484  18.908  0.00  0.00    +0.000 A 
ATOM     12  C   UNL     1       6.899   5.465  19.334  0.00  0.00    +0.000 A 
ATOM     13  C   UNL     1       5.854   5.023  18.507  0.00  0.00    +0.000 A 
ATOM     14  C   UNL     1       4.942   3.913  18.993  0.00  0.00    +0.000 C 
ENDBRANCH   1   3
BRANCH   1  15
ATOM     15  C   UNL     1       1.652   5.334  20.500  0.00  0.00    +0.000 C 
BRANCH  15  16
ATOM     16  C   UNL     1       2.495   6.498  19.977  0.00  0.00    +0.000 C 
BRANCH  16  17
ATOM     17  C   UNL     1       1.826   7.812  20.289  0.00  0.00    +0.000 A 
ATOM     18  N   UNL     1       1.427   8.580  19.329  0.00  0.00    +0.000 NA
ATOM     19  C   UNL     1       0.807   9.790  19.676  0.00  0.00    +0.000 A 
ATOM     20  C   UNL     1       0.376  10.636  18.653  0.00  0.00    +0.000 A 
ATOM     21  C   UNL     1      -0.241  11.854  18.952  0.00  0.00    +0.000 A 
ATOM     22  C   UNL     1      -0.431  12.237  20.280  0.00  0.00    +0.000 A 
ATOM     23  C   UNL     1      -0.005  11.402  21.313  0.00  0.00    +0.000 A 
ATOM     24  C   UNL     1       0.610  10.185  21.001  0.00  0.00    +0.000 A 
ATOM     25  C   UNL     1       1.079   9.270  22.058  0.00  0.00    +0.000 A 
ATOM     26  O   UNL     1       0.968   9.536  23.247  0.00  0.00    +0.000 OA
ATOM     27  N   UNL     1       1.656   8.104  21.615  0.00  0.00    +0.000 N 
ATOM     28  H   UNL     1       1.991   7.473  22.330  0.00  0.00    +0.000 HD
ENDBRANCH  16  17
ENDBRANCH  15  16
ENDBRANCH   1  15
TORSDOF 4
ENDMDL
MODEL 3
REMARK VINA RESULT:      -8.8      2.829      4.358
REMARK  Name = 
REMARK  4 active torsions:
REMARK  status: ('A' for Active; 'I' for Inactive)
REMARK    1  A    between atoms: C_2  and  C_3
REMARK    2  A    between atoms: C_3  and  C_4
REMARK    3  A    between atoms: C_4  and  C_5
REMARK    4  A    between atoms: C_5  and  C_6
REMARK                            x       y       z     vdW  Elec       q    Type
REMARK                         _______ _______ _______ _____ _____    ______ ____
ROOT
ATOM      1  C   UNL     1       3.630   7.351  16.905  0.00  0.00    +0.000 C 
ENDROOT
BRANCH   1   3
ATOM      2  O   UNL     1       5.846   6.674  17.530  0.00  0.00    +0.000 OA
ATOM      3  C   UNL     1       4.670   6.342  17.371  0.00  0.00    +0.000 C 
ATOM      4  N   UNL     1       4.241   5.048  17.616  0.00  0.00    +0.000 N 
ATOM      5  C   UNL     1       5.180   4.086  18.183  0.00  0.00    +0.000 C 
ATOM      6  C   UNL     1       4.831   3.829  19.650  0.00  0.00    +0.000 C 
ATOM      7  C   UNL     1       3.356   3.552  19.837  0.00  0.00    +0.000 A 
ATOM      8  C   UNL     1       2.908   2.971  21.031  0.00  0.00    +0.000 A 
ATOM      9  C   UNL     1       1.552   2.729  21.216  0.00  0.00    +0.000 A 
ATOM     10  F   UNL     1       1.132   2.170  22.358  0.00  0.00    +0.000 F 
ATOM     11  C   UNL     1       0.624   3.054  20.234  0.00  0.00    +0.000 A 
ATOM     12  C   UNL     1       1.057   3.651  19.049  0.00  0.00    +0.000 A 
ATOM     13  C   UNL     1       2.419   3.925  18.847  0.00  0.00    +0.000 A 
ATOM     14  C   UNL     1       2.862   4.572  17.549  0.00  0.00    +0.000 C 
ENDBRANCH   1   3
BRANCH   1  15
ATOM     15  C   UNL     1       2.893   8.038  18.057  0.00  0.00    +0.000 C 
BRANCH  15  16
ATOM     16  C   UNL     1       1.977   9.172  17.592  0.00  0.00    +0.000 C 
BRANCH  16  17
ATOM     17  C   UNL     1       1.185   9.716  18.753  0.00  0.00    +0.000 A 
ATOM     18  N   UNL     1       1.231   9.125  19.901  0.00  0.00    +0.000 NA
ATOM     19  C   UNL     1       0.478   9.677  20.950  0.00  0.00    +0.000 A 
ATOM     20  C   UNL     1       0.508   9.049  22.195  0.00  0.00    +0.000 A 
ATOM     21  C   UNL     1      -0.233   9.559  23.265  0.00  0.00    +0.000 A 
ATOM     22  C   UNL     1      -1.011  10.704  23.097  0.00  0.00    +0.000 A 
ATOM     23  C   UNL     1      -1.053  11.342  21.857  0.00  0.00    +0.000 A 
ATOM     24  C   UNL     1      -0.307  10.823  20.795  0.00  0.00    +0.000 A 
ATOM     25  C   UNL     1      -0.319  11.461  19.466  0.00  0.00    +0.000 A 
ATOM     26  O   UNL     1      -0.989  12.457  19.227  0.00  0.00    +0.000 OA
ATOM     27  N   UNL     1       0.465  10.855  18.513  0.00  0.00    +0.000 N 
ATOM     28  H   UNL     1       0.457  11.277  17.594  0.00  0.00    +0.000 HD
ENDBRANCH  16  17
ENDBRANCH  15  16
ENDBRANCH   1  15
TORSDOF 4
ENDMDL
MODEL 4
REMARK VINA RESULT:      -8.5      5.221      7.989
REMARK  Name = 
REMARK  4 active torsions:
REMARK  status: ('A' for Active; 'I' for Inactive)
REMARK    1  A    between atoms: C_2  and  C_3
REMARK    2  A    between atoms: C_3  and  C_4
REMARK    3  A    between atoms: C_4  and  C_5
REMARK    4  A    between atoms: C_5  and  C_6
REMARK                            x       y       z     vdW  Elec       q    Type
REMARK                         _______ _______ _______ _____ _____    ______ ____
ROOT
ATOM      1  C   UNL     1       7.799   7.034  18.037  0.00  0.00    +0.000 C 
ENDROOT
BRANCH   1   3
ATOM      2  O   UNL     1       7.731   6.074  15.837  0.00  0.00    +0.000 OA
ATOM      3  C   UNL     1       7.095   6.411  16.838  0.00  0.00    +0.000 C 
ATOM      4  N   UNL     1       5.725   6.234  16.922  0.00  0.00    +0.000 N 
ATOM      5  C   UNL     1       5.035   5.528  15.848  0.00  0.00    +0.000 C 
ATOM      6  C   UNL     1       4.632   4.131  16.325  0.00  0.00    +0.000 C 
ATOM      7  C   UNL     1       3.953   4.173  17.676  0.00  0.00    +0.000 A 
ATOM      8  C   UNL     1       3.222   3.062  18.117  0.00  0.00    +0.000 A 
ATOM      9  C   UNL     1       2.609   3.087  19.364  0.00  0.00    +0.000 A 
ATOM     10  F   UNL     1       1.910   2.023  19.777  0.00  0.00    +0.000 F 
ATOM     11  C   UNL     1       2.707   4.200  20.189  0.00  0.00    +0.000 A 
ATOM     12  C   UNL     1       3.449   5.306  19.769  0.00  0.00    +0.000 A 
ATOM     13  C   UNL     1       4.094   5.295  18.522  0.00  0.00    +0.000 A 
ATOM     14  C   UNL     1       4.892   6.511  18.089  0.00  0.00    +0.000 C 
ENDBRANCH   1   3
BRANCH   1  15
ATOM     15  C   UNL     1       8.086   8.527  17.862  0.00  0.00    +0.000 C 
BRANCH  15  16
ATOM     16  C   UNL     1       8.869   9.128  19.031  0.00  0.00    +0.000 C 
BRANCH  16  17
ATOM     17  C   UNL     1       9.265  10.549  18.721  0.00  0.00    +0.000 A 
ATOM     18  N   UNL     1      10.408  11.004  19.117  0.00  0.00    +0.000 NA
ATOM     19  C   UNL     1      10.727  12.333  18.797  0.00  0.00    +0.000 A 
ATOM     20  C   UNL     1      11.954  12.845  19.223  0.00  0.00    +0.000 A 
ATOM     21  C   UNL     1      12.311  14.165  18.933  0.00  0.00    +0.000 A 
ATOM     22  C   UNL     1      11.441  14.985  18.215  0.00  0.00    +0.000 A 
ATOM     23  C   UNL     1      10.211  14.488  17.784  0.00  0.00    +0.000 A 
ATOM     24  C   UNL     1       9.865  13.165  18.079  0.00  0.00    +0.000 A 
ATOM     25  C   UNL     1       8.576  12.595  17.646  0.00  0.00    +0.000 A 
ATOM     26  O   UNL     1       7.748  13.250  17.028  0.00  0.00    +0.000 OA
ATOM     27  N   UNL     1       8.367  11.282  17.992  0.00  0.00    +0.000 N 
ATOM     28  H   UNL     1       7.482  10.882  17.711  0.00  0.00    +0.000 HD
ENDBRANCH  16  17
ENDBRANCH  15  16
ENDBRANCH   1  15
TORSDOF 4
ENDMDL
MODEL 5
REMARK VINA RESULT:      -8.5      5.446      7.756
REMARK  Name = 
REMARK  4 active torsions:
REMARK  status: ('A' for Active; 'I' for Inactive)
REMARK    1  A    between atoms: C_2  and  C_3
REMARK    2  A    between atoms: C_3  and  C_4
REMARK    3  A    between atoms: C_4  and  C_5
REMARK    4  A    between atoms: C_5  and  C_6
REMARK                            x       y       z     vdW  Elec       q    Type
REMARK                         _______ _______ _______ _____ _____    ______ ____
ROOT
ATOM      1  C   UNL     1       6.882   7.878  17.824  0.00  0.00    +0.000 C 
ENDROOT
BRANCH   1   3
ATOM      2  O   UNL     1       7.825   6.470  16.124  0.00  0.00    +0.000 OA
ATOM      3  C   UNL     1       6.806   6.847  16.706  0.00  0.00    +0.000 C 
ATOM      4  N   UNL     1       5.556   6.351  16.378  0.00  0.00    +0.000 N 
ATOM      5  C   UNL     1       5.456   5.273  15.400  0.00  0.00    +0.000 C 
ATOM      6  C   UNL     1       5.117   3.962  16.111  0.00  0.00    +0.000 C 
ATOM      7  C   UNL     1       3.968   4.129  17.080  0.00  0.00    +0.000 A 
ATOM      8  C   UNL     1       3.302   2.995  17.565  0.00  0.00    +0.000 A 
ATOM      9  C   UNL     1       2.255   3.140  18.468  0.00  0.00    +0.000 A 
ATOM     10  F   UNL     1       1.622   2.052  18.924  0.00  0.00    +0.000 F 
ATOM     11  C   UNL     1       1.852   4.396  18.903  0.00  0.00    +0.000 A 
ATOM     12  C   UNL     1       2.521   5.532  18.442  0.00  0.00    +0.000 A 
ATOM     13  C   UNL     1       3.595   5.409  17.546  0.00  0.00    +0.000 A 
ATOM     14  C   UNL     1       4.302   6.660  17.059  0.00  0.00    +0.000 C 
ENDBRANCH   1   3
BRANCH   1  15
ATOM     15  C   UNL     1       8.057   8.848  17.674  0.00  0.00    +0.000 C 
BRANCH  15  16
ATOM     16  C   UNL     1       8.870   9.007  18.960  0.00  0.00    +0.000 C 
BRANCH  16  17
ATOM     17  C   UNL     1       9.313  10.438  19.126  0.00  0.00    +0.000 A 
ATOM     18  N   UNL     1       9.261  11.001  20.288  0.00  0.00    +0.000 NA
ATOM     19  C   UNL     1       9.690  12.335  20.387  0.00  0.00    +0.000 A 
ATOM     20  C   UNL     1       9.635  12.962  21.632  0.00  0.00    +0.000 A 
ATOM     21  C   UNL     1      10.044  14.291  21.776  0.00  0.00    +0.000 A 
ATOM     22  C   UNL     1      10.513  15.004  20.672  0.00  0.00    +0.000 A 
ATOM     23  C   UNL     1      10.573  14.390  19.421  0.00  0.00    +0.000 A 
ATOM     24  C   UNL     1      10.161  13.060  19.290  0.00  0.00    +0.000 A 
ATOM     25  C   UNL     1      10.204  12.369  17.989  0.00  0.00    +0.000 A 
ATOM     26  O   UNL     1      10.584  12.925  16.967  0.00  0.00    +0.000 OA
ATOM     27  N   UNL     1       9.781  11.061  18.001  0.00  0.00    +0.000 N 
ATOM     28  H   UNL     1       9.796  10.579  17.113  0.00  0.00    +0.000 HD
ENDBRANCH  16  17
ENDBRANCH  15  16
ENDBRANCH   1  15
TORSDOF 4
ENDMDL
MODEL 6
REMARK VINA RESULT:      -8.5      4.658      7.333
REMARK  Name = 
REMARK  4 active torsions:
REMARK  status: ('A' for Active; 'I' for Inactive)
REMARK    1  A    between atoms: C_2  and  C_3
REMARK    2  A    between atoms: C_3  and  C_4
REMARK    3  A    between atoms: C_4  and  C_5
REMARK    4  A    between atoms: C_5  and  C_6
REMARK                            x       y       z     vdW  Elec       q    Type
REMARK                         _______ _______ _______ _____ _____    ______ ____
ROOT
ATOM      1  C   UNL     1       7.297   6.090  18.796  0.00  0.00    +0.000 C 
ENDROOT
BRANCH   1   3
ATOM      2  O   UNL     1       7.868   4.741  16.895  0.00  0.00    +0.000 OA
ATOM      3  C   UNL     1       6.982   5.335  17.513  0.00  0.00    +0.000 C 
ATOM      4  N   UNL     1       5.668   5.337  17.076  0.00  0.00    +0.000 N 
ATOM      5  C   UNL     1       5.304   4.522  15.921  0.00  0.00    +0.000 C 
ATOM      6  C   UNL     1       4.510   3.299  16.383  0.00  0.00    +0.000 C 
ATOM      7  C   UNL     1       3.403   3.677  17.342  0.00  0.00    +0.000 A 
ATOM      8  C   UNL     1       2.374   2.763  17.605  0.00  0.00    +0.000 A 
ATOM      9  C   UNL     1       1.362   3.098  18.497  0.00  0.00    +0.000 A 
ATOM     10  F   UNL     1       0.381   2.220  18.741  0.00  0.00    +0.000 F 
ATOM     11  C   UNL     1       1.350   4.329  19.140  0.00  0.00    +0.000 A 
ATOM     12  C   UNL     1       2.380   5.240  18.901  0.00  0.00    +0.000 A 
ATOM     13  C   UNL     1       3.424   4.917  18.019  0.00  0.00    +0.000 A 
ATOM     14  C   UNL     1       4.530   5.927  17.776  0.00  0.00    +0.000 C 
ENDBRANCH   1   3
BRANCH   1  15
ATOM     15  C   UNL     1       8.284   7.243  18.594  0.00  0.00    +0.000 C 
BRANCH  15  16
ATOM     16  C   UNL     1       7.768   8.312  17.630  0.00  0.00    +0.000 C 
BRANCH  16  17
ATOM     17  C   UNL     1       8.271   9.673  18.040  0.00  0.00    +0.000 A 
ATOM     18  N   UNL     1       9.138   9.783  18.992  0.00  0.00    +0.000 NA
ATOM     19  C   UNL     1       9.576  11.074  19.330  0.00  0.00    +0.000 A 
ATOM     20  C   UNL     1      10.505  11.214  20.360  0.00  0.00    +0.000 A 
ATOM     21  C   UNL     1      10.964  12.481  20.735  0.00  0.00    +0.000 A 
ATOM     22  C   UNL     1      10.493  13.619  20.080  0.00  0.00    +0.000 A 
ATOM     23  C   UNL     1       9.563  13.494  19.048  0.00  0.00    +0.000 A 
ATOM     24  C   UNL     1       9.113  12.222  18.682  0.00  0.00    +0.000 A 
ATOM     25  C   UNL     1       8.129  12.040  17.599  0.00  0.00    +0.000 A 
ATOM     26  O   UNL     1       7.652  12.985  16.986  0.00  0.00    +0.000 OA
ATOM     27  N   UNL     1       7.779  10.737  17.334  0.00  0.00    +0.000 N 
ATOM     28  H   UNL     1       7.097  10.599  16.600  0.00  0.00    +0.000 HD
ENDBRANCH  16  17
ENDBRANCH  15  16
ENDBRANCH   1  15
TORSDOF 4
ENDMDL
MODEL 7
REMARK VINA RESULT:      -8.4      1.399      1.771
REMARK  Name = 
REMARK  4 active torsions:
REMARK  status: ('A' for Active; 'I' for Inactive)
REMARK    1  A    between atoms: C_2  and  C_3
REMARK    2  A    between atoms: C_3  and  C_4
REMARK    3  A    between atoms: C_4  and  C_5
REMARK    4  A    between atoms: C_5  and  C_6
REMARK                            x       y       z     vdW  Elec       q    Type
REMARK                         _______ _______ _______ _____ _____    ______ ____
ROOT
ATOM      1  C   UNL     1       2.321   4.514  21.002  0.00  0.00    +0.000 C 
ENDROOT
BRANCH   1   3
ATOM      2  O   UNL     1       1.017   3.041  19.627  0.00  0.00    +0.000 OA
ATOM      3  C   UNL     1       2.137   3.470  19.908  0.00  0.00    +0.000 C 
ATOM      4  N   UNL     1       3.271   3.034  19.245  0.00  0.00    +0.000 N 
ATOM      5  C   UNL     1       3.122   2.130  18.109  0.00  0.00    +0.000 C 
ATOM      6  C   UNL     1       3.394   2.888  16.809  0.00  0.00    +0.000 C 
ATOM      7  C   UNL     1       4.668   3.700  16.887  0.00  0.00    +0.000 A 
ATOM      8  C   UNL     1       5.254   4.182  15.709  0.00  0.00    +0.000 A 
ATOM      9  C   UNL     1       6.415   4.943  15.775  0.00  0.00    +0.000 A 
ATOM     10  F   UNL     1       6.971   5.398  14.645  0.00  0.00    +0.000 F 
ATOM     11  C   UNL     1       7.011   5.238  16.995  0.00  0.00    +0.000 A 
ATOM     12  C   UNL     1       6.426   4.780  18.176  0.00  0.00    +0.000 A 
ATOM     13  C   UNL     1       5.241   4.027  18.136  0.00  0.00    +0.000 A 
ATOM     14  C   UNL     1       4.627   3.540  19.435  0.00  0.00    +0.000 C 
ENDBRANCH   1   3
BRANCH   1  15
ATOM     15  C   UNL     1       1.436   5.749  20.816  0.00  0.00    +0.000 C 
BRANCH  15  16
ATOM     16  C   UNL     1       2.176   6.926  20.177  0.00  0.00    +0.000 C 
BRANCH  16  17
ATOM     17  C   UNL     1       1.428   8.211  20.423  0.00  0.00    +0.000 A 
ATOM     18  N   UNL     1       0.811   8.396  21.544  0.00  0.00    +0.000 NA
ATOM     19  C   UNL     1       0.134   9.612  21.723  0.00  0.00    +0.000 A 
ATOM     20  C   UNL     1      -0.545   9.828  22.923  0.00  0.00    +0.000 A 
ATOM     21  C   UNL     1      -1.239  11.022  23.141  0.00  0.00    +0.000 A 
ATOM     22  C   UNL     1      -1.259  12.012  22.158  0.00  0.00    +0.000 A 
ATOM     23  C   UNL     1      -0.586  11.810  20.953  0.00  0.00    +0.000 A 
ATOM     24  C   UNL     1       0.105  10.612  20.746  0.00  0.00    +0.000 A 
ATOM     25  C   UNL     1       0.830  10.352  19.489  0.00  0.00    +0.000 A 
ATOM     26  O   UNL     1       0.849  11.158  18.569  0.00  0.00    +0.000 OA
ATOM     27  N   UNL     1       1.475   9.140  19.420  0.00  0.00    +0.000 N 
ATOM     28  H   UNL     1       1.967   8.945  18.559  0.00  0.00    +0.000 HD
ENDBRANCH  16  17
ENDBRANCH  15  16
ENDBRANCH   1  15
TORSDOF 4
ENDMDL
MODEL 8
REMARK VINA RESULT:      -8.4      1.458      1.922
REMARK  Name = 
REMARK  4 active torsions:
REMARK  status: ('A' for Active; 'I' for Inactive)
REMARK    1  A    between atoms: C_2  and  C_3
REMARK    2  A    between atoms: C_3  and  C_4
REMARK    3  A    between atoms: C_4  and  C_5
REMARK    4  A    between atoms: C_5  and  C_6
REMARK                            x       y       z     vdW  Elec       q    Type
REMARK                         _______ _______ _______ _____ _____    ______ ____
ROOT
ATOM      1  C   UNL     1       1.923   3.808  21.185  0.00  0.00    +0.000 C 
ENDROOT
BRANCH   1   3
ATOM      2  O   UNL     1       0.686   2.588  19.529  0.00  0.00    +0.000 OA
ATOM      3  C   UNL     1       1.791   2.966  19.923  0.00  0.00    +0.000 C 
ATOM      4  N   UNL     1       2.952   2.652  19.239  0.00  0.00    +0.000 N 
ATOM      5  C   UNL     1       2.855   1.955  17.962  0.00  0.00    +0.000 C 
ATOM      6  C   UNL     1       3.169   2.924  16.821  0.00  0.00    +0.000 C 
ATOM      7  C   UNL     1       4.431   3.715  17.086  0.00  0.00    +0.000 A 
ATOM      8  C   UNL     1       5.057   4.393  16.031  0.00  0.00    +0.000 A 
ATOM      9  C   UNL     1       6.208   5.134  16.271  0.00  0.00    +0.000 A 
ATOM     10  F   UNL     1       6.802   5.777  15.257  0.00  0.00    +0.000 F 
ATOM     11  C   UNL     1       6.754   5.219  17.545  0.00  0.00    +0.000 A 
ATOM     12  C   UNL     1       6.129   4.564  18.607  0.00  0.00    +0.000 A 
ATOM     13  C   UNL     1       4.954   3.826  18.393  0.00  0.00    +0.000 A 
ATOM     14  C   UNL     1       4.296   3.122  19.565  0.00  0.00    +0.000 C 
ENDBRANCH   1   3
BRANCH   1  15
ATOM     15  C   UNL     1       1.483   5.262  20.992  0.00  0.00    +0.000 C 
BRANCH  15  16
ATOM     16  C   UNL     1       2.465   6.078  20.149  0.00  0.00    +0.000 C 
BRANCH  16  17
ATOM     17  C   UNL     1       1.952   7.483  19.962  0.00  0.00    +0.000 A 
ATOM     18  N   UNL     1       1.349   8.087  20.933  0.00  0.00    +0.000 NA
ATOM     19  C   UNL     1       0.895   9.396  20.706  0.00  0.00    +0.000 A 
ATOM     20  C   UNL     1       0.235  10.061  21.740  0.00  0.00    +0.000 A 
ATOM     21  C   UNL     1      -0.240  11.363  21.556  0.00  0.00    +0.000 A 
ATOM     22  C   UNL     1      -0.058  12.011  20.334  0.00  0.00    +0.000 A 
ATOM     23  C   UNL     1       0.600  11.358  19.291  0.00  0.00    +0.000 A 
ATOM     24  C   UNL     1       1.071  10.056  19.487  0.00  0.00    +0.000 A 
ATOM     25  C   UNL     1       1.770   9.324  18.415  0.00  0.00    +0.000 A 
ATOM     26  O   UNL     1       1.956   9.811  17.308  0.00  0.00    +0.000 OA
ATOM     27  N   UNL     1       2.190   8.057  18.743  0.00  0.00    +0.000 N 
ATOM     28  H   UNL     1       2.662   7.541  18.013  0.00  0.00    +0.000 HD
ENDBRANCH  16  17
ENDBRANCH  15  16
ENDBRANCH   1  15
TORSDOF 4
ENDMDL
MODEL 9
REMARK VINA RESULT:      -8.3      1.696      2.584
REMARK  Name = 
REMARK  4 active torsions:
REMARK  status: ('A' for Active; 'I' for Inactive)
REMARK    1  A    between atoms: C_2  and  C_3
REMARK    2  A    between atoms: C_3  and  C_4
REMARK    3  A    between atoms: C_4  and  C_5
REMARK    4  A    between atoms: C_5  and  C_6
REMARK                            x       y       z     vdW  Elec       q    Type
REMARK                         _______ _______ _______ _____ _____    ______ ____
ROOT
ATOM      1  C   UNL     1       3.255   3.069  18.912  0.00  0.00    +0.000 C 
ENDROOT
BRANCH   1   3
ATOM      2  O   UNL     1       2.418   3.709  16.756  0.00  0.00    +0.000 OA
ATOM      3  C   UNL     1       3.400   3.600  17.493  0.00  0.00    +0.000 C 
ATOM      4  N   UNL     1       4.668   3.959  17.071  0.00  0.00    +0.000 N 
ATOM      5  C   UNL     1       4.828   4.587  15.764  0.00  0.00    +0.000 C 
ATOM      6  C   UNL     1       5.128   6.076  15.941  0.00  0.00    +0.000 C 
ATOM      7  C   UNL     1       6.218   6.312  16.963  0.00  0.00    +0.000 A 
ATOM      8  C   UNL     1       6.858   7.558  17.017  0.00  0.00    +0.000 A 
ATOM      9  C   UNL     1       7.849   7.787  17.963  0.00  0.00    +0.000 A 
ATOM     10  F   UNL     1       8.458   8.979  18.007  0.00  0.00    +0.000 F 
ATOM     11  C   UNL     1       8.222   6.798  18.865  0.00  0.00    +0.000 A 
ATOM     12  C   UNL     1       7.579   5.560  18.834  0.00  0.00    +0.000 A 
ATOM     13  C   UNL     1       6.560   5.312  17.900  0.00  0.00    +0.000 A 
ATOM     14  C   UNL     1       5.879   3.957  17.887  0.00  0.00    +0.000 C 
ENDBRANCH   1   3
BRANCH   1  15
ATOM     15  C   UNL     1       2.063   3.667  19.664  0.00  0.00    +0.000 C 
BRANCH  15  16
ATOM     16  C   UNL     1       2.480   4.623  20.784  0.00  0.00    +0.000 C 
BRANCH  16  17
ATOM     17  C   UNL     1       2.100   6.039  20.433  0.00  0.00    +0.000 A 
ATOM     18  N   UNL     1       2.532   6.572  19.338  0.00  0.00    +0.000 NA
ATOM     19  C   UNL     1       2.144   7.892  19.057  0.00  0.00    +0.000 A 
ATOM     20  C   UNL     1       2.606   8.488  17.883  0.00  0.00    +0.000 A 
ATOM     21  C   UNL     1       2.251   9.802  17.568  0.00  0.00    +0.000 A 
ATOM     22  C   UNL     1       1.431  10.533  18.427  0.00  0.00    +0.000 A 
ATOM     23  C   UNL     1       0.962   9.951  19.605  0.00  0.00    +0.000 A 
ATOM     24  C   UNL     1       1.323   8.635  19.910  0.00  0.00    +0.000 A 
ATOM     25  C   UNL     1       0.855   7.978  21.143  0.00  0.00    +0.000 A 
ATOM     26  O   UNL     1       0.147   8.552  21.960  0.00  0.00    +0.000 OA
ATOM     27  N   UNL     1       1.274   6.680  21.316  0.00  0.00    +0.000 N 
ATOM     28  H   UNL     1       0.969   6.221  22.163  0.00  0.00    +0.000 HD
ENDBRANCH  16  17
ENDBRANCH  15  16
ENDBRANCH   1  15
TORSDOF 4
ENDMDL
