MODEL 1
REMARK VINA RESULT:      -8.4      0.000      0.000
REMARK  Name = 
REMARK  5 active torsions:
REMARK  status: ('A' for Active; 'I' for Inactive)
REMARK    1  A    between atoms: C_2  and  C_14
REMARK    2  A    between atoms: N_3  and  C_4
REMARK    3  A    between atoms: C_17  and  S_18
REMARK    4  A    between atoms: S_18  and  N_21
REMARK    5  A    between atoms: N_21  and  C_22
REMARK                            x       y       z     vdW  Elec       q    Type
REMARK                         _______ _______ _______ _____ _____    ______ ____
ROOT
ATOM      1  C   UNL     1       1.688   7.478  20.393  0.00  0.00    +0.000 A 
ATOM      2  C   UNL     1       1.462   6.253  21.035  0.00  0.00    +0.000 A 
ATOM      3  C   UNL     1       1.701   5.057  20.358  0.00  0.00    +0.000 A 
ATOM      4  C   UNL     1       2.191   5.094  19.049  0.00  0.00    +0.000 A 
ATOM      5  C   UNL     1       2.466   6.317  18.428  0.00  0.00    +0.000 A 
ATOM      6  C   UNL     1       2.194   7.511  19.090  0.00  0.00    +0.000 A 
ENDROOT
BRANCH   1   8
ATOM      7  O   UNL     1       1.747   8.768  22.326  0.00  0.00    +0.000 OA
ATOM      8  C   UNL     1       1.440   8.731  21.143  0.00  0.00    +0.000 C 
ATOM      9  N   UNL     1       0.811   9.728  20.418  0.00  0.00    +0.000 N 
ATOM     10  H   UNL     1       0.443   9.486  19.508  0.00  0.00    +0.000 HD
BRANCH   9  11
ATOM     11  C   UNL     1       0.424  10.979  20.939  0.00  0.00    +0.000 A 
ATOM     12  C   UNL     1       1.182  12.138  20.835  0.00  0.00    +0.000 A 
ATOM     13  N   UNL     1       0.845  13.322  21.401  0.00  0.00    +0.000 NA
ATOM     14  C   UNL     1      -0.278  13.372  22.129  0.00  0.00    +0.000 A 
ATOM     15  C   UNL     1      -0.602  14.550  22.784  0.00  0.00    +0.000 A 
ATOM     16  C   UNL     1      -1.739  14.651  23.588  0.00  0.00    +0.000 A 
ATOM     17  C   UNL     1      -2.585  13.556  23.730  0.00  0.00    +0.000 A 
ATOM     18  C   UNL     1      -2.293  12.366  23.066  0.00  0.00    +0.000 A 
ATOM     19  C   UNL     1      -1.137  12.262  22.273  0.00  0.00    +0.000 A 
ATOM     20  C   UNL     1      -0.781  11.064  21.634  0.00  0.00    +0.000 A 
ENDBRANCH   9  11
ENDBRANCH   1   8
BRANCH   4  21
ATOM     21  S   UNL     1       2.606   3.570  18.233  0.00  0.00    +0.000 S 
ATOM     22  O   UNL     1       3.326   2.788  19.209  0.00  0.00    +0.000 OA
ATOM     23  O   UNL     1       1.404   3.100  17.584  0.00  0.00    +0.000 OA
BRANCH  21  24
ATOM     24  N   UNL     1       3.654   4.040  16.970  0.00  0.00    +0.000 NA
ATOM     25  H   UNL     1       3.418   4.977  16.647  0.00  0.00    +0.000 HD
BRANCH  24  26
ATOM     26  C   UNL     1       5.098   3.701  17.032  0.00  0.00    +0.000 C 
ATOM     27  C   UNL     1       5.798   4.532  18.120  0.00  0.00    +0.000 C 
ATOM     28  C   UNL     1       6.094   5.918  17.559  0.00  0.00    +0.000 C 
ATOM     29  S   UNL     1       6.288   5.713  15.803  0.00  0.00    +0.000 S 
ATOM     30  O   UNL     1       5.274   6.492  15.131  0.00  0.00    +0.000 OA
ATOM     31  O   UNL     1       7.697   5.834  15.478  0.00  0.00    +0.000 OA
ATOM     32  C   UNL     1       5.857   3.994  15.740  0.00  0.00    +0.000 C 
ENDBRANCH  24  26
ENDBRANCH  21  24
ENDBRANCH   4  21
TORSDOF 5
ENDMDL
MODEL 2
REMARK VINA RESULT:      -8.4      2.167      3.685
REMARK  Name = 
REMARK  5 active torsions:
REMARK  status: ('A' for Active; 'I' for Inactive)
REMARK    1  A    between atoms: C_2  and  C_14
REMARK    2  A    between atoms: N_3  and  C_4
REMARK    3  A    between atoms: C_17  and  S_18
REMARK    4  A    between atoms: S_18  and  N_21
REMARK    5  A    between atoms: N_21  and  C_22
REMARK                            x       y       z     vdW  Elec       q    Type
REMARK                         _______ _______ _______ _____ _____    ______ ____
ROOT
ATOM      1  C   UNL     1       1.097   9.150  19.314  0.00  0.00    +0.000 A 
ATOM      2  C   UNL     1       1.490   8.139  20.200  0.00  0.00    +0.000 A 
ATOM      3  C   UNL     1       2.363   7.138  19.774  0.00  0.00    +0.000 A 
ATOM      4  C   UNL     1       2.859   7.170  18.467  0.00  0.00    +0.000 A 
ATOM      5  C   UNL     1       2.507   8.208  17.598  0.00  0.00    +0.000 A 
ATOM      6  C   UNL     1       1.608   9.187  18.013  0.00  0.00    +0.000 A 
ENDROOT
BRANCH   1   8
ATOM      7  O   UNL     1      -0.756  10.536  19.088  0.00  0.00    +0.000 OA
ATOM      8  C   UNL     1       0.181  10.207  19.801  0.00  0.00    +0.000 C 
ATOM      9  N   UNL     1       0.534  10.766  21.016  0.00  0.00    +0.000 N 
ATOM     10  H   UNL     1       1.441  10.530  21.397  0.00  0.00    +0.000 HD
BRANCH   9  11
ATOM     11  C   UNL     1      -0.154  11.824  21.644  0.00  0.00    +0.000 A 
ATOM     12  C   UNL     1       0.318  13.128  21.722  0.00  0.00    +0.000 A 
ATOM     13  N   UNL     1      -0.308  14.127  22.390  0.00  0.00    +0.000 NA
ATOM     14  C   UNL     1      -1.442  13.832  23.039  0.00  0.00    +0.000 A 
ATOM     15  C   UNL     1      -2.058  14.817  23.795  0.00  0.00    +0.000 A 
ATOM     16  C   UNL     1      -3.221  14.560  24.523  0.00  0.00    +0.000 A 
ATOM     17  C   UNL     1      -3.796  13.294  24.484  0.00  0.00    +0.000 A 
ATOM     18  C   UNL     1      -3.208  12.291  23.715  0.00  0.00    +0.000 A 
ATOM     19  C   UNL     1      -2.027  12.549  22.998  0.00  0.00    +0.000 A 
ATOM     20  C   UNL     1      -1.375  11.550  22.257  0.00  0.00    +0.000 A 
ENDBRANCH   9  11
ENDBRANCH   1   8
BRANCH   4  21
ATOM     21  S   UNL     1       4.062   5.961  17.964  0.00  0.00    +0.000 S 
ATOM     22  O   UNL     1       4.467   6.343  16.633  0.00  0.00    +0.000 OA
ATOM     23  O   UNL     1       4.996   5.818  19.057  0.00  0.00    +0.000 OA
BRANCH  21  24
ATOM     24  N   UNL     1       3.190   4.494  17.914  0.00  0.00    +0.000 NA
ATOM     25  H   UNL     1       2.948   4.261  16.952  0.00  0.00    +0.000 HD
BRANCH  24  26
ATOM     26  C   UNL     1       3.578   3.364  18.795  0.00  0.00    +0.000 C 
ATOM     27  C   UNL     1       2.829   2.084  18.387  0.00  0.00    +0.000 C 
ATOM     28  C   UNL     1       1.425   2.133  18.979  0.00  0.00    +0.000 C 
ATOM     29  S   UNL     1       1.543   3.113  20.459  0.00  0.00    +0.000 S 
ATOM     30  O   UNL     1       0.696   4.275  20.312  0.00  0.00    +0.000 OA
ATOM     31  O   UNL     1       1.449   2.229  21.606  0.00  0.00    +0.000 OA
ATOM     32  C   UNL     1       3.241   3.585  20.267  0.00  0.00    +0.000 C 
ENDBRANCH  24  26
ENDBRANCH  21  24
ENDBRANCH   4  21
TORSDOF 5
ENDMDL
MODEL 3
REMARK VINA RESULT:      -8.3      0.941      1.198
REMARK  Name = 
REMARK  5 active torsions:
REMARK  status: ('A' for Active; 'I' for Inactive)
REMARK    1  A    between atoms: C_2  and  C_14
REMARK    2  A    between atoms: N_3  and  C_4
REMARK    3  A    between atoms: C_17  and  S_18
REMARK    4  A    between atoms: S_18  and  N_21
REMARK    5  A    between atoms: N_21  and  C_22
REMARK                            x       y       z     vdW  Elec       q    Type
REMARK                         _______ _______ _______ _____ _____    ______ ____
ROOT
ATOM      1  C   UNL     1       1.714   7.416  20.292  0.00  0.00    +0.000 A 
ATOM      2  C   UNL     1       1.615   6.166  20.916  0.00  0.00    +0.000 A 
ATOM      3  C   UNL     1       1.915   5.005  20.204  0.00  0.00    +0.000 A 
ATOM      4  C   UNL     1       2.339   5.105  18.875  0.00  0.00    +0.000 A 
ATOM      5  C   UNL     1       2.488   6.356  18.268  0.00  0.00    +0.000 A 
ATOM      6  C   UNL     1       2.155   7.513  18.969  0.00  0.00    +0.000 A 
ENDROOT
BRANCH   1   8
ATOM      7  O   UNL     1       1.602   8.606  22.286  0.00  0.00    +0.000 OA
ATOM      8  C   UNL     1       1.404   8.631  21.080  0.00  0.00    +0.000 C 
ATOM      9  N   UNL     1       0.848   9.669  20.353  0.00  0.00    +0.000 N 
ATOM     10  H   UNL     1       0.563   9.477  19.402  0.00  0.00    +0.000 HD
BRANCH   9  11
ATOM     11  C   UNL     1       0.421  10.896  20.901  0.00  0.00    +0.000 A 
ATOM     12  C   UNL     1       1.163  12.068  20.868  0.00  0.00    +0.000 A 
ATOM     13  N   UNL     1       0.785  13.227  21.460  0.00  0.00    +0.000 NA
ATOM     14  C   UNL     1      -0.367  13.235  22.143  0.00  0.00    +0.000 A 
ATOM     15  C   UNL     1      -0.736  14.384  22.824  0.00  0.00    +0.000 A 
ATOM     16  C   UNL     1      -1.907  14.441  23.583  0.00  0.00    +0.000 A 
ATOM     17  C   UNL     1      -2.741  13.330  23.652  0.00  0.00    +0.000 A 
ATOM     18  C   UNL     1      -2.403  12.168  22.960  0.00  0.00    +0.000 A 
ATOM     19  C   UNL     1      -1.214  12.108  22.212  0.00  0.00    +0.000 A 
ATOM     20  C   UNL     1      -0.813  10.938  21.547  0.00  0.00    +0.000 A 
ENDBRANCH   9  11
ENDBRANCH   1   8
BRANCH   4  21
ATOM     21  S   UNL     1       2.834   3.633  18.008  0.00  0.00    +0.000 S 
ATOM     22  O   UNL     1       2.659   2.550  18.944  0.00  0.00    +0.000 OA
ATOM     23  O   UNL     1       2.183   3.667  16.718  0.00  0.00    +0.000 OA
BRANCH  21  24
ATOM     24  N   UNL     1       4.494   3.870  17.688  0.00  0.00    +0.000 NA
ATOM     25  H   UNL     1       5.020   3.029  17.918  0.00  0.00    +0.000 HD
BRANCH  24  26
ATOM     26  C   UNL     1       4.922   4.613  16.476  0.00  0.00    +0.000 C 
ATOM     27  C   UNL     1       6.171   3.960  15.860  0.00  0.00    +0.000 C 
ATOM     28  C   UNL     1       7.396   4.421  16.640  0.00  0.00    +0.000 C 
ATOM     29  S   UNL     1       6.999   6.030  17.286  0.00  0.00    +0.000 S 
ATOM     30  O   UNL     1       7.046   5.973  18.729  0.00  0.00    +0.000 OA
ATOM     31  O   UNL     1       7.733   7.025  16.527  0.00  0.00    +0.000 OA
ATOM     32  C   UNL     1       5.310   6.064  16.746  0.00  0.00    +0.000 C 
ENDBRANCH  24  26
ENDBRANCH  21  24
ENDBRANCH   4  21
TORSDOF 5
ENDMDL
MODEL 4
REMARK VINA RESULT:      -8.2      3.170      4.612
REMARK  Name = 
REMARK  5 active torsions:
REMARK  status: ('A' for Active; 'I' for Inactive)
REMARK    1  A    between atoms: C_2  and  C_14
REMARK    2  A    between atoms: N_3  and  C_4
REMARK    3  A    between atoms: C_17  and  S_18
REMARK    4  A    between atoms: S_18  and  N_21
REMARK    5  A    between atoms: N_21  and  C_22
REMARK                            x       y       z     vdW  Elec       q    Type
REMARK                         _______ _______ _______ _____ _____    ______ ____
ROOT
ATOM      1  C   UNL     1       2.475   8.209  18.329  0.00  0.00    +0.000 A 
ATOM      2  C   UNL     1       3.426   8.010  17.319  0.00  0.00    +0.000 A 
ATOM      3  C   UNL     1       4.357   6.977  17.430  0.00  0.00    +0.000 A 
ATOM      4  C   UNL     1       4.313   6.131  18.542  0.00  0.00    +0.000 A 
ATOM      5  C   UNL     1       3.332   6.297  19.524  0.00  0.00    +0.000 A 
ATOM      6  C   UNL     1       2.425   7.350  19.430  0.00  0.00    +0.000 A 
ENDROOT
BRANCH   1   8
ATOM      7  O   UNL     1       1.802  10.271  17.493  0.00  0.00    +0.000 OA
ATOM      8  C   UNL     1       1.491   9.304  18.174  0.00  0.00    +0.000 C 
ATOM      9  N   UNL     1       0.319   9.138  18.890  0.00  0.00    +0.000 N 
ATOM     10  H   UNL     1       0.281   8.383  19.562  0.00  0.00    +0.000 HD
BRANCH   9  11
ATOM     11  C   UNL     1      -0.733  10.076  18.940  0.00  0.00    +0.000 A 
ATOM     12  C   UNL     1      -0.847  11.072  19.900  0.00  0.00    +0.000 A 
ATOM     13  N   UNL     1      -1.896  11.925  19.993  0.00  0.00    +0.000 NA
ATOM     14  C   UNL     1      -2.898  11.782  19.117  0.00  0.00    +0.000 A 
ATOM     15  C   UNL     1      -4.018  12.590  19.241  0.00  0.00    +0.000 A 
ATOM     16  C   UNL     1      -5.111  12.462  18.382  0.00  0.00    +0.000 A 
ATOM     17  C   UNL     1      -5.082  11.517  17.361  0.00  0.00    +0.000 A 
ATOM     18  C   UNL     1      -3.960  10.705  17.203  0.00  0.00    +0.000 A 
ATOM     19  C   UNL     1      -2.869  10.824  18.081  0.00  0.00    +0.000 A 
ATOM     20  C   UNL     1      -1.745   9.988  17.987  0.00  0.00    +0.000 A 
ENDBRANCH   9  11
ENDBRANCH   1   8
BRANCH   4  21
ATOM     21  S   UNL     1       5.424   4.744  18.622  0.00  0.00    +0.000 S 
ATOM     22  O   UNL     1       5.862   4.515  17.267  0.00  0.00    +0.000 OA
ATOM     23  O   UNL     1       6.340   5.002  19.709  0.00  0.00    +0.000 OA
BRANCH  21  24
ATOM     24  N   UNL     1       4.444   3.449  19.149  0.00  0.00    +0.000 NA
ATOM     25  H   UNL     1       3.920   3.720  19.980  0.00  0.00    +0.000 HD
BRANCH  24  26
ATOM     26  C   UNL     1       3.733   2.600  18.160  0.00  0.00    +0.000 C 
ATOM     27  C   UNL     1       2.965   3.476  17.156  0.00  0.00    +0.000 C 
ATOM     28  C   UNL     1       1.655   3.917  17.798  0.00  0.00    +0.000 C 
ATOM     29  S   UNL     1       1.217   2.644  18.960  0.00  0.00    +0.000 S 
ATOM     30  O   UNL     1       1.176   3.221  20.284  0.00  0.00    +0.000 OA
ATOM     31  O   UNL     1       0.108   1.884  18.415  0.00  0.00    +0.000 OA
ATOM     32  C   UNL     1       2.690   1.674  18.778  0.00  0.00    +0.000 C 
ENDBRANCH  24  26
ENDBRANCH  21  24
ENDBRANCH   4  21
TORSDOF 5
ENDMDL
MODEL 5
REMARK VINA RESULT:      -8.1      6.168      8.496
REMARK  Name = 
REMARK  5 active torsions:
REMARK  status: ('A' for Active; 'I' for Inactive)
REMARK    1  A    between atoms: C_2  and  C_14
REMARK    2  A    between atoms: N_3  and  C_4
REMARK    3  A    between atoms: C_17  and  S_18
REMARK    4  A    between atoms: S_18  and  N_21
REMARK    5  A    between atoms: N_21  and  C_22
REMARK                            x       y       z     vdW  Elec       q    Type
REMARK                         _______ _______ _______ _____ _____    ______ ____
ROOT
ATOM      1  C   UNL     1       8.389   8.607  18.486  0.00  0.00    +0.000 A 
ATOM      2  C   UNL     1       7.443   8.589  17.452  0.00  0.00    +0.000 A 
ATOM      3  C   UNL     1       6.764   7.410  17.147  0.00  0.00    +0.000 A 
ATOM      4  C   UNL     1       7.017   6.258  17.899  0.00  0.00    +0.000 A 
ATOM      5  C   UNL     1       7.923   6.289  18.964  0.00  0.00    +0.000 A 
ATOM      6  C   UNL     1       8.627   7.458  19.245  0.00  0.00    +0.000 A 
ENDROOT
BRANCH   1   8
ATOM      7  O   UNL     1       9.316  10.141  19.966  0.00  0.00    +0.000 OA
ATOM      8  C   UNL     1       9.081   9.879  18.795  0.00  0.00    +0.000 C 
ATOM      9  N   UNL     1       9.337  10.683  17.698  0.00  0.00    +0.000 N 
ATOM     10  H   UNL     1       8.913  10.425  16.817  0.00  0.00    +0.000 HD
BRANCH   9  11
ATOM     11  C   UNL     1       9.932  11.960  17.759  0.00  0.00    +0.000 A 
ATOM     12  C   UNL     1      11.300  12.182  17.835  0.00  0.00    +0.000 A 
ATOM     13  N   UNL     1      11.867  13.406  17.969  0.00  0.00    +0.000 NA
ATOM     14  C   UNL     1      11.055  14.466  18.059  0.00  0.00    +0.000 A 
ATOM     15  C   UNL     1      11.607  15.718  18.276  0.00  0.00    +0.000 A 
ATOM     16  C   UNL     1      10.809  16.856  18.416  0.00  0.00    +0.000 A 
ATOM     17  C   UNL     1       9.426  16.747  18.320  0.00  0.00    +0.000 A 
ATOM     18  C   UNL     1       8.846  15.502  18.082  0.00  0.00    +0.000 A 
ATOM     19  C   UNL     1       9.651  14.356  17.960  0.00  0.00    +0.000 A 
ATOM     20  C   UNL     1       9.101  13.078  17.774  0.00  0.00    +0.000 A 
ENDBRANCH   9  11
ENDBRANCH   1   8
BRANCH   4  21
ATOM     21  S   UNL     1       6.065   4.789  17.585  0.00  0.00    +0.000 S 
ATOM     22  O   UNL     1       6.223   4.514  16.178  0.00  0.00    +0.000 OA
ATOM     23  O   UNL     1       6.412   3.836  18.614  0.00  0.00    +0.000 OA
BRANCH  21  24
ATOM     24  N   UNL     1       4.455   5.252  17.916  0.00  0.00    +0.000 NA
ATOM     25  H   UNL     1       4.370   6.266  17.894  0.00  0.00    +0.000 HD
BRANCH  24  26
ATOM     26  C   UNL     1       3.324   4.475  17.351  0.00  0.00    +0.000 C 
ATOM     27  C   UNL     1       1.988   4.986  17.916  0.00  0.00    +0.000 C 
ATOM     28  C   UNL     1       1.781   4.380  19.299  0.00  0.00    +0.000 C 
ATOM     29  S   UNL     1       2.639   2.823  19.294  0.00  0.00    +0.000 S 
ATOM     30  O   UNL     1       3.673   2.861  20.302  0.00  0.00    +0.000 OA
ATOM     31  O   UNL     1       1.658   1.756  19.235  0.00  0.00    +0.000 OA
ATOM     32  C   UNL     1       3.368   2.987  17.686  0.00  0.00    +0.000 C 
ENDBRANCH  24  26
ENDBRANCH  21  24
ENDBRANCH   4  21
TORSDOF 5
ENDMDL
MODEL 6
REMARK VINA RESULT:      -8.1      2.234      3.669
REMARK  Name = 
REMARK  5 active torsions:
REMARK  status: ('A' for Active; 'I' for Inactive)
REMARK    1  A    between atoms: C_2  and  C_14
REMARK    2  A    between atoms: N_3  and  C_4
REMARK    3  A    between atoms: C_17  and  S_18
REMARK    4  A    between atoms: S_18  and  N_21
REMARK    5  A    between atoms: N_21  and  C_22
REMARK                            x       y       z     vdW  Elec       q    Type
REMARK                         _______ _______ _______ _____ _____    ______ ____
ROOT
ATOM      1  C   UNL     1       2.385   8.071  18.574  0.00  0.00    +0.000 A 
ATOM      2  C   UNL     1       2.413   7.149  19.628  0.00  0.00    +0.000 A 
ATOM      3  C   UNL     1       3.311   6.082  19.599  0.00  0.00    +0.000 A 
ATOM      4  C   UNL     1       4.197   5.960  18.524  0.00  0.00    +0.000 A 
ATOM      5  C   UNL     1       4.205   6.910  17.498  0.00  0.00    +0.000 A 
ATOM      6  C   UNL     1       3.283   7.954  17.509  0.00  0.00    +0.000 A 
ENDROOT
BRANCH   1   8
ATOM      7  O   UNL     1       1.458  10.037  17.750  0.00  0.00    +0.000 OA
ATOM      8  C   UNL     1       1.430   9.201  18.642  0.00  0.00    +0.000 C 
ATOM      9  N   UNL     1       0.633   9.221  19.772  0.00  0.00    +0.000 N 
ATOM     10  H   UNL     1       0.856   8.573  20.516  0.00  0.00    +0.000 HD
BRANCH   9  11
ATOM     11  C   UNL     1      -0.304  10.229  20.077  0.00  0.00    +0.000 A 
ATOM     12  C   UNL     1      -1.137  10.832  19.144  0.00  0.00    +0.000 A 
ATOM     13  N   UNL     1      -1.983  11.852  19.424  0.00  0.00    +0.000 NA
ATOM     14  C   UNL     1      -1.999  12.328  20.675  0.00  0.00    +0.000 A 
ATOM     15  C   UNL     1      -2.797  13.423  20.967  0.00  0.00    +0.000 A 
ATOM     16  C   UNL     1      -2.827  13.986  22.245  0.00  0.00    +0.000 A 
ATOM     17  C   UNL     1      -2.057  13.434  23.263  0.00  0.00    +0.000 A 
ATOM     18  C   UNL     1      -1.260  12.320  23.000  0.00  0.00    +0.000 A 
ATOM     19  C   UNL     1      -1.218  11.767  21.709  0.00  0.00    +0.000 A 
ATOM     20  C   UNL     1      -0.387  10.680  21.393  0.00  0.00    +0.000 A 
ENDBRANCH   9  11
ENDBRANCH   1   8
BRANCH   4  21
ATOM     21  S   UNL     1       5.419   4.669  18.548  0.00  0.00    +0.000 S 
ATOM     22  O   UNL     1       5.855   4.517  17.181  0.00  0.00    +0.000 OA
ATOM     23  O   UNL     1       6.327   4.969  19.632  0.00  0.00    +0.000 OA
BRANCH  21  24
ATOM     24  N   UNL     1       4.558   3.281  19.047  0.00  0.00    +0.000 NA
ATOM     25  H   UNL     1       4.106   3.452  19.943  0.00  0.00    +0.000 HD
BRANCH  24  26
ATOM     26  C   UNL     1       3.794   2.481  18.057  0.00  0.00    +0.000 C 
ATOM     27  C   UNL     1       3.017   3.406  17.105  0.00  0.00    +0.000 C 
ATOM     28  C   UNL     1       1.740   3.860  17.802  0.00  0.00    +0.000 C 
ATOM     29  S   UNL     1       1.306   2.564  18.940  0.00  0.00    +0.000 S 
ATOM     30  O   UNL     1       1.323   3.102  20.281  0.00  0.00    +0.000 OA
ATOM     31  O   UNL     1       0.161   1.849  18.409  0.00  0.00    +0.000 OA
ATOM     32  C   UNL     1       2.747   1.563  18.681  0.00  0.00    +0.000 C 
ENDBRANCH  24  26
ENDBRANCH  21  24
ENDBRANCH   4  21
TORSDOF 5
ENDMDL
MODEL 7
REMARK VINA RESULT:      -8.0      0.872      1.249
REMARK  Name = 
REMARK  5 active torsions:
REMARK  status: ('A' for Active; 'I' for Inactive)
REMARK    1  A    between atoms: C_2  and  C_14
REMARK    2  A    between atoms: N_3  and  C_4
REMARK    3  A    between atoms: C_17  and  S_18
REMARK    4  A    between atoms: S_18  and  N_21
REMARK    5  A    between atoms: N_21  and  C_22
REMARK                            x       y       z     vdW  Elec       q    Type
REMARK                         _______ _______ _______ _____ _____    ______ ____
ROOT
ATOM      1  C   UNL     1       1.703   7.397  20.334  0.00  0.00    +0.000 A 
ATOM      2  C   UNL     1       2.264   7.407  19.050  0.00  0.00    +0.000 A 
ATOM      3  C   UNL     1       2.616   6.207  18.433  0.00  0.00    +0.000 A 
ATOM      4  C   UNL     1       2.380   4.999  19.096  0.00  0.00    +0.000 A 
ATOM      5  C   UNL     1       1.772   4.986  20.355  0.00  0.00    +0.000 A 
ATOM      6  C   UNL     1       1.453   6.186  20.986  0.00  0.00    +0.000 A 
ENDROOT
BRANCH   1   8
ATOM      7  O   UNL     1       1.377   8.780  22.174  0.00  0.00    +0.000 OA
ATOM      8  C   UNL     1       1.325   8.687  20.956  0.00  0.00    +0.000 C 
ATOM      9  N   UNL     1       0.882   9.652  20.069  0.00  0.00    +0.000 N 
ATOM     10  H   UNL     1       0.709   9.368  19.113  0.00  0.00    +0.000 HD
BRANCH   9  11
ATOM     11  C   UNL     1       0.417  10.930  20.438  0.00  0.00    +0.000 A 
ATOM     12  C   UNL     1       1.220  11.934  20.963  0.00  0.00    +0.000 A 
ATOM     13  N   UNL     1       0.760  13.135  21.388  0.00  0.00    +0.000 NA
ATOM     14  C   UNL     1      -0.559  13.360  21.321  0.00  0.00    +0.000 A 
ATOM     15  C   UNL     1      -1.063  14.550  21.823  0.00  0.00    +0.000 A 
ATOM     16  C   UNL     1      -2.432  14.825  21.815  0.00  0.00    +0.000 A 
ATOM     17  C   UNL     1      -3.321  13.900  21.278  0.00  0.00    +0.000 A 
ATOM     18  C   UNL     1      -2.837  12.704  20.748  0.00  0.00    +0.000 A 
ATOM     19  C   UNL     1      -1.460  12.422  20.774  0.00  0.00    +0.000 A 
ATOM     20  C   UNL     1      -0.942  11.206  20.301  0.00  0.00    +0.000 A 
ENDBRANCH   9  11
ENDBRANCH   1   8
BRANCH   4  21
ATOM     21  S   UNL     1       2.721   3.467  18.259  0.00  0.00    +0.000 S 
ATOM     22  O   UNL     1       3.457   2.661  19.202  0.00  0.00    +0.000 OA
ATOM     23  O   UNL     1       1.482   3.034  17.656  0.00  0.00    +0.000 OA
BRANCH  21  24
ATOM     24  N   UNL     1       3.731   3.914  16.956  0.00  0.00    +0.000 NA
ATOM     25  H   UNL     1       3.471   4.837  16.611  0.00  0.00    +0.000 HD
BRANCH  24  26
ATOM     26  C   UNL     1       5.181   3.601  16.994  0.00  0.00    +0.000 C 
ATOM     27  C   UNL     1       5.888   4.461  18.054  0.00  0.00    +0.000 C 
ATOM     28  C   UNL     1       6.148   5.843  17.465  0.00  0.00    +0.000 C 
ATOM     29  S   UNL     1       6.311   5.613  15.709  0.00  0.00    +0.000 S 
ATOM     30  O   UNL     1       5.270   6.364  15.046  0.00  0.00    +0.000 OA
ATOM     31  O   UNL     1       7.711   5.752  15.354  0.00  0.00    +0.000 OA
ATOM     32  C   UNL     1       5.909   3.886  15.683  0.00  0.00    +0.000 C 
ENDBRANCH  24  26
ENDBRANCH  21  24
ENDBRANCH   4  21
TORSDOF 5
ENDMDL
MODEL 8
REMARK VINA RESULT:      -8.0      1.567      1.852
REMARK  Name = 
REMARK  5 active torsions:
REMARK  status: ('A' for Active; 'I' for Inactive)
REMARK    1  A    between atoms: C_2  and  C_14
REMARK    2  A    between atoms: N_3  and  C_4
REMARK    3  A    between atoms: C_17  and  S_18
REMARK    4  A    between atoms: S_18  and  N_21
REMARK    5  A    between atoms: N_21  and  C_22
REMARK                            x       y       z     vdW  Elec       q    Type
REMARK                         _______ _______ _______ _____ _____    ______ ____
ROOT
ATOM      1  C   UNL     1       1.175   8.934  19.723  0.00  0.00    +0.000 A 
ATOM      2  C   UNL     1       1.274   7.980  20.745  0.00  0.00    +0.000 A 
ATOM      3  C   UNL     1       1.966   6.789  20.523  0.00  0.00    +0.000 A 
ATOM      4  C   UNL     1       2.578   6.571  19.285  0.00  0.00    +0.000 A 
ATOM      5  C   UNL     1       2.524   7.545  18.284  0.00  0.00    +0.000 A 
ATOM      6  C   UNL     1       1.803   8.719  18.493  0.00  0.00    +0.000 A 
ENDROOT
BRANCH   1   8
ATOM      7  O   UNL     1       0.115  10.888  19.043  0.00  0.00    +0.000 OA
ATOM      8  C   UNL     1       0.447  10.194  19.994  0.00  0.00    +0.000 C 
ATOM      9  N   UNL     1       0.274  10.488  21.335  0.00  0.00    +0.000 N 
ATOM     10  H   UNL     1       0.771   9.921  22.009  0.00  0.00    +0.000 HD
BRANCH   9  11
ATOM     11  C   UNL     1      -0.337  11.659  21.829  0.00  0.00    +0.000 A 
ATOM     12  C   UNL     1       0.220  12.928  21.742  0.00  0.00    +0.000 A 
ATOM     13  N   UNL     1      -0.332  14.042  22.282  0.00  0.00    +0.000 NA
ATOM     14  C   UNL     1      -1.475  13.905  22.967  0.00  0.00    +0.000 A 
ATOM     15  C   UNL     1      -2.016  15.015  23.597  0.00  0.00    +0.000 A 
ATOM     16  C   UNL     1      -3.185  14.927  24.356  0.00  0.00    +0.000 A 
ATOM     17  C   UNL     1      -3.842  13.707  24.477  0.00  0.00    +0.000 A 
ATOM     18  C   UNL     1      -3.328  12.580  23.837  0.00  0.00    +0.000 A 
ATOM     19  C   UNL     1      -2.142  12.668  23.089  0.00  0.00    +0.000 A 
ATOM     20  C   UNL     1      -1.565  11.544  22.476  0.00  0.00    +0.000 A 
ENDBRANCH   9  11
ENDBRANCH   1   8
BRANCH   4  21
ATOM     21  S   UNL     1       3.559   5.107  19.047  0.00  0.00    +0.000 S 
ATOM     22  O   UNL     1       3.180   4.206  20.109  0.00  0.00    +0.000 OA
ATOM     23  O   UNL     1       3.458   4.757  17.649  0.00  0.00    +0.000 OA
BRANCH  21  24
ATOM     24  N   UNL     1       5.167   5.634  19.271  0.00  0.00    +0.000 NA
ATOM     25  H   UNL     1       5.288   6.002  20.213  0.00  0.00    +0.000 HD
BRANCH  24  26
ATOM     26  C   UNL     1       6.295   4.849  18.711  0.00  0.00    +0.000 C 
ATOM     27  C   UNL     1       7.606   5.646  18.816  0.00  0.00    +0.000 C 
ATOM     28  C   UNL     1       7.662   6.644  17.666  0.00  0.00    +0.000 C 
ATOM     29  S   UNL     1       6.720   5.928  16.338  0.00  0.00    +0.000 S 
ATOM     30  O   UNL     1       5.609   6.802  16.037  0.00  0.00    +0.000 OA
ATOM     31  O   UNL     1       7.640   5.468  15.316  0.00  0.00    +0.000 OA
ATOM     32  C   UNL     1       6.138   4.511  17.231  0.00  0.00    +0.000 C 
ENDBRANCH  24  26
ENDBRANCH  21  24
ENDBRANCH   4  21
TORSDOF 5
ENDMDL
MODEL 9
REMARK VINA RESULT:      -8.0      2.227      2.950
REMARK  Name = 
REMARK  5 active torsions:
REMARK  status: ('A' for Active; 'I' for Inactive)
REMARK    1  A    between atoms: C_2  and  C_14
REMARK    2  A    between atoms: N_3  and  C_4
REMARK    3  A    between atoms: C_17  and  S_18
REMARK    4  A    between atoms: S_18  and  N_21
REMARK    5  A    between atoms: N_21  and  C_22
REMARK                            x       y       z     vdW  Elec       q    Type
REMARK                         _______ _______ _______ _____ _____    ______ ____
ROOT
ATOM      1  C   UNL     1       1.618   8.307  19.683  0.00  0.00    +0.000 A 
ATOM      2  C   UNL     1       1.477   7.343  20.691  0.00  0.00    +0.000 A 
ATOM      3  C   UNL     1       1.805   6.012  20.434  0.00  0.00    +0.000 A 
ATOM      4  C   UNL     1       2.298   5.657  19.174  0.00  0.00    +0.000 A 
ATOM      5  C   UNL     1       2.488   6.628  18.186  0.00  0.00    +0.000 A 
ATOM      6  C   UNL     1       2.127   7.951  18.431  0.00  0.00    +0.000 A 
ENDROOT
BRANCH   1   8
ATOM      7  O   UNL     1       1.015  10.006  21.151  0.00  0.00    +0.000 OA
ATOM      8  C   UNL     1       1.277   9.714  19.992  0.00  0.00    +0.000 C 
ATOM      9  N   UNL     1       1.228  10.555  18.895  0.00  0.00    +0.000 N 
ATOM     10  H   UNL     1       1.277  10.133  17.977  0.00  0.00    +0.000 HD
BRANCH   9  11
ATOM     11  C   UNL     1       0.868  11.917  18.941  0.00  0.00    +0.000 A 
ATOM     12  C   UNL     1      -0.431  12.379  19.107  0.00  0.00    +0.000 A 
ATOM     13  N   UNL     1      -0.785  13.686  19.076  0.00  0.00    +0.000 NA
ATOM     14  C   UNL     1       0.175  14.590  18.845  0.00  0.00    +0.000 A 
ATOM     15  C   UNL     1      -0.175  15.927  18.729  0.00  0.00    +0.000 A 
ATOM     16  C   UNL     1       0.777  16.910  18.452  0.00  0.00    +0.000 A 
ATOM     17  C   UNL     1       2.114  16.558  18.303  0.00  0.00    +0.000 A 
ATOM     18  C   UNL     1       2.495  15.223  18.434  0.00  0.00    +0.000 A 
ATOM     19  C   UNL     1       1.532  14.233  18.695  0.00  0.00    +0.000 A 
ATOM     20  C   UNL     1       1.870  12.873  18.780  0.00  0.00    +0.000 A 
ENDBRANCH   9  11
ENDBRANCH   1   8
BRANCH   4  21
ATOM     21  S   UNL     1       2.826   3.983  18.888  0.00  0.00    +0.000 S 
ATOM     22  O   UNL     1       3.637   3.629  20.027  0.00  0.00    +0.000 OA
ATOM     23  O   UNL     1       1.654   3.234  18.496  0.00  0.00    +0.000 OA
BRANCH  21  24
ATOM     24  N   UNL     1       3.795   4.081  17.485  0.00  0.00    +0.000 NA
ATOM     25  H   UNL     1       3.482   4.850  16.895  0.00  0.00    +0.000 HD
BRANCH  24  26
ATOM     26  C   UNL     1       5.261   3.862  17.573  0.00  0.00    +0.000 C 
ATOM     27  C   UNL     1       5.907   4.920  18.483  0.00  0.00    +0.000 C 
ATOM     28  C   UNL     1       6.094   6.202  17.681  0.00  0.00    +0.000 C 
ATOM     29  S   UNL     1       6.287   5.704  15.984  0.00  0.00    +0.000 S 
ATOM     30  O   UNL     1       5.211   6.279  15.209  0.00  0.00    +0.000 OA
ATOM     31  O   UNL     1       7.679   5.866  15.612  0.00  0.00    +0.000 OA
ATOM     32  C   UNL     1       5.983   3.975  16.234  0.00  0.00    +0.000 C 
ENDBRANCH  24  26
ENDBRANCH  21  24
ENDBRANCH   4  21
TORSDOF 5
ENDMDL
