MODEL 1
REMARK VINA RESULT:      -8.5      0.000      0.000
REMARK  Name = 
REMARK  2 active torsions:
REMARK  status: ('A' for Active; 'I' for Inactive)
REMARK    1  A    between atoms: C_1  and  C_2
REMARK    2  A    between atoms: C_4  and  C_5
REMARK                            x       y       z     vdW  Elec       q    Type
REMARK                         _______ _______ _______ _____ _____    ______ ____
ROOT
ATOM      1  C   UNL     1       3.771   4.286  17.118  0.00  0.00    +0.000 C 
ATOM      2  O   UNL     1       3.010   3.933  16.215  0.00  0.00    +0.000 OA
ATOM      3  N   UNL     1       5.153   4.533  16.921  0.00  0.00    +0.000 N 
ATOM      4  C   UNL     1       6.075   5.002  17.969  0.00  0.00    +0.000 C 
ATOM      5  C   UNL     1       7.003   6.121  17.572  0.00  0.00    +0.000 C 
ATOM      6  O   UNL     1       7.533   6.870  18.399  0.00  0.00    +0.000 OA
ATOM      7  N   UNL     1       7.386   6.142  16.270  0.00  0.00    +0.000 N 
ATOM      8  C   UNL     1       6.888   5.250  15.331  0.00  0.00    +0.000 A 
ATOM      9  C   UNL     1       7.504   5.227  14.072  0.00  0.00    +0.000 A 
ATOM     10  C   UNL     1       7.059   4.342  13.103  0.00  0.00    +0.000 A 
ATOM     11  C   UNL     1       5.988   3.493  13.382  0.00  0.00    +0.000 A 
ATOM     12  C   UNL     1       5.340   3.544  14.626  0.00  0.00    +0.000 A 
ATOM     13  C   UNL     1       5.780   4.420  15.622  0.00  0.00    +0.000 A 
ATOM     14  H   UNL     1       8.103   6.816  16.025  0.00  0.00    +0.000 HD
ENDROOT
BRANCH   1  18
ATOM     15  C   UNL     1       2.604   2.494  21.625  0.00  0.00    +0.000 C 
ATOM     16  C   UNL     1       2.591   3.613  20.627  0.00  0.00    +0.000 A 
ATOM     17  C   UNL     1       3.005   3.404  19.326  0.00  0.00    +0.000 A 
ATOM     18  C   UNL     1       3.144   4.505  18.471  0.00  0.00    +0.000 A 
ATOM     19  C   UNL     1       2.680   5.785  18.899  0.00  0.00    +0.000 A 
ATOM     20  C   UNL     1       2.640   6.981  18.122  0.00  0.00    +0.000 A 
ATOM     21  C   UNL     1       2.149   8.181  18.639  0.00  0.00    +0.000 A 
ATOM     22  C   UNL     1       1.698   8.230  19.950  0.00  0.00    +0.000 A 
ATOM     23  C   UNL     1       1.735   7.072  20.725  0.00  0.00    +0.000 A 
ATOM     24  C   UNL     1       2.206   5.866  20.229  0.00  0.00    +0.000 A 
ATOM     25  N   UNL     1       2.197   4.817  21.069  0.00  0.00    +0.000 NA
ENDBRANCH   1  18
TORSDOF 1
ENDMDL
MODEL 2
REMARK VINA RESULT:      -7.8      1.723      6.603
REMARK  Name = 
REMARK  2 active torsions:
REMARK  status: ('A' for Active; 'I' for Inactive)
REMARK    1  A    between atoms: C_1  and  C_2
REMARK    2  A    between atoms: C_4  and  C_5
REMARK                            x       y       z     vdW  Elec       q    Type
REMARK                         _______ _______ _______ _____ _____    ______ ____
ROOT
ATOM      1  C   UNL     1       5.112   4.289  18.533  0.00  0.00    +0.000 C 
ATOM      2  O   UNL     1       5.642   3.268  18.975  0.00  0.00    +0.000 OA
ATOM      3  N   UNL     1       3.795   4.691  18.869  0.00  0.00    +0.000 N 
ATOM      4  C   UNL     1       3.154   5.930  18.395  0.00  0.00    +0.000 C 
ATOM      5  C   UNL     1       2.424   6.731  19.441  0.00  0.00    +0.000 C 
ATOM      6  O   UNL     1       2.186   7.936  19.309  0.00  0.00    +0.000 OA
ATOM      7  N   UNL     1       1.863   6.020  20.451  0.00  0.00    +0.000 N 
ATOM      8  C   UNL     1       2.024   4.647  20.576  0.00  0.00    +0.000 A 
ATOM      9  C   UNL     1       1.235   3.988  21.529  0.00  0.00    +0.000 A 
ATOM     10  C   UNL     1       1.341   2.615  21.683  0.00  0.00    +0.000 A 
ATOM     11  C   UNL     1       2.247   1.901  20.898  0.00  0.00    +0.000 A 
ATOM     12  C   UNL     1       3.071   2.562  19.974  0.00  0.00    +0.000 A 
ATOM     13  C   UNL     1       2.971   3.944  19.794  0.00  0.00    +0.000 A 
ATOM     14  H   UNL     1       1.269   6.538  21.089  0.00  0.00    +0.000 HD
ENDROOT
BRANCH   1  18
ATOM     15  C   UNL     1       8.217   8.159  18.011  0.00  0.00    +0.000 C 
ATOM     16  C   UNL     1       7.450   7.016  17.415  0.00  0.00    +0.000 A 
ATOM     17  C   UNL     1       6.533   6.310  18.169  0.00  0.00    +0.000 A 
ATOM     18  C   UNL     1       5.965   5.147  17.635  0.00  0.00    +0.000 A 
ATOM     19  C   UNL     1       6.199   4.820  16.265  0.00  0.00    +0.000 A 
ATOM     20  C   UNL     1       5.613   3.745  15.533  0.00  0.00    +0.000 A 
ATOM     21  C   UNL     1       5.902   3.525  14.185  0.00  0.00    +0.000 A 
ATOM     22  C   UNL     1       6.794   4.360  13.530  0.00  0.00    +0.000 A 
ATOM     23  C   UNL     1       7.381   5.413  14.232  0.00  0.00    +0.000 A 
ATOM     24  C   UNL     1       7.099   5.658  15.567  0.00  0.00    +0.000 A 
ATOM     25  N   UNL     1       7.725   6.700  16.139  0.00  0.00    +0.000 NA
ENDBRANCH   1  18
TORSDOF 1
ENDMDL
MODEL 3
REMARK VINA RESULT:      -7.7      3.103      7.342
REMARK  Name = 
REMARK  2 active torsions:
REMARK  status: ('A' for Active; 'I' for Inactive)
REMARK    1  A    between atoms: C_1  and  C_2
REMARK    2  A    between atoms: C_4  and  C_5
REMARK                            x       y       z     vdW  Elec       q    Type
REMARK                         _______ _______ _______ _____ _____    ______ ____
ROOT
ATOM      1  C   UNL     1       1.922   7.074  19.956  0.00  0.00    +0.000 C 
ATOM      2  O   UNL     1       1.871   6.569  21.079  0.00  0.00    +0.000 OA
ATOM      3  N   UNL     1       1.355   8.335  19.641  0.00  0.00    +0.000 N 
ATOM      4  C   UNL     1       1.443   8.983  18.322  0.00  0.00    +0.000 C 
ATOM      5  C   UNL     1       1.804  10.445  18.333  0.00  0.00    +0.000 C 
ATOM      6  O   UNL     1       2.292  11.018  17.353  0.00  0.00    +0.000 OA
ATOM      7  N   UNL     1       1.384  11.153  19.412  0.00  0.00    +0.000 N 
ATOM      8  C   UNL     1       0.741  10.560  20.489  0.00  0.00    +0.000 A 
ATOM      9  C   UNL     1       0.168  11.410  21.446  0.00  0.00    +0.000 A 
ATOM     10  C   UNL     1      -0.503  10.871  22.533  0.00  0.00    +0.000 A 
ATOM     11  C   UNL     1      -0.586   9.486  22.675  0.00  0.00    +0.000 A 
ATOM     12  C   UNL     1       0.024   8.632  21.743  0.00  0.00    +0.000 A 
ATOM     13  C   UNL     1       0.695   9.154  20.634  0.00  0.00    +0.000 A 
ATOM     14  H   UNL     1       1.516  12.158  19.368  0.00  0.00    +0.000 HD
ENDROOT
BRANCH   1  18
ATOM     15  C   UNL     1       5.682   6.856  16.684  0.00  0.00    +0.000 C 
ATOM     16  C   UNL     1       4.491   6.224  17.342  0.00  0.00    +0.000 A 
ATOM     17  C   UNL     1       3.675   6.958  18.181  0.00  0.00    +0.000 A 
ATOM     18  C   UNL     1       2.679   6.297  18.910  0.00  0.00    +0.000 A 
ATOM     19  C   UNL     1       2.406   4.923  18.633  0.00  0.00    +0.000 A 
ATOM     20  C   UNL     1       1.360   4.132  19.195  0.00  0.00    +0.000 A 
ATOM     21  C   UNL     1       1.173   2.795  18.840  0.00  0.00    +0.000 A 
ATOM     22  C   UNL     1       2.031   2.202  17.926  0.00  0.00    +0.000 A 
ATOM     23  C   UNL     1       3.062   2.959  17.371  0.00  0.00    +0.000 A 
ATOM     24  C   UNL     1       3.258   4.291  17.699  0.00  0.00    +0.000 A 
ATOM     25  N   UNL     1       4.286   4.919  17.102  0.00  0.00    +0.000 NA
ENDBRANCH   1  18
TORSDOF 1
ENDMDL
MODEL 4
REMARK VINA RESULT:      -7.5      0.658      2.725
REMARK  Name = 
REMARK  2 active torsions:
REMARK  status: ('A' for Active; 'I' for Inactive)
REMARK    1  A    between atoms: C_1  and  C_2
REMARK    2  A    between atoms: C_4  and  C_5
REMARK                            x       y       z     vdW  Elec       q    Type
REMARK                         _______ _______ _______ _____ _____    ______ ____
ROOT
ATOM      1  C   UNL     1       3.873   4.754  17.180  0.00  0.00    +0.000 C 
ATOM      2  O   UNL     1       3.084   4.366  16.317  0.00  0.00    +0.000 OA
ATOM      3  N   UNL     1       5.263   4.910  16.953  0.00  0.00    +0.000 N 
ATOM      4  C   UNL     1       6.220   5.418  17.951  0.00  0.00    +0.000 C 
ATOM      5  C   UNL     1       7.200   6.449  17.454  0.00  0.00    +0.000 C 
ATOM      6  O   UNL     1       7.777   7.237  18.210  0.00  0.00    +0.000 OA
ATOM      7  N   UNL     1       7.568   6.340  16.153  0.00  0.00    +0.000 N 
ATOM      8  C   UNL     1       7.014   5.398  15.296  0.00  0.00    +0.000 A 
ATOM      9  C   UNL     1       7.614   5.237  14.040  0.00  0.00    +0.000 A 
ATOM     10  C   UNL     1       7.113   4.297  13.152  0.00  0.00    +0.000 A 
ATOM     11  C   UNL     1       6.003   3.532  13.511  0.00  0.00    +0.000 A 
ATOM     12  C   UNL     1       5.373   3.722  14.751  0.00  0.00    +0.000 A 
ATOM     13  C   UNL     1       5.869   4.655  15.665  0.00  0.00    +0.000 A 
ATOM     14  H   UNL     1       8.317   6.951  15.846  0.00  0.00    +0.000 HD
ENDROOT
BRANCH   1  18
ATOM     15  C   UNL     1       1.703   8.169  20.100  0.00  0.00    +0.000 C 
ATOM     16  C   UNL     1       2.238   6.783  19.896  0.00  0.00    +0.000 A 
ATOM     17  C   UNL     1       2.940   6.458  18.751  0.00  0.00    +0.000 A 
ATOM     18  C   UNL     1       3.273   5.119  18.515  0.00  0.00    +0.000 A 
ATOM     19  C   UNL     1       3.048   4.151  19.540  0.00  0.00    +0.000 A 
ATOM     20  C   UNL     1       3.428   2.776  19.513  0.00  0.00    +0.000 A 
ATOM     21  C   UNL     1       3.171   1.917  20.583  0.00  0.00    +0.000 A 
ATOM     22  C   UNL     1       2.515   2.399  21.706  0.00  0.00    +0.000 A 
ATOM     23  C   UNL     1       2.132   3.739  21.747  0.00  0.00    +0.000 A 
ATOM     24  C   UNL     1       2.388   4.612  20.702  0.00  0.00    +0.000 A 
ATOM     25  N   UNL     1       1.970   5.881  20.853  0.00  0.00    +0.000 NA
ENDBRANCH   1  18
TORSDOF 1
ENDMDL
MODEL 5
REMARK VINA RESULT:      -7.3      1.722      6.499
REMARK  Name = 
REMARK  2 active torsions:
REMARK  status: ('A' for Active; 'I' for Inactive)
REMARK    1  A    between atoms: C_1  and  C_2
REMARK    2  A    between atoms: C_4  and  C_5
REMARK                            x       y       z     vdW  Elec       q    Type
REMARK                         _______ _______ _______ _____ _____    ______ ____
ROOT
ATOM      1  C   UNL     1       4.482   4.015  17.286  0.00  0.00    +0.000 C 
ATOM      2  O   UNL     1       4.691   2.801  17.318  0.00  0.00    +0.000 OA
ATOM      3  N   UNL     1       3.331   4.624  17.845  0.00  0.00    +0.000 N 
ATOM      4  C   UNL     1       3.080   6.075  17.864  0.00  0.00    +0.000 C 
ATOM      5  C   UNL     1       2.593   6.638  19.174  0.00  0.00    +0.000 C 
ATOM      6  O   UNL     1       2.712   7.832  19.470  0.00  0.00    +0.000 OA
ATOM      7  N   UNL     1       1.836   5.807  19.934  0.00  0.00    +0.000 N 
ATOM      8  C   UNL     1       1.594   4.487  19.581  0.00  0.00    +0.000 A 
ATOM      9  C   UNL     1       0.634   3.785  20.325  0.00  0.00    +0.000 A 
ATOM     10  C   UNL     1       0.340   2.470  20.004  0.00  0.00    +0.000 A 
ATOM     11  C   UNL     1       1.016   1.847  18.955  0.00  0.00    +0.000 A 
ATOM     12  C   UNL     1       2.009   2.532  18.237  0.00  0.00    +0.000 A 
ATOM     13  C   UNL     1       2.313   3.862  18.535  0.00  0.00    +0.000 A 
ATOM     14  H   UNL     1       1.404   6.218  20.754  0.00  0.00    +0.000 HD
ENDROOT
BRANCH   1  18
ATOM     15  C   UNL     1       7.954   7.567  17.762  0.00  0.00    +0.000 C 
ATOM     16  C   UNL     1       7.216   6.574  16.914  0.00  0.00    +0.000 A 
ATOM     17  C   UNL     1       6.117   5.900  17.409  0.00  0.00    +0.000 A 
ATOM     18  C   UNL     1       5.560   4.860  16.656  0.00  0.00    +0.000 A 
ATOM     19  C   UNL     1       6.018   4.641  15.321  0.00  0.00    +0.000 A 
ATOM     20  C   UNL     1       5.489   3.707  14.380  0.00  0.00    +0.000 A 
ATOM     21  C   UNL     1       6.006   3.586  13.090  0.00  0.00    +0.000 A 
ATOM     22  C   UNL     1       7.074   4.381  12.702  0.00  0.00    +0.000 A 
ATOM     23  C   UNL     1       7.607   5.294  13.610  0.00  0.00    +0.000 A 
ATOM     24  C   UNL     1       7.102   5.441  14.892  0.00  0.00    +0.000 A 
ATOM     25  N   UNL     1       7.698   6.352  15.681  0.00  0.00    +0.000 NA
ENDBRANCH   1  18
TORSDOF 1
ENDMDL
MODEL 6
REMARK VINA RESULT:      -7.0      3.392      7.163
REMARK  Name = 
REMARK  2 active torsions:
REMARK  status: ('A' for Active; 'I' for Inactive)
REMARK    1  A    between atoms: C_1  and  C_2
REMARK    2  A    between atoms: C_4  and  C_5
REMARK                            x       y       z     vdW  Elec       q    Type
REMARK                         _______ _______ _______ _____ _____    ______ ____
ROOT
ATOM      1  C   UNL     1       2.140   8.385  18.474  0.00  0.00    +0.000 C 
ATOM      2  O   UNL     1       2.356   8.873  17.363  0.00  0.00    +0.000 OA
ATOM      3  N   UNL     1       1.545   9.106  19.539  0.00  0.00    +0.000 N 
ATOM      4  C   UNL     1       1.231   8.535  20.860  0.00  0.00    +0.000 C 
ATOM      5  C   UNL     1      -0.132   8.867  21.410  0.00  0.00    +0.000 C 
ATOM      6  O   UNL     1      -0.687   8.179  22.273  0.00  0.00    +0.000 OA
ATOM      7  N   UNL     1      -0.640  10.073  21.052  0.00  0.00    +0.000 N 
ATOM      8  C   UNL     1       0.005  10.920  20.161  0.00  0.00    +0.000 A 
ATOM      9  C   UNL     1      -0.500  12.221  20.026  0.00  0.00    +0.000 A 
ATOM     10  C   UNL     1       0.117  13.114  19.164  0.00  0.00    +0.000 A 
ATOM     11  C   UNL     1       1.226  12.705  18.424  0.00  0.00    +0.000 A 
ATOM     12  C   UNL     1       1.708  11.390  18.523  0.00  0.00    +0.000 A 
ATOM     13  C   UNL     1       1.109  10.478  19.395  0.00  0.00    +0.000 A 
ATOM     14  H   UNL     1      -1.498  10.354  21.514  0.00  0.00    +0.000 HD
ENDROOT
BRANCH   1  18
ATOM     15  C   UNL     1       1.138   3.953  20.534  0.00  0.00    +0.000 C 
ATOM     16  C   UNL     1       1.993   4.815  19.654  0.00  0.00    +0.000 A 
ATOM     17  C   UNL     1       1.801   6.182  19.601  0.00  0.00    +0.000 A 
ATOM     18  C   UNL     1       2.497   6.930  18.644  0.00  0.00    +0.000 A 
ATOM     19  C   UNL     1       3.522   6.301  17.875  0.00  0.00    +0.000 A 
ATOM     20  C   UNL     1       4.400   6.934  16.945  0.00  0.00    +0.000 A 
ATOM     21  C   UNL     1       5.382   6.222  16.255  0.00  0.00    +0.000 A 
ATOM     22  C   UNL     1       5.510   4.856  16.460  0.00  0.00    +0.000 A 
ATOM     23  C   UNL     1       4.656   4.220  17.361  0.00  0.00    +0.000 A 
ATOM     24  C   UNL     1       3.683   4.910  18.066  0.00  0.00    +0.000 A 
ATOM     25  N   UNL     1       2.917   4.191  18.906  0.00  0.00    +0.000 NA
ENDBRANCH   1  18
TORSDOF 1
ENDMDL
MODEL 7
REMARK VINA RESULT:      -6.9      6.745     10.113
REMARK  Name = 
REMARK  2 active torsions:
REMARK  status: ('A' for Active; 'I' for Inactive)
REMARK    1  A    between atoms: C_1  and  C_2
REMARK    2  A    between atoms: C_4  and  C_5
REMARK                            x       y       z     vdW  Elec       q    Type
REMARK                         _______ _______ _______ _____ _____    ______ ____
ROOT
ATOM      1  C   UNL     1       0.026  12.933  19.246  0.00  0.00    +0.000 C 
ATOM      2  O   UNL     1      -1.065  13.144  18.713  0.00  0.00    +0.000 OA
ATOM      3  N   UNL     1       0.919  13.965  19.630  0.00  0.00    +0.000 N 
ATOM      4  C   UNL     1       2.205  13.744  20.312  0.00  0.00    +0.000 C 
ATOM      5  C   UNL     1       2.489  14.648  21.483  0.00  0.00    +0.000 C 
ATOM      6  O   UNL     1       3.293  14.352  22.372  0.00  0.00    +0.000 OA
ATOM      7  N   UNL     1       1.962  15.897  21.412  0.00  0.00    +0.000 N 
ATOM      8  C   UNL     1       1.134  16.300  20.373  0.00  0.00    +0.000 A 
ATOM      9  C   UNL     1       0.819  17.663  20.290  0.00  0.00    +0.000 A 
ATOM     10  C   UNL     1       0.012  18.123  19.262  0.00  0.00    +0.000 A 
ATOM     11  C   UNL     1      -0.497  17.220  18.328  0.00  0.00    +0.000 A 
ATOM     12  C   UNL     1      -0.220  15.848  18.433  0.00  0.00    +0.000 A 
ATOM     13  C   UNL     1       0.601  15.365  19.455  0.00  0.00    +0.000 A 
ATOM     14  H   UNL     1       2.250  16.547  22.135  0.00  0.00    +0.000 HD
ENDROOT
BRANCH   1  18
ATOM     15  C   UNL     1       2.227   8.693  17.807  0.00  0.00    +0.000 C 
ATOM     16  C   UNL     1       1.423   9.466  18.809  0.00  0.00    +0.000 A 
ATOM     17  C   UNL     1       0.956  10.733  18.516  0.00  0.00    +0.000 A 
ATOM     18  C   UNL     1       0.361  11.491  19.531  0.00  0.00    +0.000 A 
ATOM     19  C   UNL     1       0.080  10.877  20.789  0.00  0.00    +0.000 A 
ATOM     20  C   UNL     1      -0.619  11.462  21.886  0.00  0.00    +0.000 A 
ATOM     21  C   UNL     1      -0.853  10.762  23.071  0.00  0.00    +0.000 A 
ATOM     22  C   UNL     1      -0.385   9.463  23.203  0.00  0.00    +0.000 A 
ATOM     23  C   UNL     1       0.305   8.877  22.143  0.00  0.00    +0.000 A 
ATOM     24  C   UNL     1       0.538   9.549  20.953  0.00  0.00    +0.000 A 
ATOM     25  N   UNL     1       1.216   8.884  20.001  0.00  0.00    +0.000 NA
ENDBRANCH   1  18
TORSDOF 1
ENDMDL
MODEL 8
REMARK VINA RESULT:      -6.8      7.318     11.101
REMARK  Name = 
REMARK  2 active torsions:
REMARK  status: ('A' for Active; 'I' for Inactive)
REMARK    1  A    between atoms: C_1  and  C_2
REMARK    2  A    between atoms: C_4  and  C_5
REMARK                            x       y       z     vdW  Elec       q    Type
REMARK                         _______ _______ _______ _____ _____    ______ ____
ROOT
ATOM      1  C   UNL     1      -2.169  12.085  19.389  0.00  0.00    +0.000 C 
ATOM      2  O   UNL     1      -2.441  12.782  20.368  0.00  0.00    +0.000 OA
ATOM      3  N   UNL     1      -3.151  11.532  18.528  0.00  0.00    +0.000 N 
ATOM      4  C   UNL     1      -2.853  10.737  17.325  0.00  0.00    +0.000 C 
ATOM      5  C   UNL     1      -3.640  11.096  16.091  0.00  0.00    +0.000 C 
ATOM      6  O   UNL     1      -3.253  10.819  14.952  0.00  0.00    +0.000 OA
ATOM      7  N   UNL     1      -4.896  11.565  16.303  0.00  0.00    +0.000 N 
ATOM      8  C   UNL     1      -5.403  11.792  17.575  0.00  0.00    +0.000 A 
ATOM      9  C   UNL     1      -6.772  12.075  17.683  0.00  0.00    +0.000 A 
ATOM     10  C   UNL     1      -7.335  12.292  18.931  0.00  0.00    +0.000 A 
ATOM     11  C   UNL     1      -6.530  12.246  20.068  0.00  0.00    +0.000 A 
ATOM     12  C   UNL     1      -5.151  12.007  19.961  0.00  0.00    +0.000 A 
ATOM     13  C   UNL     1      -4.565  11.773  18.714  0.00  0.00    +0.000 A 
ATOM     14  H   UNL     1      -5.472  11.691  15.478  0.00  0.00    +0.000 HD
ENDROOT
BRANCH   1  18
ATOM     15  C   UNL     1       1.589   8.970  18.355  0.00  0.00    +0.000 C 
ATOM     16  C   UNL     1       1.083  10.358  18.613  0.00  0.00    +0.000 A 
ATOM     17  C   UNL     1      -0.214  10.570  19.039  0.00  0.00    +0.000 A 
ATOM     18  C   UNL     1      -0.704  11.881  19.103  0.00  0.00    +0.000 A 
ATOM     19  C   UNL     1       0.196  12.973  18.911  0.00  0.00    +0.000 A 
ATOM     20  C   UNL     1      -0.105  14.360  19.052  0.00  0.00    +0.000 A 
ATOM     21  C   UNL     1       0.859  15.349  18.854  0.00  0.00    +0.000 A 
ATOM     22  C   UNL     1       2.149  14.987  18.495  0.00  0.00    +0.000 A 
ATOM     23  C   UNL     1       2.459  13.636  18.347  0.00  0.00    +0.000 A 
ATOM     24  C   UNL     1       1.521  12.636  18.551  0.00  0.00    +0.000 A 
ATOM     25  N   UNL     1       1.934  11.369  18.377  0.00  0.00    +0.000 NA
ENDBRANCH   1  18
TORSDOF 1
ENDMDL
MODEL 9
REMARK VINA RESULT:      -6.7      2.963      5.278
REMARK  Name = 
REMARK  2 active torsions:
REMARK  status: ('A' for Active; 'I' for Inactive)
REMARK    1  A    between atoms: C_1  and  C_2
REMARK    2  A    between atoms: C_4  and  C_5
REMARK                            x       y       z     vdW  Elec       q    Type
REMARK                         _______ _______ _______ _____ _____    ______ ____
ROOT
ATOM      1  C   UNL     1       2.450   8.413  18.124  0.00  0.00    +0.000 C 
ATOM      2  O   UNL     1       3.263   9.135  17.545  0.00  0.00    +0.000 OA
ATOM      3  N   UNL     1       2.663   7.032  18.360  0.00  0.00    +0.000 N 
ATOM      4  C   UNL     1       1.731   6.157  19.092  0.00  0.00    +0.000 C 
ATOM      5  C   UNL     1       2.356   5.244  20.115  0.00  0.00    +0.000 C 
ATOM      6  O   UNL     1       1.715   4.760  21.053  0.00  0.00    +0.000 OA
ATOM      7  N   UNL     1       3.615   4.819  19.842  0.00  0.00    +0.000 N 
ATOM      8  C   UNL     1       4.331   5.264  18.739  0.00  0.00    +0.000 A 
ATOM      9  C   UNL     1       5.533   4.606  18.441  0.00  0.00    +0.000 A 
ATOM     10  C   UNL     1       6.277   4.997  17.339  0.00  0.00    +0.000 A 
ATOM     11  C   UNL     1       5.834   6.056  16.547  0.00  0.00    +0.000 A 
ATOM     12  C   UNL     1       4.654   6.745  16.867  0.00  0.00    +0.000 A 
ATOM     13  C   UNL     1       3.882   6.360  17.965  0.00  0.00    +0.000 A 
ATOM     14  H   UNL     1       3.994   4.111  20.461  0.00  0.00    +0.000 HD
ENDROOT
BRANCH   1  18
ATOM     15  C   UNL     1      -2.003  10.450  17.164  0.00  0.00    +0.000 C 
ATOM     16  C   UNL     1      -0.930  10.067  18.140  0.00  0.00    +0.000 A 
ATOM     17  C   UNL     1       0.292   9.598  17.699  0.00  0.00    +0.000 A 
ATOM     18  C   UNL     1       1.203   9.089  18.633  0.00  0.00    +0.000 A 
ATOM     19  C   UNL     1       0.930   9.237  20.027  0.00  0.00    +0.000 A 
ATOM     20  C   UNL     1       1.793   8.883  21.107  0.00  0.00    +0.000 A 
ATOM     21  C   UNL     1       1.430   9.086  22.439  0.00  0.00    +0.000 A 
ATOM     22  C   UNL     1       0.192   9.635  22.736  0.00  0.00    +0.000 A 
ATOM     23  C   UNL     1      -0.666   9.981  21.694  0.00  0.00    +0.000 A 
ATOM     24  C   UNL     1      -0.322   9.801  20.363  0.00  0.00    +0.000 A 
ATOM     25  N   UNL     1      -1.231  10.170  19.444  0.00  0.00    +0.000 NA
ENDBRANCH   1  18
TORSDOF 1
ENDMDL
