MODEL 1
REMARK VINA RESULT:      -7.9      0.000      0.000
REMARK  Name = 
REMARK  6 active torsions:
REMARK  status: ('A' for Active; 'I' for Inactive)
REMARK    1  A    between atoms: C_1  and  N_2
REMARK    2  A    between atoms: C_6  and  C_7
REMARK    3  A    between atoms: C_7  and  O_8
REMARK    4  A    between atoms: C_7  and  C_9
REMARK    5  A    between atoms: C_13  and  N_14
REMARK    6  A    between atoms: C_22  and  C_23
REMARK                            x       y       z     vdW  Elec       q    Type
REMARK                         _______ _______ _______ _____ _____    ______ ____
ROOT
ATOM      1  C   UNL     1      -4.993  11.476  17.602  0.00  0.00    +0.000 A 
ATOM      2  C   UNL     1      -4.491  11.076  16.354  0.00  0.00    +0.000 A 
ATOM      3  C   UNL     1      -3.162  10.693  16.214  0.00  0.00    +0.000 A 
ATOM      4  C   UNL     1      -2.291  10.828  17.285  0.00  0.00    +0.000 A 
ATOM      5  C   UNL     1      -2.705  11.549  18.415  0.00  0.00    +0.000 A 
ATOM      6  C   UNL     1      -4.078  11.731  18.636  0.00  0.00    +0.000 A 
ENDROOT
BRANCH   5   7
ATOM      7  N   UNL     1      -1.773  12.495  19.021  0.00  0.00    +0.000 N 
ATOM      8  C   UNL     1      -0.377  12.152  18.645  0.00  0.00    +0.000 C 
ATOM      9  C   UNL     1       0.029  11.234  19.761  0.00  0.00    +0.000 A 
ATOM     10  C   UNL     1      -0.720  11.593  20.890  0.00  0.00    +0.000 A 
ATOM     11  C   UNL     1      -0.716  10.866  22.065  0.00  0.00    +0.000 A 
ATOM     12  C   UNL     1       0.072   9.725  22.083  0.00  0.00    +0.000 A 
ATOM     13  F   UNL     1       0.055   8.933  23.163  0.00  0.00    +0.000 F 
ATOM     14  C   UNL     1       0.817   9.326  20.963  0.00  0.00    +0.000 A 
ATOM     15  C   UNL     1       0.806  10.077  19.768  0.00  0.00    +0.000 A 
ATOM     16  C   UNL     1      -1.782  12.532  20.443  0.00  0.00    +0.000 C 
ATOM     17  O   UNL     1      -2.611  13.021  21.187  0.00  0.00    +0.000 OA
BRANCH  15  18
ATOM     18  C   UNL     1       1.516   9.536  18.555  0.00  0.00    +0.000 C 
ATOM     19  F   UNL     1       2.372  10.412  17.969  0.00  0.00    +0.000 F 
ATOM     20  F   UNL     1       2.264   8.436  18.856  0.00  0.00    +0.000 F 
ATOM     21  F   UNL     1       0.650   9.140  17.582  0.00  0.00    +0.000 F 
ENDBRANCH  15  18
ENDBRANCH   5   7
BRANCH   1  22
ATOM     22  C   UNL     1      -6.471  11.753  17.737  0.00  0.00    +0.000 C 
BRANCH  22  28
ATOM     23  C   UNL     1      -7.086   9.279  19.573  0.00  0.00    +0.000 C 
ATOM     24  N   UNL     1      -7.255  10.666  19.907  0.00  0.00    +0.000 N 
ATOM     25  C   UNL     1      -7.748  11.142  21.089  0.00  0.00    +0.000 A 
ATOM     26  N   UNL     1      -7.767  12.452  21.058  0.00  0.00    +0.000 NA
ATOM     27  N   UNL     1      -7.296  12.847  19.830  0.00  0.00    +0.000 NA
ATOM     28  C   UNL     1      -6.988  11.767  19.139  0.00  0.00    +0.000 A 
ENDBRANCH  22  28
BRANCH  22  29
ATOM     29  O   UNL     1      -6.731  13.026  17.144  0.00  0.00    +0.000 OA
ATOM     30  H   UNL     1      -7.362  13.481  17.735  0.00  0.00    +0.000 HD
ENDBRANCH  22  29
ENDBRANCH   1  22
TORSDOF 5
ENDMDL
MODEL 2
REMARK VINA RESULT:      -7.8      5.301      7.977
REMARK  Name = 
REMARK  6 active torsions:
REMARK  status: ('A' for Active; 'I' for Inactive)
REMARK    1  A    between atoms: C_1  and  N_2
REMARK    2  A    between atoms: C_6  and  C_7
REMARK    3  A    between atoms: C_7  and  O_8
REMARK    4  A    between atoms: C_7  and  C_9
REMARK    5  A    between atoms: C_13  and  N_14
REMARK    6  A    between atoms: C_22  and  C_23
REMARK                            x       y       z     vdW  Elec       q    Type
REMARK                         _______ _______ _______ _____ _____    ______ ____
ROOT
ATOM      1  C   UNL     1       1.629   9.083  19.029  0.00  0.00    +0.000 A 
ATOM      2  C   UNL     1       1.232   8.510  20.247  0.00  0.00    +0.000 A 
ATOM      3  C   UNL     1       1.797   7.318  20.687  0.00  0.00    +0.000 A 
ATOM      4  C   UNL     1       2.664   6.621  19.859  0.00  0.00    +0.000 A 
ATOM      5  C   UNL     1       2.787   7.009  18.517  0.00  0.00    +0.000 A 
ATOM      6  C   UNL     1       2.403   8.307  18.150  0.00  0.00    +0.000 A 
ENDROOT
BRANCH   5   7
ATOM      7  N   UNL     1       2.804   5.974  17.488  0.00  0.00    +0.000 N 
ATOM      8  C   UNL     1       1.775   4.943  17.781  0.00  0.00    +0.000 C 
ATOM      9  C   UNL     1       2.548   3.957  18.607  0.00  0.00    +0.000 A 
ATOM     10  C   UNL     1       3.891   4.050  18.219  0.00  0.00    +0.000 A 
ATOM     11  C   UNL     1       4.915   3.392  18.872  0.00  0.00    +0.000 A 
ATOM     12  C   UNL     1       4.556   2.621  19.968  0.00  0.00    +0.000 A 
ATOM     13  F   UNL     1       5.512   2.026  20.693  0.00  0.00    +0.000 F 
ATOM     14  C   UNL     1       3.223   2.524  20.395  0.00  0.00    +0.000 A 
ATOM     15  C   UNL     1       2.185   3.200  19.719  0.00  0.00    +0.000 A 
ATOM     16  C   UNL     1       4.028   5.259  17.365  0.00  0.00    +0.000 C 
ATOM     17  O   UNL     1       5.079   5.627  16.876  0.00  0.00    +0.000 OA
BRANCH  15  18
ATOM     18  C   UNL     1       0.793   3.169  20.296  0.00  0.00    +0.000 C 
ATOM     19  F   UNL     1       0.706   2.586  21.518  0.00  0.00    +0.000 F 
ATOM     20  F   UNL     1       0.281   4.423  20.449  0.00  0.00    +0.000 F 
ATOM     21  F   UNL     1      -0.085   2.507  19.493  0.00  0.00    +0.000 F 
ENDBRANCH  15  18
ENDBRANCH   5   7
BRANCH   1  22
ATOM     22  C   UNL     1       1.091  10.443  18.655  0.00  0.00    +0.000 C 
BRANCH  22  28
ATOM     23  C   UNL     1      -1.805  11.513  19.240  0.00  0.00    +0.000 C 
ATOM     24  N   UNL     1      -0.623  11.745  20.024  0.00  0.00    +0.000 N 
ATOM     25  C   UNL     1      -0.562  12.507  21.156  0.00  0.00    +0.000 A 
ATOM     26  N   UNL     1       0.667  12.506  21.615  0.00  0.00    +0.000 NA
ATOM     27  N   UNL     1       1.429  11.744  20.765  0.00  0.00    +0.000 NA
ATOM     28  C   UNL     1       0.647  11.287  19.807  0.00  0.00    +0.000 A 
ENDBRANCH  22  28
BRANCH  22  29
ATOM     29  O   UNL     1       2.120  11.139  17.950  0.00  0.00    +0.000 OA
ATOM     30  H   UNL     1       1.746  11.371  17.077  0.00  0.00    +0.000 HD
ENDBRANCH  22  29
ENDBRANCH   1  22
TORSDOF 5
ENDMDL
MODEL 3
REMARK VINA RESULT:      -7.7      5.560      8.615
REMARK  Name = 
REMARK  6 active torsions:
REMARK  status: ('A' for Active; 'I' for Inactive)
REMARK    1  A    between atoms: C_1  and  N_2
REMARK    2  A    between atoms: C_6  and  C_7
REMARK    3  A    between atoms: C_7  and  O_8
REMARK    4  A    between atoms: C_7  and  C_9
REMARK    5  A    between atoms: C_13  and  N_14
REMARK    6  A    between atoms: C_22  and  C_23
REMARK                            x       y       z     vdW  Elec       q    Type
REMARK                         _______ _______ _______ _____ _____    ______ ____
ROOT
ATOM      1  C   UNL     1       1.974   8.102  19.447  0.00  0.00    +0.000 A 
ATOM      2  C   UNL     1       2.560   8.680  18.310  0.00  0.00    +0.000 A 
ATOM      3  C   UNL     1       3.105   7.882  17.310  0.00  0.00    +0.000 A 
ATOM      4  C   UNL     1       3.185   6.509  17.494  0.00  0.00    +0.000 A 
ATOM      5  C   UNL     1       2.922   5.973  18.763  0.00  0.00    +0.000 A 
ATOM      6  C   UNL     1       2.178   6.732  19.677  0.00  0.00    +0.000 A 
ENDROOT
BRANCH   5   7
ATOM      7  N   UNL     1       3.811   4.937  19.282  0.00  0.00    +0.000 N 
ATOM      8  C   UNL     1       5.196   5.461  19.399  0.00  0.00    +0.000 C 
ATOM      9  C   UNL     1       5.776   5.109  18.060  0.00  0.00    +0.000 A 
ATOM     10  C   UNL     1       5.094   3.977  17.594  0.00  0.00    +0.000 A 
ATOM     11  C   UNL     1       5.263   3.460  16.325  0.00  0.00    +0.000 A 
ATOM     12  C   UNL     1       6.152   4.130  15.497  0.00  0.00    +0.000 A 
ATOM     13  F   UNL     1       6.297   3.728  14.228  0.00  0.00    +0.000 F 
ATOM     14  C   UNL     1       6.835   5.279  15.925  0.00  0.00    +0.000 A 
ATOM     15  C   UNL     1       6.654   5.797  17.225  0.00  0.00    +0.000 A 
ATOM     16  C   UNL     1       3.917   3.769  18.478  0.00  0.00    +0.000 C 
ATOM     17  O   UNL     1       3.112   2.869  18.331  0.00  0.00    +0.000 OA
BRANCH  15  18
ATOM     18  C   UNL     1       7.308   7.105  17.590  0.00  0.00    +0.000 C 
ATOM     19  F   UNL     1       8.157   7.589  16.649  0.00  0.00    +0.000 F 
ATOM     20  F   UNL     1       6.388   8.090  17.797  0.00  0.00    +0.000 F 
ATOM     21  F   UNL     1       8.025   7.020  18.745  0.00  0.00    +0.000 F 
ENDBRANCH  15  18
ENDBRANCH   5   7
BRANCH   1  22
ATOM     22  C   UNL     1       1.276   8.999  20.440  0.00  0.00    +0.000 C 
BRANCH  22  28
ATOM     23  C   UNL     1       1.540  12.129  20.534  0.00  0.00    +0.000 C 
ATOM     24  N   UNL     1       0.491  11.368  19.911  0.00  0.00    +0.000 N 
ATOM     25  C   UNL     1      -0.596  11.894  19.273  0.00  0.00    +0.000 A 
ATOM     26  N   UNL     1      -1.351  10.920  18.824  0.00  0.00    +0.000 NA
ATOM     27  N   UNL     1      -0.760   9.735  19.187  0.00  0.00    +0.000 NA
ATOM     28  C   UNL     1       0.351  10.009  19.841  0.00  0.00    +0.000 A 
ENDBRANCH  22  28
BRANCH  22  29
ATOM     29  O   UNL     1       0.528   8.167  21.328  0.00  0.00    +0.000 OA
ATOM     30  H   UNL     1       1.110   7.415  21.555  0.00  0.00    +0.000 HD
ENDBRANCH  22  29
ENDBRANCH   1  22
TORSDOF 5
ENDMDL
MODEL 4
REMARK VINA RESULT:      -7.5      5.480      8.323
REMARK  Name = 
REMARK  6 active torsions:
REMARK  status: ('A' for Active; 'I' for Inactive)
REMARK    1  A    between atoms: C_1  and  N_2
REMARK    2  A    between atoms: C_6  and  C_7
REMARK    3  A    between atoms: C_7  and  O_8
REMARK    4  A    between atoms: C_7  and  C_9
REMARK    5  A    between atoms: C_13  and  N_14
REMARK    6  A    between atoms: C_22  and  C_23
REMARK                            x       y       z     vdW  Elec       q    Type
REMARK                         _______ _______ _______ _____ _____    ______ ____
ROOT
ATOM      1  C   UNL     1       1.409   8.943  19.130  0.00  0.00    +0.000 A 
ATOM      2  C   UNL     1       1.244   8.342  20.388  0.00  0.00    +0.000 A 
ATOM      3  C   UNL     1       2.013   7.244  20.755  0.00  0.00    +0.000 A 
ATOM      4  C   UNL     1       2.861   6.656  19.828  0.00  0.00    +0.000 A 
ATOM      5  C   UNL     1       2.767   7.036  18.480  0.00  0.00    +0.000 A 
ATOM      6  C   UNL     1       2.169   8.264  18.163  0.00  0.00    +0.000 A 
ENDROOT
BRANCH   5   7
ATOM      7  N   UNL     1       2.799   5.995  17.458  0.00  0.00    +0.000 N 
ATOM      8  C   UNL     1       1.776   4.957  17.748  0.00  0.00    +0.000 C 
ATOM      9  C   UNL     1       2.552   3.981  18.585  0.00  0.00    +0.000 A 
ATOM     10  C   UNL     1       3.897   4.084  18.206  0.00  0.00    +0.000 A 
ATOM     11  C   UNL     1       4.922   3.438  18.869  0.00  0.00    +0.000 A 
ATOM     12  C   UNL     1       4.562   2.670  19.966  0.00  0.00    +0.000 A 
ATOM     13  F   UNL     1       5.517   2.086  20.701  0.00  0.00    +0.000 F 
ATOM     14  C   UNL     1       3.227   2.563  20.385  0.00  0.00    +0.000 A 
ATOM     15  C   UNL     1       2.188   3.228  19.699  0.00  0.00    +0.000 A 
ATOM     16  C   UNL     1       4.030   5.290  17.346  0.00  0.00    +0.000 C 
ATOM     17  O   UNL     1       5.081   5.663  16.862  0.00  0.00    +0.000 OA
BRANCH  15  18
ATOM     18  C   UNL     1       0.792   3.188  20.266  0.00  0.00    +0.000 C 
ATOM     19  F   UNL     1       0.220   4.407  20.433  0.00  0.00    +0.000 F 
ATOM     20  F   UNL     1      -0.060   2.488  19.465  0.00  0.00    +0.000 F 
ATOM     21  F   UNL     1       0.746   2.574  21.481  0.00  0.00    +0.000 F 
ENDBRANCH  15  18
ENDBRANCH   5   7
BRANCH   1  22
ATOM     22  C   UNL     1       0.651  10.212  18.824  0.00  0.00    +0.000 C 
BRANCH  22  28
ATOM     23  C   UNL     1       0.460  12.381  21.090  0.00  0.00    +0.000 C 
ATOM     24  N   UNL     1       1.330  12.401  19.946  0.00  0.00    +0.000 N 
ATOM     25  C   UNL     1       2.210  13.399  19.638  0.00  0.00    +0.000 A 
ATOM     26  N   UNL     1       2.842  13.096  18.529  0.00  0.00    +0.000 NA
ATOM     27  N   UNL     1       2.359  11.887  18.092  0.00  0.00    +0.000 NA
ATOM     28  C   UNL     1       1.448  11.471  18.949  0.00  0.00    +0.000 A 
ENDBRANCH  22  28
BRANCH  22  29
ATOM     29  O   UNL     1       0.161  10.115  17.487  0.00  0.00    +0.000 OA
ATOM     30  H   UNL     1      -0.561  10.770  17.410  0.00  0.00    +0.000 HD
ENDBRANCH  22  29
ENDBRANCH   1  22
TORSDOF 5
ENDMDL
MODEL 5
REMARK VINA RESULT:      -7.5      4.696      7.679
REMARK  Name = 
REMARK  6 active torsions:
REMARK  status: ('A' for Active; 'I' for Inactive)
REMARK    1  A    between atoms: C_1  and  N_2
REMARK    2  A    between atoms: C_6  and  C_7
REMARK    3  A    between atoms: C_7  and  O_8
REMARK    4  A    between atoms: C_7  and  C_9
REMARK    5  A    between atoms: C_13  and  N_14
REMARK    6  A    between atoms: C_22  and  C_23
REMARK                            x       y       z     vdW  Elec       q    Type
REMARK                         _______ _______ _______ _____ _____    ______ ____
ROOT
ATOM      1  C   UNL     1       2.422   6.976  19.451  0.00  0.00    +0.000 A 
ATOM      2  C   UNL     1       2.340   7.442  18.129  0.00  0.00    +0.000 A 
ATOM      3  C   UNL     1       1.918   8.739  17.860  0.00  0.00    +0.000 A 
ATOM      4  C   UNL     1       1.453   9.540  18.893  0.00  0.00    +0.000 A 
ATOM      5  C   UNL     1       1.208   8.962  20.147  0.00  0.00    +0.000 A 
ATOM      6  C   UNL     1       1.829   7.746  20.465  0.00  0.00    +0.000 A 
ENDROOT
BRANCH   5   7
ATOM      7  N   UNL     1      -0.018   9.321  20.854  0.00  0.00    +0.000 N 
ATOM      8  C   UNL     1      -1.186   9.220  19.942  0.00  0.00    +0.000 C 
ATOM      9  C   UNL     1      -1.258  10.608  19.374  0.00  0.00    +0.000 A 
ATOM     10  C   UNL     1      -0.716  11.478  20.330  0.00  0.00    +0.000 A 
ATOM     11  C   UNL     1      -0.485  12.818  20.089  0.00  0.00    +0.000 A 
ATOM     12  C   UNL     1      -0.806  13.284  18.823  0.00  0.00    +0.000 A 
ATOM     13  F   UNL     1      -0.529  14.554  18.500  0.00  0.00    +0.000 F 
ATOM     14  C   UNL     1      -1.330  12.434  17.836  0.00  0.00    +0.000 A 
ATOM     15  C   UNL     1      -1.563  11.066  18.094  0.00  0.00    +0.000 A 
ATOM     16  C   UNL     1      -0.056  10.646  21.370  0.00  0.00    +0.000 C 
ATOM     17  O   UNL     1       0.522  11.104  22.337  0.00  0.00    +0.000 OA
BRANCH  15  18
ATOM     18  C   UNL     1      -2.001  10.171  16.964  0.00  0.00    +0.000 C 
ATOM     19  F   UNL     1      -1.094   9.223  16.616  0.00  0.00    +0.000 F 
ATOM     20  F   UNL     1      -3.144   9.494  17.269  0.00  0.00    +0.000 F 
ATOM     21  F   UNL     1      -2.278  10.870  15.828  0.00  0.00    +0.000 F 
ENDBRANCH  15  18
ENDBRANCH   5   7
BRANCH   1  22
ATOM     22  C   UNL     1       3.012   5.610  19.705  0.00  0.00    +0.000 C 
BRANCH  22  28
ATOM     23  C   UNL     1       1.793   3.301  21.453  0.00  0.00    +0.000 C 
ATOM     24  N   UNL     1       1.669   3.466  20.031  0.00  0.00    +0.000 N 
ATOM     25  C   UNL     1       1.014   2.613  19.189  0.00  0.00    +0.000 A 
ATOM     26  N   UNL     1       1.097   3.063  17.960  0.00  0.00    +0.000 NA
ATOM     27  N   UNL     1       1.832   4.222  17.991  0.00  0.00    +0.000 NA
ATOM     28  C   UNL     1       2.175   4.462  19.241  0.00  0.00    +0.000 A 
ENDBRANCH  22  28
BRANCH  22  29
ATOM     29  O   UNL     1       4.275   5.551  19.041  0.00  0.00    +0.000 OA
ATOM     30  H   UNL     1       4.489   6.467  18.777  0.00  0.00    +0.000 HD
ENDBRANCH  22  29
ENDBRANCH   1  22
TORSDOF 5
ENDMDL
MODEL 6
REMARK VINA RESULT:      -7.5      5.716      8.723
REMARK  Name = 
REMARK  6 active torsions:
REMARK  status: ('A' for Active; 'I' for Inactive)
REMARK    1  A    between atoms: C_1  and  N_2
REMARK    2  A    between atoms: C_6  and  C_7
REMARK    3  A    between atoms: C_7  and  O_8
REMARK    4  A    between atoms: C_7  and  C_9
REMARK    5  A    between atoms: C_13  and  N_14
REMARK    6  A    between atoms: C_22  and  C_23
REMARK                            x       y       z     vdW  Elec       q    Type
REMARK                         _______ _______ _______ _____ _____    ______ ____
ROOT
ATOM      1  C   UNL     1       2.025   7.740  19.580  0.00  0.00    +0.000 A 
ATOM      2  C   UNL     1       2.546   8.399  18.456  0.00  0.00    +0.000 A 
ATOM      3  C   UNL     1       3.096   7.678  17.402  0.00  0.00    +0.000 A 
ATOM      4  C   UNL     1       3.249   6.304  17.516  0.00  0.00    +0.000 A 
ATOM      5  C   UNL     1       3.053   5.696  18.765  0.00  0.00    +0.000 A 
ATOM      6  C   UNL     1       2.303   6.373  19.737  0.00  0.00    +0.000 A 
ENDROOT
BRANCH   5   7
ATOM      7  N   UNL     1       4.007   4.682  19.205  0.00  0.00    +0.000 N 
ATOM      8  C   UNL     1       5.363   5.276  19.336  0.00  0.00    +0.000 C 
ATOM      9  C   UNL     1       5.938   5.041  17.969  0.00  0.00    +0.000 A 
ATOM     10  C   UNL     1       5.312   3.903  17.443  0.00  0.00    +0.000 A 
ATOM     11  C   UNL     1       5.488   3.475  16.142  0.00  0.00    +0.000 A 
ATOM     12  C   UNL     1       6.323   4.244  15.345  0.00  0.00    +0.000 A 
ATOM     13  F   UNL     1       6.469   3.930  14.051  0.00  0.00    +0.000 F 
ATOM     14  C   UNL     1       6.948   5.401  15.835  0.00  0.00    +0.000 A 
ATOM     15  C   UNL     1       6.762   5.828  17.167  0.00  0.00    +0.000 A 
ATOM     16  C   UNL     1       4.164   3.573  18.328  0.00  0.00    +0.000 C 
ATOM     17  O   UNL     1       3.408   2.640  18.137  0.00  0.00    +0.000 OA
BRANCH  15  18
ATOM     18  C   UNL     1       7.348   7.146  17.604  0.00  0.00    +0.000 C 
ATOM     19  F   UNL     1       8.027   7.096  18.777  0.00  0.00    +0.000 F 
ATOM     20  F   UNL     1       8.231   7.635  16.687  0.00  0.00    +0.000 F 
ATOM     21  F   UNL     1       6.398   8.110  17.753  0.00  0.00    +0.000 F 
ENDBRANCH  15  18
ENDBRANCH   5   7
BRANCH   1  22
ATOM     22  C   UNL     1       1.317   8.553  20.637  0.00  0.00    +0.000 C 
BRANCH  22  28
ATOM     23  C   UNL     1      -0.233  10.724  22.297  0.00  0.00    +0.000 C 
ATOM     24  N   UNL     1      -0.237  10.563  20.869  0.00  0.00    +0.000 N 
ATOM     25  C   UNL     1      -0.952  11.324  19.988  0.00  0.00    +0.000 A 
ATOM     26  N   UNL     1      -0.725  10.905  18.767  0.00  0.00    +0.000 NA
ATOM     27  N   UNL     1       0.140   9.842  18.844  0.00  0.00    +0.000 NA
ATOM     28  C   UNL     1       0.433   9.639  20.114  0.00  0.00    +0.000 A 
ENDBRANCH  22  28
BRANCH  22  29
ATOM     29  O   UNL     1       0.525   7.657  21.417  0.00  0.00    +0.000 OA
ATOM     30  H   UNL     1       1.142   7.195  22.017  0.00  0.00    +0.000 HD
ENDBRANCH  22  29
ENDBRANCH   1  22
TORSDOF 5
ENDMDL
MODEL 7
REMARK VINA RESULT:      -7.5      4.808      8.341
REMARK  Name = 
REMARK  6 active torsions:
REMARK  status: ('A' for Active; 'I' for Inactive)
REMARK    1  A    between atoms: C_1  and  N_2
REMARK    2  A    between atoms: C_6  and  C_7
REMARK    3  A    between atoms: C_7  and  O_8
REMARK    4  A    between atoms: C_7  and  C_9
REMARK    5  A    between atoms: C_13  and  N_14
REMARK    6  A    between atoms: C_22  and  C_23
REMARK                            x       y       z     vdW  Elec       q    Type
REMARK                         _______ _______ _______ _____ _____    ______ ____
ROOT
ATOM      1  C   UNL     1       2.283   6.846  19.397  0.00  0.00    +0.000 A 
ATOM      2  C   UNL     1       2.245   7.350  18.087  0.00  0.00    +0.000 A 
ATOM      3  C   UNL     1       1.945   8.686  17.850  0.00  0.00    +0.000 A 
ATOM      4  C   UNL     1       1.554   9.501  18.903  0.00  0.00    +0.000 A 
ATOM      5  C   UNL     1       1.256   8.917  20.144  0.00  0.00    +0.000 A 
ATOM      6  C   UNL     1       1.763   7.642  20.431  0.00  0.00    +0.000 A 
ENDROOT
BRANCH   5   7
ATOM      7  N   UNL     1       0.068   9.370  20.861  0.00  0.00    +0.000 N 
ATOM      8  C   UNL     1      -1.129   9.269  19.987  0.00  0.00    +0.000 C 
ATOM      9  C   UNL     1      -1.158  10.624  19.342  0.00  0.00    +0.000 A 
ATOM     10  C   UNL     1      -0.552  11.522  20.231  0.00  0.00    +0.000 A 
ATOM     11  C   UNL     1      -0.271  12.835  19.906  0.00  0.00    +0.000 A 
ATOM     12  C   UNL     1      -0.609  13.241  18.624  0.00  0.00    +0.000 A 
ATOM     13  F   UNL     1      -0.287  14.477  18.221  0.00  0.00    +0.000 F 
ATOM     14  C   UNL     1      -1.198  12.361  17.703  0.00  0.00    +0.000 A 
ATOM     15  C   UNL     1      -1.481  11.022  18.046  0.00  0.00    +0.000 A 
ATOM     16  C   UNL     1       0.101  10.722  21.300  0.00  0.00    +0.000 C 
ATOM     17  O   UNL     1       0.726  11.209  22.223  0.00  0.00    +0.000 OA
BRANCH  15  18
ATOM     18  C   UNL     1      -1.989  10.084  16.982  0.00  0.00    +0.000 C 
ATOM     19  F   UNL     1      -2.290  10.685  15.803  0.00  0.00    +0.000 F 
ATOM     20  F   UNL     1      -1.075   9.119  16.681  0.00  0.00    +0.000 F 
ATOM     21  F   UNL     1      -3.113   9.421  17.371  0.00  0.00    +0.000 F 
ENDBRANCH  15  18
ENDBRANCH   5   7
BRANCH   1  22
ATOM     22  C   UNL     1       2.745   5.426  19.617  0.00  0.00    +0.000 C 
BRANCH  22  28
ATOM     23  C   UNL     1       3.521   3.749  17.075  0.00  0.00    +0.000 C 
ATOM     24  N   UNL     1       4.421   4.376  18.004  0.00  0.00    +0.000 N 
ATOM     25  C   UNL     1       5.784   4.318  17.948  0.00  0.00    +0.000 A 
ATOM     26  N   UNL     1       6.291   4.998  18.948  0.00  0.00    +0.000 NA
ATOM     27  N   UNL     1       5.245   5.498  19.684  0.00  0.00    +0.000 NA
ATOM     28  C   UNL     1       4.119   5.121  19.112  0.00  0.00    +0.000 A 
ENDBRANCH  22  28
BRANCH  22  29
ATOM     29  O   UNL     1       2.709   5.169  21.021  0.00  0.00    +0.000 OA
ATOM     30  H   UNL     1       3.598   4.843  21.264  0.00  0.00    +0.000 HD
ENDBRANCH  22  29
ENDBRANCH   1  22
TORSDOF 5
ENDMDL
MODEL 8
REMARK VINA RESULT:      -7.4      4.896      7.679
REMARK  Name = 
REMARK  6 active torsions:
REMARK  status: ('A' for Active; 'I' for Inactive)
REMARK    1  A    between atoms: C_1  and  N_2
REMARK    2  A    between atoms: C_6  and  C_7
REMARK    3  A    between atoms: C_7  and  O_8
REMARK    4  A    between atoms: C_7  and  C_9
REMARK    5  A    between atoms: C_13  and  N_14
REMARK    6  A    between atoms: C_22  and  C_23
REMARK                            x       y       z     vdW  Elec       q    Type
REMARK                         _______ _______ _______ _____ _____    ______ ____
ROOT
ATOM      1  C   UNL     1       1.292   9.180  19.642  0.00  0.00    +0.000 A 
ATOM      2  C   UNL     1       1.818   9.493  18.378  0.00  0.00    +0.000 A 
ATOM      3  C   UNL     1       2.363   8.501  17.571  0.00  0.00    +0.000 A 
ATOM      4  C   UNL     1       2.507   7.213  18.067  0.00  0.00    +0.000 A 
ATOM      5  C   UNL     1       2.307   6.982  19.436  0.00  0.00    +0.000 A 
ATOM      6  C   UNL     1       1.561   7.909  20.177  0.00  0.00    +0.000 A 
ENDROOT
BRANCH   5   7
ATOM      7  N   UNL     1       3.254   6.127  20.146  0.00  0.00    +0.000 N 
ATOM      8  C   UNL     1       4.456   5.885  19.307  0.00  0.00    +0.000 C 
ATOM      9  C   UNL     1       4.075   4.635  18.569  0.00  0.00    +0.000 A 
ATOM     10  C   UNL     1       3.175   3.931  19.380  0.00  0.00    +0.000 A 
ATOM     11  C   UNL     1       2.500   2.801  18.959  0.00  0.00    +0.000 A 
ATOM     12  C   UNL     1       2.744   2.384  17.659  0.00  0.00    +0.000 A 
ATOM     13  F   UNL     1       2.059   1.345  17.164  0.00  0.00    +0.000 F 
ATOM     14  C   UNL     1       3.623   3.078  16.815  0.00  0.00    +0.000 A 
ATOM     15  C   UNL     1       4.308   4.231  17.257  0.00  0.00    +0.000 A 
ATOM     16  C   UNL     1       2.768   4.835  20.488  0.00  0.00    +0.000 C 
ATOM     17  O   UNL     1       1.981   4.523  21.361  0.00  0.00    +0.000 OA
BRANCH  15  18
ATOM     18  C   UNL     1       5.136   5.014  16.272  0.00  0.00    +0.000 C 
ATOM     19  F   UNL     1       4.680   6.269  16.028  0.00  0.00    +0.000 F 
ATOM     20  F   UNL     1       6.421   5.166  16.700  0.00  0.00    +0.000 F 
ATOM     21  F   UNL     1       5.221   4.396  15.061  0.00  0.00    +0.000 F 
ENDBRANCH  15  18
ENDBRANCH   5   7
BRANCH   1  22
ATOM     22  C   UNL     1       0.589  10.261  20.426  0.00  0.00    +0.000 C 
BRANCH  22  28
ATOM     23  C   UNL     1       1.594  13.178  19.829  0.00  0.00    +0.000 C 
ATOM     24  N   UNL     1       0.375  12.573  19.367  0.00  0.00    +0.000 N 
ATOM     25  C   UNL     1      -0.576  13.189  18.605  0.00  0.00    +0.000 A 
ATOM     26  N   UNL     1      -1.555  12.350  18.367  0.00  0.00    +0.000 NA
ATOM     27  N   UNL     1      -1.253  11.168  18.995  0.00  0.00    +0.000 NA
ATOM     28  C   UNL     1      -0.088  11.306  19.598  0.00  0.00    +0.000 A 
ENDBRANCH  22  28
BRANCH  22  29
ATOM     29  O   UNL     1      -0.390   9.632  21.253  0.00  0.00    +0.000 OA
ATOM     30  H   UNL     1      -0.964  10.347  21.592  0.00  0.00    +0.000 HD
ENDBRANCH  22  29
ENDBRANCH   1  22
TORSDOF 5
ENDMDL
MODEL 9
REMARK VINA RESULT:      -7.4      0.532      1.311
REMARK  Name = 
REMARK  6 active torsions:
REMARK  status: ('A' for Active; 'I' for Inactive)
REMARK    1  A    between atoms: C_1  and  N_2
REMARK    2  A    between atoms: C_6  and  C_7
REMARK    3  A    between atoms: C_7  and  O_8
REMARK    4  A    between atoms: C_7  and  C_9
REMARK    5  A    between atoms: C_13  and  N_14
REMARK    6  A    between atoms: C_22  and  C_23
REMARK                            x       y       z     vdW  Elec       q    Type
REMARK                         _______ _______ _______ _____ _____    ______ ____
ROOT
ATOM      1  C   UNL     1      -4.954  11.485  17.649  0.00  0.00    +0.000 A 
ATOM      2  C   UNL     1      -4.506  11.165  16.357  0.00  0.00    +0.000 A 
ATOM      3  C   UNL     1      -3.178  10.822  16.131  0.00  0.00    +0.000 A 
ATOM      4  C   UNL     1      -2.258  10.918  17.165  0.00  0.00    +0.000 A 
ATOM      5  C   UNL     1      -2.630  11.565  18.352  0.00  0.00    +0.000 A 
ATOM      6  C   UNL     1      -3.993  11.703  18.650  0.00  0.00    +0.000 A 
ENDROOT
BRANCH   5   7
ATOM      7  N   UNL     1      -1.688  12.498  18.964  0.00  0.00    +0.000 N 
ATOM      8  C   UNL     1      -0.294  12.125  18.611  0.00  0.00    +0.000 C 
ATOM      9  C   UNL     1       0.078  11.208  19.740  0.00  0.00    +0.000 A 
ATOM     10  C   UNL     1      -0.680  11.591  20.855  0.00  0.00    +0.000 A 
ATOM     11  C   UNL     1      -0.707  10.874  22.035  0.00  0.00    +0.000 A 
ATOM     12  C   UNL     1       0.059   9.718  22.074  0.00  0.00    +0.000 A 
ATOM     13  F   UNL     1       0.011   8.935  23.159  0.00  0.00    +0.000 F 
ATOM     14  C   UNL     1       0.812   9.296  20.968  0.00  0.00    +0.000 A 
ATOM     15  C   UNL     1       0.832  10.037  19.768  0.00  0.00    +0.000 A 
ATOM     16  C   UNL     1      -1.717  12.547  20.385  0.00  0.00    +0.000 C 
ATOM     17  O   UNL     1      -2.547  13.058  21.113  0.00  0.00    +0.000 OA
BRANCH  15  18
ATOM     18  C   UNL     1       1.549   9.473  18.569  0.00  0.00    +0.000 C 
ATOM     19  F   UNL     1       0.733   9.100  17.551  0.00  0.00    +0.000 F 
ATOM     20  F   UNL     1       2.421  10.373  18.031  0.00  0.00    +0.000 F 
ATOM     21  F   UNL     1       2.295   8.377  18.881  0.00  0.00    +0.000 F 
ENDBRANCH  15  18
ENDBRANCH   5   7
BRANCH   1  22
ATOM     22  C   UNL     1      -6.428  11.719  17.871  0.00  0.00    +0.000 C 
BRANCH  22  28
ATOM     23  C   UNL     1      -6.979  13.822  20.139  0.00  0.00    +0.000 C 
ATOM     24  N   UNL     1      -7.129  12.395  20.229  0.00  0.00    +0.000 N 
ATOM     25  C   UNL     1      -7.514  11.708  21.344  0.00  0.00    +0.000 A 
ATOM     26  N   UNL     1      -7.545  10.425  21.076  0.00  0.00    +0.000 NA
ATOM     27  N   UNL     1      -7.159  10.263  19.769  0.00  0.00    +0.000 NA
ATOM     28  C   UNL     1      -6.910  11.453  19.261  0.00  0.00    +0.000 A 
ENDBRANCH  22  28
BRANCH  22  29
ATOM     29  O   UNL     1      -6.706  13.082  17.546  0.00  0.00    +0.000 OA
ATOM     30  H   UNL     1      -6.928  13.098  16.594  0.00  0.00    +0.000 HD
ENDBRANCH  22  29
ENDBRANCH   1  22
TORSDOF 5
ENDMDL
