MODEL 1
REMARK VINA RESULT:      -8.2      0.000      0.000
REMARK  Name = 
REMARK  6 active torsions:
REMARK  status: ('A' for Active; 'I' for Inactive)
REMARK    1  A    between atoms: N_1  and  C_2
REMARK    2  A    between atoms: C_7  and  C_8
REMARK    3  A    between atoms: N_10  and  C_11
REMARK    4  A    between atoms: C_15  and  O_16
REMARK    5  A    between atoms: O_16  and  C_17
REMARK    6  A    between atoms: C_17  and  C_18
REMARK                            x       y       z     vdW  Elec       q    Type
REMARK                         _______ _______ _______ _____ _____    ______ ____
ROOT
ATOM      1  C   UNL     1       2.966   4.525  18.593  0.00  0.00    +0.000 A 
ATOM      2  C   UNL     1       2.431   3.299  18.992  0.00  0.00    +0.000 A 
ATOM      3  C   UNL     1       1.496   3.240  20.029  0.00  0.00    +0.000 A 
ATOM      4  C   UNL     1       1.125   4.400  20.706  0.00  0.00    +0.000 A 
ATOM      5  C   UNL     1       1.680   5.626  20.342  0.00  0.00    +0.000 A 
ATOM      6  C   UNL     1       2.550   5.692  19.245  0.00  0.00    +0.000 A 
ENDROOT
BRANCH   1   9
ATOM      7  C   UNL     1       5.275   4.397  17.631  0.00  0.00    +0.000 C 
ATOM      8  O   UNL     1       5.889   4.122  18.656  0.00  0.00    +0.000 OA
ATOM      9  N   UNL     1       3.913   4.657  17.555  0.00  0.00    +0.000 N 
ATOM     10  H   UNL     1       3.610   5.064  16.676  0.00  0.00    +0.000 HD
BRANCH   7  16
ATOM     11  C   UNL     1       7.040   5.483  16.156  0.00  0.00    +0.000 A 
ATOM     12  N   UNL     1       7.672   5.600  14.966  0.00  0.00    +0.000 NA
ATOM     13  C   UNL     1       7.232   4.806  13.965  0.00  0.00    +0.000 A 
ATOM     14  C   UNL     1       6.182   3.917  14.125  0.00  0.00    +0.000 A 
ATOM     15  N   UNL     1       5.527   3.769  15.297  0.00  0.00    +0.000 NA
ATOM     16  C   UNL     1       5.987   4.565  16.320  0.00  0.00    +0.000 A 
BRANCH  11  17
ATOM     17  N   UNL     1       7.583   6.271  17.163  0.00  0.00    +0.000 N 
ATOM     18  H   UNL     1       8.570   6.062  17.261  0.00  0.00    +0.000 HD
ATOM     19  H   UNL     1       7.370   7.260  17.043  0.00  0.00    +0.000 HD
ENDBRANCH  11  17
ENDBRANCH   7  16
ENDBRANCH   1   9
BRANCH   5  20
ATOM     20  O   UNL     1       1.334   6.697  21.130  0.00  0.00    +0.000 OA
BRANCH  20  21
ATOM     21  C   UNL     1       1.583   7.969  20.525  0.00  0.00    +0.000 C 
BRANCH  21  22
ATOM     22  C   UNL     1       0.787   9.083  21.167  0.00  0.00    +0.000 A 
ATOM     23  C   UNL     1       0.204   8.861  22.429  0.00  0.00    +0.000 A 
ATOM     24  C   UNL     1      -0.488   9.880  23.083  0.00  0.00    +0.000 A 
ATOM     25  C   UNL     1      -0.588  11.127  22.483  0.00  0.00    +0.000 A 
ATOM     26  F   UNL     1      -1.248  12.109  23.111  0.00  0.00    +0.000 F 
ATOM     27  C   UNL     1      -0.014  11.372  21.242  0.00  0.00    +0.000 A 
ATOM     28  C   UNL     1       0.678  10.351  20.581  0.00  0.00    +0.000 A 
ENDBRANCH  21  22
ENDBRANCH  20  21
ENDBRANCH   5  20
TORSDOF 6
ENDMDL
MODEL 2
REMARK VINA RESULT:      -7.8      4.183      8.284
REMARK  Name = 
REMARK  6 active torsions:
REMARK  status: ('A' for Active; 'I' for Inactive)
REMARK    1  A    between atoms: N_1  and  C_2
REMARK    2  A    between atoms: C_7  and  C_8
REMARK    3  A    between atoms: N_10  and  C_11
REMARK    4  A    between atoms: C_15  and  O_16
REMARK    5  A    between atoms: O_16  and  C_17
REMARK    6  A    between atoms: C_17  and  C_18
REMARK                            x       y       z     vdW  Elec       q    Type
REMARK                         _______ _______ _______ _____ _____    ______ ____
ROOT
ATOM      1  C   UNL     1       1.922   5.113  20.512  0.00  0.00    +0.000 A 
ATOM      2  C   UNL     1       1.050   4.023  20.482  0.00  0.00    +0.000 A 
ATOM      3  C   UNL     1       1.520   2.750  20.150  0.00  0.00    +0.000 A 
ATOM      4  C   UNL     1       2.857   2.565  19.798  0.00  0.00    +0.000 A 
ATOM      5  C   UNL     1       3.729   3.652  19.788  0.00  0.00    +0.000 A 
ATOM      6  C   UNL     1       3.273   4.909  20.207  0.00  0.00    +0.000 A 
ENDROOT
BRANCH   1   9
ATOM      7  C   UNL     1       1.734   7.574  20.094  0.00  0.00    +0.000 C 
ATOM      8  O   UNL     1       2.425   7.645  19.083  0.00  0.00    +0.000 OA
ATOM      9  N   UNL     1       1.515   6.423  20.839  0.00  0.00    +0.000 N 
ATOM     10  H   UNL     1       1.092   6.583  21.748  0.00  0.00    +0.000 HD
BRANCH   7  16
ATOM     11  C   UNL     1       0.770   9.921  19.908  0.00  0.00    +0.000 A 
ATOM     12  N   UNL     1       0.186  11.003  20.472  0.00  0.00    +0.000 NA
ATOM     13  C   UNL     1      -0.044  10.944  21.803  0.00  0.00    +0.000 A 
ATOM     14  C   UNL     1       0.302   9.845  22.571  0.00  0.00    +0.000 A 
ATOM     15  N   UNL     1       0.884   8.745  22.046  0.00  0.00    +0.000 NA
ATOM     16  C   UNL     1       1.101   8.799  20.689  0.00  0.00    +0.000 A 
BRANCH  11  17
ATOM     17  N   UNL     1       0.914  10.012  18.530  0.00  0.00    +0.000 N 
ATOM     18  H   UNL     1       1.592   9.327  18.214  0.00  0.00    +0.000 HD
ATOM     19  H   UNL     1       0.021   9.978  18.041  0.00  0.00    +0.000 HD
ENDBRANCH  11  17
ENDBRANCH   7  16
ENDBRANCH   1   9
BRANCH   5  20
ATOM     20  O   UNL     1       4.999   3.395  19.330  0.00  0.00    +0.000 OA
BRANCH  20  21
ATOM     21  C   UNL     1       5.695   4.554  18.864  0.00  0.00    +0.000 C 
BRANCH  21  22
ATOM     22  C   UNL     1       5.992   4.494  17.381  0.00  0.00    +0.000 A 
ATOM     23  C   UNL     1       4.954   4.154  16.494  0.00  0.00    +0.000 A 
ATOM     24  C   UNL     1       5.170   4.145  15.116  0.00  0.00    +0.000 A 
ATOM     25  C   UNL     1       6.419   4.489  14.622  0.00  0.00    +0.000 A 
ATOM     26  F   UNL     1       6.627   4.486  13.298  0.00  0.00    +0.000 F 
ATOM     27  C   UNL     1       7.456   4.837  15.477  0.00  0.00    +0.000 A 
ATOM     28  C   UNL     1       7.245   4.843  16.861  0.00  0.00    +0.000 A 
ENDBRANCH  21  22
ENDBRANCH  20  21
ENDBRANCH   5  20
TORSDOF 6
ENDMDL
MODEL 3
REMARK VINA RESULT:      -7.7      3.706      7.644
REMARK  Name = 
REMARK  6 active torsions:
REMARK  status: ('A' for Active; 'I' for Inactive)
REMARK    1  A    between atoms: N_1  and  C_2
REMARK    2  A    between atoms: C_7  and  C_8
REMARK    3  A    between atoms: N_10  and  C_11
REMARK    4  A    between atoms: C_15  and  O_16
REMARK    5  A    between atoms: O_16  and  C_17
REMARK    6  A    between atoms: C_17  and  C_18
REMARK                            x       y       z     vdW  Elec       q    Type
REMARK                         _______ _______ _______ _____ _____    ______ ____
ROOT
ATOM      1  C   UNL     1       3.383   6.737  18.042  0.00  0.00    +0.000 A 
ATOM      2  C   UNL     1       4.637   7.115  17.561  0.00  0.00    +0.000 A 
ATOM      3  C   UNL     1       5.385   6.239  16.770  0.00  0.00    +0.000 A 
ATOM      4  C   UNL     1       4.905   4.959  16.495  0.00  0.00    +0.000 A 
ATOM      5  C   UNL     1       3.671   4.556  17.001  0.00  0.00    +0.000 A 
ATOM      6  C   UNL     1       2.886   5.468  17.719  0.00  0.00    +0.000 A 
ENDROOT
BRANCH   1   9
ATOM      7  C   UNL     1       1.910   8.722  18.443  0.00  0.00    +0.000 C 
ATOM      8  O   UNL     1       2.019   9.260  17.347  0.00  0.00    +0.000 OA
ATOM      9  N   UNL     1       2.575   7.571  18.844  0.00  0.00    +0.000 N 
ATOM     10  H   UNL     1       2.527   7.382  19.841  0.00  0.00    +0.000 HD
BRANCH   7  16
ATOM     11  C   UNL     1       0.105  10.319  19.256  0.00  0.00    +0.000 A 
ATOM     12  N   UNL     1      -0.645  10.840  20.255  0.00  0.00    +0.000 NA
ATOM     13  C   UNL     1      -0.407  10.373  21.500  0.00  0.00    +0.000 A 
ATOM     14  C   UNL     1       0.559   9.417  21.766  0.00  0.00    +0.000 A 
ATOM     15  N   UNL     1       1.327   8.871  20.798  0.00  0.00    +0.000 NA
ATOM     16  C   UNL     1       1.071   9.334  19.528  0.00  0.00    +0.000 A 
BRANCH  11  17
ATOM     17  N   UNL     1      -0.236  10.784  17.993  0.00  0.00    +0.000 N 
ATOM     18  H   UNL     1      -1.075  11.351  18.055  0.00  0.00    +0.000 HD
ATOM     19  H   UNL     1       0.544  11.237  17.520  0.00  0.00    +0.000 HD
ENDBRANCH  11  17
ENDBRANCH   7  16
ENDBRANCH   1   9
BRANCH   5  20
ATOM     20  O   UNL     1       3.327   3.246  16.765  0.00  0.00    +0.000 OA
BRANCH  20  21
ATOM     21  C   UNL     1       3.796   2.333  17.761  0.00  0.00    +0.000 C 
BRANCH  21  22
ATOM     22  C   UNL     1       2.962   2.374  19.023  0.00  0.00    +0.000 A 
ATOM     23  C   UNL     1       3.611   2.534  20.261  0.00  0.00    +0.000 A 
ATOM     24  C   UNL     1       2.875   2.636  21.443  0.00  0.00    +0.000 A 
ATOM     25  C   UNL     1       1.490   2.591  21.386  0.00  0.00    +0.000 A 
ATOM     26  F   UNL     1       0.782   2.694  22.519  0.00  0.00    +0.000 F 
ATOM     27  C   UNL     1       0.827   2.443  20.175  0.00  0.00    +0.000 A 
ATOM     28  C   UNL     1       1.562   2.336  18.989  0.00  0.00    +0.000 A 
ENDBRANCH  21  22
ENDBRANCH  20  21
ENDBRANCH   5  20
TORSDOF 6
ENDMDL
MODEL 4
REMARK VINA RESULT:      -7.7      2.279      2.841
REMARK  Name = 
REMARK  6 active torsions:
REMARK  status: ('A' for Active; 'I' for Inactive)
REMARK    1  A    between atoms: N_1  and  C_2
REMARK    2  A    between atoms: C_7  and  C_8
REMARK    3  A    between atoms: N_10  and  C_11
REMARK    4  A    between atoms: C_15  and  O_16
REMARK    5  A    between atoms: O_16  and  C_17
REMARK    6  A    between atoms: C_17  and  C_18
REMARK                            x       y       z     vdW  Elec       q    Type
REMARK                         _______ _______ _______ _____ _____    ______ ____
ROOT
ATOM      1  C   UNL     1       2.963   6.262  18.840  0.00  0.00    +0.000 A 
ATOM      2  C   UNL     1       2.569   5.367  19.835  0.00  0.00    +0.000 A 
ATOM      3  C   UNL     1       1.679   5.767  20.835  0.00  0.00    +0.000 A 
ATOM      4  C   UNL     1       1.215   7.081  20.876  0.00  0.00    +0.000 A 
ATOM      5  C   UNL     1       1.630   7.995  19.909  0.00  0.00    +0.000 A 
ATOM      6  C   UNL     1       2.452   7.566  18.859  0.00  0.00    +0.000 A 
ENDROOT
BRANCH   1   9
ATOM      7  C   UNL     1       5.176   5.515  17.938  0.00  0.00    +0.000 C 
ATOM      8  O   UNL     1       5.810   5.498  18.987  0.00  0.00    +0.000 OA
ATOM      9  N   UNL     1       3.856   5.924  17.801  0.00  0.00    +0.000 N 
ATOM     10  H   UNL     1       3.556   6.068  16.842  0.00  0.00    +0.000 HD
BRANCH   7  16
ATOM     11  C   UNL     1       6.956   5.841  16.150  0.00  0.00    +0.000 A 
ATOM     12  N   UNL     1       7.528   5.483  14.977  0.00  0.00    +0.000 NA
ATOM     13  C   UNL     1       6.953   4.458  14.310  0.00  0.00    +0.000 A 
ATOM     14  C   UNL     1       5.829   3.800  14.779  0.00  0.00    +0.000 A 
ATOM     15  N   UNL     1       5.229   4.125  15.945  0.00  0.00    +0.000 NA
ATOM     16  C   UNL     1       5.826   5.156  16.632  0.00  0.00    +0.000 A 
BRANCH  11  17
ATOM     17  N   UNL     1       7.633   6.849  16.823  0.00  0.00    +0.000 N 
ATOM     18  H   UNL     1       8.625   6.784  16.623  0.00  0.00    +0.000 HD
ATOM     19  H   UNL     1       7.229   7.769  16.657  0.00  0.00    +0.000 HD
ENDBRANCH  11  17
ENDBRANCH   7  16
ENDBRANCH   1   9
BRANCH   5  20
ATOM     20  O   UNL     1       1.203   9.290  20.088  0.00  0.00    +0.000 OA
BRANCH  20  21
ATOM     21  C   UNL     1       1.108  10.043  18.875  0.00  0.00    +0.000 C 
BRANCH  21  22
ATOM     22  C   UNL     1      -0.298  10.532  18.606  0.00  0.00    +0.000 A 
ATOM     23  C   UNL     1      -1.070   9.878  17.629  0.00  0.00    +0.000 A 
ATOM     24  C   UNL     1      -2.391  10.259  17.391  0.00  0.00    +0.000 A 
ATOM     25  C   UNL     1      -2.946  11.287  18.139  0.00  0.00    +0.000 A 
ATOM     26  F   UNL     1      -4.216  11.651  17.917  0.00  0.00    +0.000 F 
ATOM     27  C   UNL     1      -2.207  11.942  19.115  0.00  0.00    +0.000 A 
ATOM     28  C   UNL     1      -0.880  11.565  19.354  0.00  0.00    +0.000 A 
ENDBRANCH  21  22
ENDBRANCH  20  21
ENDBRANCH   5  20
TORSDOF 6
ENDMDL
MODEL 5
REMARK VINA RESULT:      -7.7      0.597      1.117
REMARK  Name = 
REMARK  6 active torsions:
REMARK  status: ('A' for Active; 'I' for Inactive)
REMARK    1  A    between atoms: N_1  and  C_2
REMARK    2  A    between atoms: C_7  and  C_8
REMARK    3  A    between atoms: N_10  and  C_11
REMARK    4  A    between atoms: C_15  and  O_16
REMARK    5  A    between atoms: O_16  and  C_17
REMARK    6  A    between atoms: C_17  and  C_18
REMARK                            x       y       z     vdW  Elec       q    Type
REMARK                         _______ _______ _______ _____ _____    ______ ____
ROOT
ATOM      1  C   UNL     1       2.936   4.276  18.529  0.00  0.00    +0.000 A 
ATOM      2  C   UNL     1       2.446   3.060  19.008  0.00  0.00    +0.000 A 
ATOM      3  C   UNL     1       1.567   3.030  20.094  0.00  0.00    +0.000 A 
ATOM      4  C   UNL     1       1.210   4.213  20.740  0.00  0.00    +0.000 A 
ATOM      5  C   UNL     1       1.722   5.430  20.294  0.00  0.00    +0.000 A 
ATOM      6  C   UNL     1       2.532   5.463  19.151  0.00  0.00    +0.000 A 
ENDROOT
BRANCH   1   9
ATOM      7  C   UNL     1       4.910   5.236  17.325  0.00  0.00    +0.000 C 
ATOM      8  O   UNL     1       5.195   6.129  18.115  0.00  0.00    +0.000 OA
ATOM      9  N   UNL     1       3.824   4.378  17.438  0.00  0.00    +0.000 N 
ATOM     10  H   UNL     1       3.623   3.841  16.600  0.00  0.00    +0.000 HD
BRANCH   7  16
ATOM     11  C   UNL     1       6.929   5.682  15.843  0.00  0.00    +0.000 A 
ATOM     12  N   UNL     1       7.622   5.469  14.701  0.00  0.00    +0.000 NA
ATOM     13  C   UNL     1       7.067   4.626  13.802  0.00  0.00    +0.000 A 
ATOM     14  C   UNL     1       5.846   4.008  14.014  0.00  0.00    +0.000 A 
ATOM     15  N   UNL     1       5.124   4.193  15.141  0.00  0.00    +0.000 NA
ATOM     16  C   UNL     1       5.699   5.037  16.062  0.00  0.00    +0.000 A 
BRANCH  11  17
ATOM     17  N   UNL     1       7.583   6.498  16.756  0.00  0.00    +0.000 N 
ATOM     18  H   UNL     1       6.899   6.985  17.326  0.00  0.00    +0.000 HD
ATOM     19  H   UNL     1       8.294   5.999  17.287  0.00  0.00    +0.000 HD
ENDBRANCH  11  17
ENDBRANCH   7  16
ENDBRANCH   1   9
BRANCH   5  20
ATOM     20  O   UNL     1       1.397   6.529  21.053  0.00  0.00    +0.000 OA
BRANCH  20  21
ATOM     21  C   UNL     1       1.598   7.778  20.384  0.00  0.00    +0.000 C 
BRANCH  21  22
ATOM     22  C   UNL     1       0.852   8.916  21.045  0.00  0.00    +0.000 A 
ATOM     23  C   UNL     1       0.418   9.994  20.252  0.00  0.00    +0.000 A 
ATOM     24  C   UNL     1      -0.324  11.035  20.811  0.00  0.00    +0.000 A 
ATOM     25  C   UNL     1      -0.645  10.993  22.160  0.00  0.00    +0.000 A 
ATOM     26  F   UNL     1      -1.362  11.989  22.697  0.00  0.00    +0.000 F 
ATOM     27  C   UNL     1      -0.235   9.935  22.960  0.00  0.00    +0.000 A 
ATOM     28  C   UNL     1       0.513   8.891  22.404  0.00  0.00    +0.000 A 
ENDBRANCH  21  22
ENDBRANCH  20  21
ENDBRANCH   5  20
TORSDOF 6
ENDMDL
MODEL 6
REMARK VINA RESULT:      -7.7      3.878      7.554
REMARK  Name = 
REMARK  6 active torsions:
REMARK  status: ('A' for Active; 'I' for Inactive)
REMARK    1  A    between atoms: N_1  and  C_2
REMARK    2  A    between atoms: C_7  and  C_8
REMARK    3  A    between atoms: N_10  and  C_11
REMARK    4  A    between atoms: C_15  and  O_16
REMARK    5  A    between atoms: O_16  and  C_17
REMARK    6  A    between atoms: C_17  and  C_18
REMARK                            x       y       z     vdW  Elec       q    Type
REMARK                         _______ _______ _______ _____ _____    ______ ____
ROOT
ATOM      1  C   UNL     1       2.341   5.109  20.429  0.00  0.00    +0.000 A 
ATOM      2  C   UNL     1       2.033   4.044  21.276  0.00  0.00    +0.000 A 
ATOM      3  C   UNL     1       2.555   2.771  21.031  0.00  0.00    +0.000 A 
ATOM      4  C   UNL     1       3.349   2.544  19.907  0.00  0.00    +0.000 A 
ATOM      5  C   UNL     1       3.633   3.591  19.033  0.00  0.00    +0.000 A 
ATOM      6  C   UNL     1       3.181   4.883  19.332  0.00  0.00    +0.000 A 
ENDROOT
BRANCH   1   9
ATOM      7  C   UNL     1       2.031   7.507  19.775  0.00  0.00    +0.000 C 
ATOM      8  O   UNL     1       2.754   7.525  18.785  0.00  0.00    +0.000 OA
ATOM      9  N   UNL     1       1.850   6.418  20.618  0.00  0.00    +0.000 N 
ATOM     10  H   UNL     1       1.384   6.636  21.494  0.00  0.00    +0.000 HD
BRANCH   7  16
ATOM     11  C   UNL     1       0.862   9.721  19.328  0.00  0.00    +0.000 A 
ATOM     12  N   UNL     1       0.200  10.815  19.771  0.00  0.00    +0.000 NA
ATOM     13  C   UNL     1       0.011  10.911  21.105  0.00  0.00    +0.000 A 
ATOM     14  C   UNL     1       0.471   9.954  21.994  0.00  0.00    +0.000 A 
ATOM     15  N   UNL     1       1.133   8.846  21.593  0.00  0.00    +0.000 NA
ATOM     16  C   UNL     1       1.309   8.742  20.233  0.00  0.00    +0.000 A 
BRANCH  11  17
ATOM     17  N   UNL     1       0.961   9.643  17.945  0.00  0.00    +0.000 N 
ATOM     18  H   UNL     1       0.167  10.110  17.521  0.00  0.00    +0.000 HD
ATOM     19  H   UNL     1       1.867   9.956  17.600  0.00  0.00    +0.000 HD
ENDBRANCH  11  17
ENDBRANCH   7  16
ENDBRANCH   1   9
BRANCH   5  20
ATOM     20  O   UNL     1       4.336   3.252  17.902  0.00  0.00    +0.000 OA
BRANCH  20  21
ATOM     21  C   UNL     1       4.549   4.342  17.000  0.00  0.00    +0.000 C 
BRANCH  21  22
ATOM     22  C   UNL     1       5.712   5.216  17.412  0.00  0.00    +0.000 A 
ATOM     23  C   UNL     1       5.732   6.561  16.999  0.00  0.00    +0.000 A 
ATOM     24  C   UNL     1       6.756   7.416  17.406  0.00  0.00    +0.000 A 
ATOM     25  C   UNL     1       7.755   6.932  18.237  0.00  0.00    +0.000 A 
ATOM     26  F   UNL     1       8.737   7.753  18.633  0.00  0.00    +0.000 F 
ATOM     27  C   UNL     1       7.753   5.611  18.665  0.00  0.00    +0.000 A 
ATOM     28  C   UNL     1       6.730   4.749  18.255  0.00  0.00    +0.000 A 
ENDBRANCH  21  22
ENDBRANCH  20  21
ENDBRANCH   5  20
TORSDOF 6
ENDMDL
MODEL 7
REMARK VINA RESULT:      -7.6      3.929      7.867
REMARK  Name = 
REMARK  6 active torsions:
REMARK  status: ('A' for Active; 'I' for Inactive)
REMARK    1  A    between atoms: N_1  and  C_2
REMARK    2  A    between atoms: C_7  and  C_8
REMARK    3  A    between atoms: N_10  and  C_11
REMARK    4  A    between atoms: C_15  and  O_16
REMARK    5  A    between atoms: O_16  and  C_17
REMARK    6  A    between atoms: C_17  and  C_18
REMARK                            x       y       z     vdW  Elec       q    Type
REMARK                         _______ _______ _______ _____ _____    ______ ____
ROOT
ATOM      1  C   UNL     1       2.068   5.356  20.459  0.00  0.00    +0.000 A 
ATOM      2  C   UNL     1       2.181   4.220  21.262  0.00  0.00    +0.000 A 
ATOM      3  C   UNL     1       2.741   3.046  20.751  0.00  0.00    +0.000 A 
ATOM      4  C   UNL     1       3.147   2.985  19.419  0.00  0.00    +0.000 A 
ATOM      5  C   UNL     1       3.005   4.101  18.596  0.00  0.00    +0.000 A 
ATOM      6  C   UNL     1       2.525   5.301  19.137  0.00  0.00    +0.000 A 
ENDROOT
BRANCH   1   9
ATOM      7  C   UNL     1       1.599   7.810  20.285  0.00  0.00    +0.000 C 
ATOM      8  O   UNL     1       2.276   8.059  19.293  0.00  0.00    +0.000 OA
ATOM      9  N   UNL     1       1.514   6.573  20.910  0.00  0.00    +0.000 N 
ATOM     10  H   UNL     1       1.076   6.593  21.826  0.00  0.00    +0.000 HD
BRANCH   7  16
ATOM     11  C   UNL     1       0.199   9.934  20.293  0.00  0.00    +0.000 A 
ATOM     12  N   UNL     1      -0.499  10.883  20.959  0.00  0.00    +0.000 NA
ATOM     13  C   UNL     1      -0.540  10.772  22.305  0.00  0.00    +0.000 A 
ATOM     14  C   UNL     1       0.099   9.753  22.991  0.00  0.00    +0.000 A 
ATOM     15  N   UNL     1       0.804   8.786  22.363  0.00  0.00    +0.000 NA
ATOM     16  C   UNL     1       0.830   8.889  20.992  0.00  0.00    +0.000 A 
BRANCH  11  17
ATOM     17  N   UNL     1       0.145  10.059  18.912  0.00  0.00    +0.000 N 
ATOM     18  H   UNL     1      -0.822  10.040  18.607  0.00  0.00    +0.000 HD
ATOM     19  H   UNL     1       0.679  10.856  18.570  0.00  0.00    +0.000 HD
ENDBRANCH  11  17
ENDBRANCH   7  16
ENDBRANCH   1   9
BRANCH   5  20
ATOM     20  O   UNL     1       3.337   3.917  17.275  0.00  0.00    +0.000 OA
BRANCH  20  21
ATOM     21  C   UNL     1       4.723   3.639  17.057  0.00  0.00    +0.000 C 
BRANCH  21  22
ATOM     22  C   UNL     1       5.606   4.832  17.348  0.00  0.00    +0.000 A 
ATOM     23  C   UNL     1       6.746   4.654  18.152  0.00  0.00    +0.000 A 
ATOM     24  C   UNL     1       7.619   5.715  18.397  0.00  0.00    +0.000 A 
ATOM     25  C   UNL     1       7.359   6.952  17.827  0.00  0.00    +0.000 A 
ATOM     26  F   UNL     1       8.199   7.971  18.055  0.00  0.00    +0.000 F 
ATOM     27  C   UNL     1       6.245   7.151  17.022  0.00  0.00    +0.000 A 
ATOM     28  C   UNL     1       5.365   6.090  16.779  0.00  0.00    +0.000 A 
ENDBRANCH  21  22
ENDBRANCH  20  21
ENDBRANCH   5  20
TORSDOF 6
ENDMDL
MODEL 8
REMARK VINA RESULT:      -7.5      3.840      7.717
REMARK  Name = 
REMARK  6 active torsions:
REMARK  status: ('A' for Active; 'I' for Inactive)
REMARK    1  A    between atoms: N_1  and  C_2
REMARK    2  A    between atoms: C_7  and  C_8
REMARK    3  A    between atoms: N_10  and  C_11
REMARK    4  A    between atoms: C_15  and  O_16
REMARK    5  A    between atoms: O_16  and  C_17
REMARK    6  A    between atoms: C_17  and  C_18
REMARK                            x       y       z     vdW  Elec       q    Type
REMARK                         _______ _______ _______ _____ _____    ______ ____
ROOT
ATOM      1  C   UNL     1       2.616   5.706  19.061  0.00  0.00    +0.000 A 
ATOM      2  C   UNL     1       1.979   4.932  18.090  0.00  0.00    +0.000 A 
ATOM      3  C   UNL     1       2.628   3.831  17.526  0.00  0.00    +0.000 A 
ATOM      4  C   UNL     1       3.938   3.525  17.892  0.00  0.00    +0.000 A 
ATOM      5  C   UNL     1       4.599   4.313  18.833  0.00  0.00    +0.000 A 
ATOM      6  C   UNL     1       3.913   5.362  19.460  0.00  0.00    +0.000 A 
ENDROOT
BRANCH   1   9
ATOM      7  C   UNL     1       1.943   8.116  19.156  0.00  0.00    +0.000 C 
ATOM      8  O   UNL     1       2.493   8.505  18.131  0.00  0.00    +0.000 OA
ATOM      9  N   UNL     1       2.020   6.830  19.672  0.00  0.00    +0.000 N 
ATOM     10  H   UNL     1       1.679   6.736  20.624  0.00  0.00    +0.000 HD
BRANCH   7  16
ATOM     11  C   UNL     1       0.423  10.128  19.494  0.00  0.00    +0.000 A 
ATOM     12  N   UNL     1      -0.274  10.954  20.308  0.00  0.00    +0.000 NA
ATOM     13  C   UNL     1      -0.200  10.705  21.634  0.00  0.00    +0.000 A 
ATOM     14  C   UNL     1       0.554   9.669  22.157  0.00  0.00    +0.000 A 
ATOM     15  N   UNL     1       1.262   8.820  21.380  0.00  0.00    +0.000 NA
ATOM     16  C   UNL     1       1.171   9.064  20.029  0.00  0.00    +0.000 A 
BRANCH  11  17
ATOM     17  N   UNL     1       0.250  10.388  18.142  0.00  0.00    +0.000 N 
ATOM     18  H   UNL     1       1.076  10.097  17.632  0.00  0.00    +0.000 HD
ATOM     19  H   UNL     1      -0.624  10.010  17.780  0.00  0.00    +0.000 HD
ENDBRANCH  11  17
ENDBRANCH   7  16
ENDBRANCH   1   9
BRANCH   5  20
ATOM     20  O   UNL     1       5.918   3.998  19.056  0.00  0.00    +0.000 OA
BRANCH  20  21
ATOM     21  C   UNL     1       6.790   4.348  17.977  0.00  0.00    +0.000 C 
BRANCH  21  22
ATOM     22  C   UNL     1       7.140   5.819  17.969  0.00  0.00    +0.000 A 
ATOM     23  C   UNL     1       8.088   6.297  18.892  0.00  0.00    +0.000 A 
ATOM     24  C   UNL     1       8.483   7.635  18.879  0.00  0.00    +0.000 A 
ATOM     25  C   UNL     1       7.941   8.495  17.936  0.00  0.00    +0.000 A 
ATOM     26  F   UNL     1       8.322   9.779  17.918  0.00  0.00    +0.000 F 
ATOM     27  C   UNL     1       7.010   8.044  17.009  0.00  0.00    +0.000 A 
ATOM     28  C   UNL     1       6.607   6.704  17.022  0.00  0.00    +0.000 A 
ENDBRANCH  21  22
ENDBRANCH  20  21
ENDBRANCH   5  20
TORSDOF 6
ENDMDL
MODEL 9
REMARK VINA RESULT:      -7.5      4.176      8.244
REMARK  Name = 
REMARK  6 active torsions:
REMARK  status: ('A' for Active; 'I' for Inactive)
REMARK    1  A    between atoms: N_1  and  C_2
REMARK    2  A    between atoms: C_7  and  C_8
REMARK    3  A    between atoms: N_10  and  C_11
REMARK    4  A    between atoms: C_15  and  O_16
REMARK    5  A    between atoms: O_16  and  C_17
REMARK    6  A    between atoms: C_17  and  C_18
REMARK                            x       y       z     vdW  Elec       q    Type
REMARK                         _______ _______ _______ _____ _____    ______ ____
ROOT
ATOM      1  C   UNL     1       2.289   5.513  20.389  0.00  0.00    +0.000 A 
ATOM      2  C   UNL     1       1.440   4.453  20.712  0.00  0.00    +0.000 A 
ATOM      3  C   UNL     1       1.874   3.132  20.574  0.00  0.00    +0.000 A 
ATOM      4  C   UNL     1       3.144   2.860  20.066  0.00  0.00    +0.000 A 
ATOM      5  C   UNL     1       3.987   3.909  19.705  0.00  0.00    +0.000 A 
ATOM      6  C   UNL     1       3.581   5.231  19.928  0.00  0.00    +0.000 A 
ENDROOT
BRANCH   1   9
ATOM      7  C   UNL     1       1.772   7.784  19.472  0.00  0.00    +0.000 C 
ATOM      8  O   UNL     1       2.065   7.583  18.298  0.00  0.00    +0.000 OA
ATOM      9  N   UNL     1       1.916   6.868  20.505  0.00  0.00    +0.000 N 
ATOM     10  H   UNL     1       1.820   7.263  21.436  0.00  0.00    +0.000 HD
BRANCH   7  16
ATOM     11  C   UNL     1       1.228  10.236  19.065  0.00  0.00    +0.000 A 
ATOM     12  N   UNL     1       0.771  11.430  19.506  0.00  0.00    +0.000 NA
ATOM     13  C   UNL     1       0.394  11.495  20.802  0.00  0.00    +0.000 A 
ATOM     14  C   UNL     1       0.472  10.409  21.657  0.00  0.00    +0.000 A 
ATOM     15  N   UNL     1       0.920   9.198  21.255  0.00  0.00    +0.000 NA
ATOM     16  C   UNL     1       1.287   9.129  19.931  0.00  0.00    +0.000 A 
BRANCH  11  17
ATOM     17  N   UNL     1       1.530  10.212  17.710  0.00  0.00    +0.000 N 
ATOM     18  H   UNL     1       1.002   9.475  17.257  0.00  0.00    +0.000 HD
ATOM     19  H   UNL     1       1.436  11.128  17.273  0.00  0.00    +0.000 HD
ENDBRANCH  11  17
ENDBRANCH   7  16
ENDBRANCH   1   9
BRANCH   5  20
ATOM     20  O   UNL     1       5.177   3.546  19.120  0.00  0.00    +0.000 OA
BRANCH  20  21
ATOM     21  C   UNL     1       5.922   4.644  18.586  0.00  0.00    +0.000 C 
BRANCH  21  22
ATOM     22  C   UNL     1       6.061   4.574  17.082  0.00  0.00    +0.000 A 
ATOM     23  C   UNL     1       7.253   5.029  16.488  0.00  0.00    +0.000 A 
ATOM     24  C   UNL     1       7.446   4.927  15.110  0.00  0.00    +0.000 A 
ATOM     25  C   UNL     1       6.454   4.358  14.325  0.00  0.00    +0.000 A 
ATOM     26  F   UNL     1       6.639   4.255  13.002  0.00  0.00    +0.000 F 
ATOM     27  C   UNL     1       5.273   3.894  14.890  0.00  0.00    +0.000 A 
ATOM     28  C   UNL     1       5.074   3.998  16.271  0.00  0.00    +0.000 A 
ENDBRANCH  21  22
ENDBRANCH  20  21
ENDBRANCH   5  20
TORSDOF 6
ENDMDL
