MODEL 1
REMARK VINA RESULT:      -8.0      0.000      0.000
REMARK  Name = 
REMARK  8 active torsions:
REMARK  status: ('A' for Active; 'I' for Inactive)
REMARK    1  A    between atoms: C_1  and  S_2
REMARK    2  A    between atoms: S_2  and  C_5
REMARK    3  A    between atoms: C_8  and  N_9
REMARK    4  A    between atoms: N_9  and  C_10
REMARK    5  A    between atoms: C_10  and  C_11
REMARK    6  A    between atoms: C_11  and  C_12
REMARK    7  A    between atoms: C_23  and  S_24
REMARK    8  A    between atoms: S_24  and  C_25
REMARK                            x       y       z     vdW  Elec       q    Type
REMARK                         _______ _______ _______ _____ _____    ______ ____
ROOT
ATOM      1  N   UNL     1       3.432   4.905  17.952  0.00  0.00    +0.000 N 
ATOM      2  H   UNL     1       3.929   4.172  18.471  0.00  0.00    +0.000 HD
ENDROOT
BRANCH   1   6
ATOM      3  C   UNL     1       1.473   7.626  20.485  0.00  0.00    +0.000 A 
ATOM      4  C   UNL     1       2.095   8.092  19.333  0.00  0.00    +0.000 A 
ATOM      5  C   UNL     1       2.770   7.192  18.506  0.00  0.00    +0.000 A 
ATOM      6  C   UNL     1       2.865   5.828  18.828  0.00  0.00    +0.000 A 
ATOM      7  C   UNL     1       2.250   5.397  20.018  0.00  0.00    +0.000 A 
ATOM      8  C   UNL     1       1.527   6.280  20.835  0.00  0.00    +0.000 A 
BRANCH   3  10
ATOM      9  C   UNL     1       0.250  10.101  20.432  0.00  0.00    +0.000 C 
ATOM     10  S   UNL     1       0.615   8.765  21.541  0.00  0.00    +0.000 S 
ATOM     11  O   UNL     1       1.560   9.229  22.536  0.00  0.00    +0.000 OA
ATOM     12  O   UNL     1      -0.633   8.139  21.932  0.00  0.00    +0.000 OA
ENDBRANCH   3  10
BRANCH   7  13
ATOM     13  S   UNL     1       2.478   3.728  20.625  0.00  0.00    +0.000 S 
ATOM     14  C   UNL     1       1.182   2.791  19.856  0.00  0.00    +0.000 C 
ATOM     15  O   UNL     1       3.756   3.241  20.120  0.00  0.00    +0.000 OA
ATOM     16  O   UNL     1       2.223   3.755  22.054  0.00  0.00    +0.000 OA
ENDBRANCH   7  13
ENDBRANCH   1   6
BRANCH   1  17
ATOM     17  C   UNL     1       4.066   5.301  16.693  0.00  0.00    +0.000 C 
BRANCH  17  18
ATOM     18  C   UNL     1       5.621   5.368  16.787  0.00  0.00    +0.000 C 
ATOM     19  C   UNL     1       6.167   4.542  17.976  0.00  0.00    +0.000 C 
ATOM     20  C   UNL     1       7.507   5.177  18.348  0.00  0.00    +0.000 C 
ATOM     21  C   UNL     1       7.512   6.575  17.736  0.00  0.00    +0.000 C 
ATOM     22  C   UNL     1       6.106   6.783  17.191  0.00  0.00    +0.000 C 
BRANCH  18  23
ATOM     23  C   UNL     1       6.164   4.868  15.424  0.00  0.00    +0.000 A 
ATOM     24  C   UNL     1       5.463   3.875  14.707  0.00  0.00    +0.000 A 
ATOM     25  C   UNL     1       5.795   3.554  13.386  0.00  0.00    +0.000 A 
ATOM     26  C   UNL     1       6.848   4.206  12.753  0.00  0.00    +0.000 A 
ATOM     27  C   UNL     1       7.588   5.147  13.459  0.00  0.00    +0.000 A 
ATOM     28 CL   UNL     1       8.882   5.973  12.679  0.00  0.00    +0.000 Cl
ATOM     29  C   UNL     1       7.262   5.466  14.781  0.00  0.00    +0.000 A 
ENDBRANCH  18  23
ENDBRANCH  17  18
ENDBRANCH   1  17
TORSDOF 6
ENDMDL
MODEL 2
REMARK VINA RESULT:      -8.0      2.931      5.131
REMARK  Name = 
REMARK  8 active torsions:
REMARK  status: ('A' for Active; 'I' for Inactive)
REMARK    1  A    between atoms: C_1  and  S_2
REMARK    2  A    between atoms: S_2  and  C_5
REMARK    3  A    between atoms: C_8  and  N_9
REMARK    4  A    between atoms: N_9  and  C_10
REMARK    5  A    between atoms: C_10  and  C_11
REMARK    6  A    between atoms: C_11  and  C_12
REMARK    7  A    between atoms: C_23  and  S_24
REMARK    8  A    between atoms: S_24  and  C_25
REMARK                            x       y       z     vdW  Elec       q    Type
REMARK                         _______ _______ _______ _____ _____    ______ ____
ROOT
ATOM      1  N   UNL     1       1.763   7.704  19.357  0.00  0.00    +0.000 N 
ATOM      2  H   UNL     1       2.019   7.425  20.311  0.00  0.00    +0.000 HD
ENDROOT
BRANCH   1   6
ATOM      3  C   UNL     1       1.073  11.833  18.988  0.00  0.00    +0.000 A 
ATOM      4  C   UNL     1       1.846  11.181  18.033  0.00  0.00    +0.000 A 
ATOM      5  C   UNL     1       2.099   9.815  18.172  0.00  0.00    +0.000 A 
ATOM      6  C   UNL     1       1.617   9.087  19.272  0.00  0.00    +0.000 A 
ATOM      7  C   UNL     1       0.863   9.785  20.234  0.00  0.00    +0.000 A 
ATOM      8  C   UNL     1       0.561  11.147  20.085  0.00  0.00    +0.000 A 
BRANCH   3  10
ATOM      9  C   UNL     1       0.606  14.090  20.509  0.00  0.00    +0.000 C 
ATOM     10  S   UNL     1       0.749  13.569  18.818  0.00  0.00    +0.000 S 
ATOM     11  O   UNL     1      -0.542  13.708  18.176  0.00  0.00    +0.000 OA
ATOM     12  O   UNL     1       1.935  14.179  18.249  0.00  0.00    +0.000 OA
ENDBRANCH   3  10
BRANCH   7  13
ATOM     13  S   UNL     1       0.373   9.005  21.769  0.00  0.00    +0.000 S 
ATOM     14  C   UNL     1      -0.480  10.278  22.665  0.00  0.00    +0.000 C 
ATOM     15  O   UNL     1      -0.584   7.953  21.449  0.00  0.00    +0.000 OA
ATOM     16  O   UNL     1       1.590   8.686  22.494  0.00  0.00    +0.000 OA
ENDBRANCH   7  13
ENDBRANCH   1   6
BRANCH   1  17
ATOM     17  C   UNL     1       2.391   6.912  18.299  0.00  0.00    +0.000 C 
BRANCH  17  18
ATOM     18  C   UNL     1       2.540   5.404  18.670  0.00  0.00    +0.000 C 
ATOM     19  C   UNL     1       1.486   4.524  17.956  0.00  0.00    +0.000 C 
ATOM     20  C   UNL     1       1.304   3.289  18.839  0.00  0.00    +0.000 C 
ATOM     21  C   UNL     1       1.851   3.653  20.216  0.00  0.00    +0.000 C 
ATOM     22  C   UNL     1       2.159   5.142  20.149  0.00  0.00    +0.000 C 
BRANCH  18  23
ATOM     23  C   UNL     1       3.991   5.004  18.299  0.00  0.00    +0.000 A 
ATOM     24  C   UNL     1       4.260   4.404  17.051  0.00  0.00    +0.000 A 
ATOM     25  C   UNL     1       5.569   4.227  16.591  0.00  0.00    +0.000 A 
ATOM     26  C   UNL     1       6.646   4.632  17.374  0.00  0.00    +0.000 A 
ATOM     27  C   UNL     1       6.405   5.174  18.631  0.00  0.00    +0.000 A 
ATOM     28 CL   UNL     1       7.729   5.696  19.601  0.00  0.00    +0.000 Cl
ATOM     29  C   UNL     1       5.098   5.346  19.096  0.00  0.00    +0.000 A 
ENDBRANCH  18  23
ENDBRANCH  17  18
ENDBRANCH   1  17
TORSDOF 6
ENDMDL
MODEL 3
REMARK VINA RESULT:      -8.0      3.558      7.941
REMARK  Name = 
REMARK  8 active torsions:
REMARK  status: ('A' for Active; 'I' for Inactive)
REMARK    1  A    between atoms: C_1  and  S_2
REMARK    2  A    between atoms: S_2  and  C_5
REMARK    3  A    between atoms: C_8  and  N_9
REMARK    4  A    between atoms: N_9  and  C_10
REMARK    5  A    between atoms: C_10  and  C_11
REMARK    6  A    between atoms: C_11  and  C_12
REMARK    7  A    between atoms: C_23  and  S_24
REMARK    8  A    between atoms: S_24  and  C_25
REMARK                            x       y       z     vdW  Elec       q    Type
REMARK                         _______ _______ _______ _____ _____    ______ ____
ROOT
ATOM      1  N   UNL     1       1.854   7.438  19.148  0.00  0.00    +0.000 N 
ATOM      2  H   UNL     1       1.016   6.866  18.999  0.00  0.00    +0.000 HD
ENDROOT
BRANCH   1   6
ATOM      3  C   UNL     1       5.342   5.764  17.507  0.00  0.00    +0.000 A 
ATOM      4  C   UNL     1       4.927   7.023  17.089  0.00  0.00    +0.000 A 
ATOM      5  C   UNL     1       3.753   7.567  17.613  0.00  0.00    +0.000 A 
ATOM      6  C   UNL     1       2.960   6.858  18.531  0.00  0.00    +0.000 A 
ATOM      7  C   UNL     1       3.395   5.573  18.908  0.00  0.00    +0.000 A 
ATOM      8  C   UNL     1       4.597   5.032  18.426  0.00  0.00    +0.000 A 
BRANCH   3  10
ATOM      9  C   UNL     1       6.205   3.869  15.693  0.00  0.00    +0.000 C 
ATOM     10  S   UNL     1       6.832   5.066  16.843  0.00  0.00    +0.000 S 
ATOM     11  O   UNL     1       7.502   4.371  17.922  0.00  0.00    +0.000 OA
ATOM     12  O   UNL     1       7.506   6.111  16.096  0.00  0.00    +0.000 OA
ENDBRANCH   3  10
BRANCH   7  13
ATOM     13  S   UNL     1       2.365   4.505  19.910  0.00  0.00    +0.000 S 
ATOM     14  C   UNL     1       3.328   3.030  20.127  0.00  0.00    +0.000 C 
ATOM     15  O   UNL     1       2.200   5.139  21.212  0.00  0.00    +0.000 OA
ATOM     16  O   UNL     1       1.200   4.166  19.113  0.00  0.00    +0.000 OA
ENDBRANCH   7  13
ENDBRANCH   1   6
BRANCH   1  17
ATOM     17  C   UNL     1       1.619   8.882  19.144  0.00  0.00    +0.000 C 
BRANCH  17  18
ATOM     18  C   UNL     1       0.567   9.333  20.205  0.00  0.00    +0.000 C 
ATOM     19  C   UNL     1       1.210  10.159  21.345  0.00  0.00    +0.000 C 
ATOM     20  C   UNL     1       0.300   9.976  22.560  0.00  0.00    +0.000 C 
ATOM     21  C   UNL     1      -0.548   8.737  22.286  0.00  0.00    +0.000 C 
ATOM     22  C   UNL     1       0.023   8.129  21.013  0.00  0.00    +0.000 C 
BRANCH  18  23
ATOM     23  C   UNL     1      -0.515  10.133  19.435  0.00  0.00    +0.000 A 
ATOM     24  C   UNL     1      -0.813  11.459  19.812  0.00  0.00    +0.000 A 
ATOM     25  C   UNL     1      -1.618  12.283  19.018  0.00  0.00    +0.000 A 
ATOM     26  C   UNL     1      -2.159  11.797  17.832  0.00  0.00    +0.000 A 
ATOM     27  C   UNL     1      -1.924  10.476  17.469  0.00  0.00    +0.000 A 
ATOM     28 CL   UNL     1      -2.574   9.869  15.994  0.00  0.00    +0.000 Cl
ATOM     29  C   UNL     1      -1.125   9.648  18.265  0.00  0.00    +0.000 A 
ENDBRANCH  18  23
ENDBRANCH  17  18
ENDBRANCH   1  17
TORSDOF 6
ENDMDL
MODEL 4
REMARK VINA RESULT:      -7.9      1.591      3.052
REMARK  Name = 
REMARK  8 active torsions:
REMARK  status: ('A' for Active; 'I' for Inactive)
REMARK    1  A    between atoms: C_1  and  S_2
REMARK    2  A    between atoms: S_2  and  C_5
REMARK    3  A    between atoms: C_8  and  N_9
REMARK    4  A    between atoms: N_9  and  C_10
REMARK    5  A    between atoms: C_10  and  C_11
REMARK    6  A    between atoms: C_11  and  C_12
REMARK    7  A    between atoms: C_23  and  S_24
REMARK    8  A    between atoms: S_24  and  C_25
REMARK                            x       y       z     vdW  Elec       q    Type
REMARK                         _______ _______ _______ _____ _____    ______ ____
ROOT
ATOM      1  N   UNL     1       3.001   6.087  17.652  0.00  0.00    +0.000 N 
ATOM      2  H   UNL     1       3.265   5.152  17.979  0.00  0.00    +0.000 HD
ENDROOT
BRANCH   1   6
ATOM      3  C   UNL     1       1.186   8.302  20.728  0.00  0.00    +0.000 A 
ATOM      4  C   UNL     1       1.606   8.953  19.573  0.00  0.00    +0.000 A 
ATOM      5  C   UNL     1       2.234   8.222  18.564  0.00  0.00    +0.000 A 
ATOM      6  C   UNL     1       2.484   6.846  18.699  0.00  0.00    +0.000 A 
ATOM      7  C   UNL     1       2.073   6.226  19.894  0.00  0.00    +0.000 A 
ATOM      8  C   UNL     1       1.398   6.937  20.898  0.00  0.00    +0.000 A 
BRANCH   3  10
ATOM      9  C   UNL     1      -0.111  10.701  21.163  0.00  0.00    +0.000 C 
ATOM     10  S   UNL     1       0.389   9.226  22.015  0.00  0.00    +0.000 S 
ATOM     11  O   UNL     1       1.402   9.571  22.991  0.00  0.00    +0.000 OA
ATOM     12  O   UNL     1      -0.802   8.494  22.402  0.00  0.00    +0.000 OA
ENDBRANCH   3  10
BRANCH   7  13
ATOM     13  S   UNL     1       2.519   4.531  20.257  0.00  0.00    +0.000 S 
ATOM     14  C   UNL     1       1.379   3.556  19.308  0.00  0.00    +0.000 C 
ATOM     15  O   UNL     1       3.860   4.301  19.734  0.00  0.00    +0.000 OA
ATOM     16  O   UNL     1       2.237   4.306  21.663  0.00  0.00    +0.000 OA
ENDBRANCH   7  13
ENDBRANCH   1   6
BRANCH   1  17
ATOM     17  C   UNL     1       3.888   6.653  16.634  0.00  0.00    +0.000 C 
BRANCH  17  18
ATOM     18  C   UNL     1       5.166   5.792  16.390  0.00  0.00    +0.000 C 
ATOM     19  C   UNL     1       5.662   5.892  14.927  0.00  0.00    +0.000 C 
ATOM     20  C   UNL     1       6.432   4.599  14.657  0.00  0.00    +0.000 C 
ATOM     21  C   UNL     1       5.999   3.601  15.728  0.00  0.00    +0.000 C 
ATOM     22  C   UNL     1       4.855   4.277  16.471  0.00  0.00    +0.000 C 
BRANCH  18  23
ATOM     23  C   UNL     1       6.227   6.286  17.407  0.00  0.00    +0.000 A 
ATOM     24  C   UNL     1       6.773   5.389  18.349  0.00  0.00    +0.000 A 
ATOM     25  C   UNL     1       7.879   5.735  19.133  0.00  0.00    +0.000 A 
ATOM     26  C   UNL     1       8.459   6.994  19.006  0.00  0.00    +0.000 A 
ATOM     27  C   UNL     1       7.902   7.913  18.125  0.00  0.00    +0.000 A 
ATOM     28 CL   UNL     1       8.622   9.467  17.947  0.00  0.00    +0.000 Cl
ATOM     29  C   UNL     1       6.793   7.572  17.344  0.00  0.00    +0.000 A 
ENDBRANCH  18  23
ENDBRANCH  17  18
ENDBRANCH   1  17
TORSDOF 6
ENDMDL
MODEL 5
REMARK VINA RESULT:      -7.9      1.064      1.386
REMARK  Name = 
REMARK  8 active torsions:
REMARK  status: ('A' for Active; 'I' for Inactive)
REMARK    1  A    between atoms: C_1  and  S_2
REMARK    2  A    between atoms: S_2  and  C_5
REMARK    3  A    between atoms: C_8  and  N_9
REMARK    4  A    between atoms: N_9  and  C_10
REMARK    5  A    between atoms: C_10  and  C_11
REMARK    6  A    between atoms: C_11  and  C_12
REMARK    7  A    between atoms: C_23  and  S_24
REMARK    8  A    between atoms: S_24  and  C_25
REMARK                            x       y       z     vdW  Elec       q    Type
REMARK                         _______ _______ _______ _____ _____    ______ ____
ROOT
ATOM      1  N   UNL     1       3.539   4.536  17.908  0.00  0.00    +0.000 N 
ATOM      2  H   UNL     1       4.140   3.900  18.444  0.00  0.00    +0.000 HD
ENDROOT
BRANCH   1   6
ATOM      3  C   UNL     1       1.583   7.368  20.318  0.00  0.00    +0.000 A 
ATOM      4  C   UNL     1       2.221   7.785  19.155  0.00  0.00    +0.000 A 
ATOM      5  C   UNL     1       2.895   6.848  18.370  0.00  0.00    +0.000 A 
ATOM      6  C   UNL     1       2.973   5.496  18.742  0.00  0.00    +0.000 A 
ATOM      7  C   UNL     1       2.341   5.115  19.941  0.00  0.00    +0.000 A 
ATOM      8  C   UNL     1       1.620   6.036  20.718  0.00  0.00    +0.000 A 
BRANCH   3  10
ATOM      9  C   UNL     1       0.438   9.877  20.174  0.00  0.00    +0.000 C 
ATOM     10  S   UNL     1       0.726   8.554  21.321  0.00  0.00    +0.000 S 
ATOM     11  O   UNL     1       1.653   9.011  22.337  0.00  0.00    +0.000 OA
ATOM     12  O   UNL     1      -0.552   7.974  21.684  0.00  0.00    +0.000 OA
ENDBRANCH   3  10
BRANCH   7  13
ATOM     13  S   UNL     1       2.546   3.469  20.613  0.00  0.00    +0.000 S 
ATOM     14  C   UNL     1       1.321   2.490  19.780  0.00  0.00    +0.000 C 
ATOM     15  O   UNL     1       3.863   2.986  20.215  0.00  0.00    +0.000 OA
ATOM     16  O   UNL     1       2.188   3.532  22.018  0.00  0.00    +0.000 OA
ENDBRANCH   7  13
ENDBRANCH   1   6
BRANCH   1  17
ATOM     17  C   UNL     1       4.025   4.849  16.563  0.00  0.00    +0.000 C 
BRANCH  17  18
ATOM     18  C   UNL     1       5.562   5.107  16.513  0.00  0.00    +0.000 C 
ATOM     19  C   UNL     1       6.337   4.184  17.484  0.00  0.00    +0.000 C 
ATOM     20  C   UNL     1       7.630   4.925  17.825  0.00  0.00    +0.000 C 
ATOM     21  C   UNL     1       7.402   6.390  17.464  0.00  0.00    +0.000 C 
ATOM     22  C   UNL     1       5.926   6.492  17.104  0.00  0.00    +0.000 C 
BRANCH  18  23
ATOM     23  C   UNL     1       5.993   4.903  15.038  0.00  0.00    +0.000 A 
ATOM     24  C   UNL     1       7.277   5.305  14.616  0.00  0.00    +0.000 A 
ATOM     25  C   UNL     1       7.781   4.946  13.361  0.00  0.00    +0.000 A 
ATOM     26  C   UNL     1       7.007   4.188  12.488  0.00  0.00    +0.000 A 
ATOM     27  C   UNL     1       5.718   3.828  12.861  0.00  0.00    +0.000 A 
ATOM     28 CL   UNL     1       4.757   2.874  11.797  0.00  0.00    +0.000 Cl
ATOM     29  C   UNL     1       5.209   4.191  14.113  0.00  0.00    +0.000 A 
ENDBRANCH  18  23
ENDBRANCH  17  18
ENDBRANCH   1  17
TORSDOF 6
ENDMDL
MODEL 6
REMARK VINA RESULT:      -7.8      2.860      5.250
REMARK  Name = 
REMARK  8 active torsions:
REMARK  status: ('A' for Active; 'I' for Inactive)
REMARK    1  A    between atoms: C_1  and  S_2
REMARK    2  A    between atoms: S_2  and  C_5
REMARK    3  A    between atoms: C_8  and  N_9
REMARK    4  A    between atoms: N_9  and  C_10
REMARK    5  A    between atoms: C_10  and  C_11
REMARK    6  A    between atoms: C_11  and  C_12
REMARK    7  A    between atoms: C_23  and  S_24
REMARK    8  A    between atoms: S_24  and  C_25
REMARK                            x       y       z     vdW  Elec       q    Type
REMARK                         _______ _______ _______ _____ _____    ______ ____
ROOT
ATOM      1  N   UNL     1       1.752   8.074  19.397  0.00  0.00    +0.000 N 
ATOM      2  H   UNL     1       2.115   7.777  20.309  0.00  0.00    +0.000 HD
ENDROOT
BRANCH   1   6
ATOM      3  C   UNL     1       1.118  12.220  19.138  0.00  0.00    +0.000 A 
ATOM      4  C   UNL     1       1.849  11.577  18.145  0.00  0.00    +0.000 A 
ATOM      5  C   UNL     1       2.083  10.205  18.246  0.00  0.00    +0.000 A 
ATOM      6  C   UNL     1       1.626   9.460  19.345  0.00  0.00    +0.000 A 
ATOM      7  C   UNL     1       0.916  10.149  20.347  0.00  0.00    +0.000 A 
ATOM      8  C   UNL     1       0.632  11.519  20.238  0.00  0.00    +0.000 A 
BRANCH   3  10
ATOM      9  C   UNL     1       0.641  14.433  20.720  0.00  0.00    +0.000 C 
ATOM     10  S   UNL     1       0.817  13.964  19.017  0.00  0.00    +0.000 S 
ATOM     11  O   UNL     1      -0.457  14.138  18.351  0.00  0.00    +0.000 OA
ATOM     12  O   UNL     1       2.023  14.578  18.495  0.00  0.00    +0.000 OA
ENDBRANCH   3  10
BRANCH   7  13
ATOM     13  S   UNL     1       0.465   9.343  21.881  0.00  0.00    +0.000 S 
ATOM     14  C   UNL     1      -0.563  10.523  22.720  0.00  0.00    +0.000 C 
ATOM     15  O   UNL     1      -0.350   8.181  21.550  0.00  0.00    +0.000 OA
ATOM     16  O   UNL     1       1.683   9.182  22.654  0.00  0.00    +0.000 OA
ENDBRANCH   7  13
ENDBRANCH   1   6
BRANCH   1  17
ATOM     17  C   UNL     1       2.231   7.285  18.260  0.00  0.00    +0.000 C 
BRANCH  17  18
ATOM     18  C   UNL     1       2.491   5.789  18.621  0.00  0.00    +0.000 C 
ATOM     19  C   UNL     1       1.524   4.837  17.875  0.00  0.00    +0.000 C 
ATOM     20  C   UNL     1       1.421   3.582  18.742  0.00  0.00    +0.000 C 
ATOM     21  C   UNL     1       1.908   3.972  20.135  0.00  0.00    +0.000 C 
ATOM     22  C   UNL     1       2.100   5.482  20.088  0.00  0.00    +0.000 C 
BRANCH  18  23
ATOM     23  C   UNL     1       3.976   5.508  18.278  0.00  0.00    +0.000 A 
ATOM     24  C   UNL     1       4.967   5.643  19.272  0.00  0.00    +0.000 A 
ATOM     25  C   UNL     1       6.276   5.193  19.067  0.00  0.00    +0.000 A 
ATOM     26  C   UNL     1       6.632   4.610  17.855  0.00  0.00    +0.000 A 
ATOM     27  C   UNL     1       5.686   4.517  16.842  0.00  0.00    +0.000 A 
ATOM     28 CL   UNL     1       6.111   3.781  15.344  0.00  0.00    +0.000 Cl
ATOM     29  C   UNL     1       4.378   4.972  17.042  0.00  0.00    +0.000 A 
ENDBRANCH  18  23
ENDBRANCH  17  18
ENDBRANCH   1  17
TORSDOF 6
ENDMDL
MODEL 7
REMARK VINA RESULT:      -7.8      3.603      7.924
REMARK  Name = 
REMARK  8 active torsions:
REMARK  status: ('A' for Active; 'I' for Inactive)
REMARK    1  A    between atoms: C_1  and  S_2
REMARK    2  A    between atoms: S_2  and  C_5
REMARK    3  A    between atoms: C_8  and  N_9
REMARK    4  A    between atoms: N_9  and  C_10
REMARK    5  A    between atoms: C_10  and  C_11
REMARK    6  A    between atoms: C_11  and  C_12
REMARK    7  A    between atoms: C_23  and  S_24
REMARK    8  A    between atoms: S_24  and  C_25
REMARK                            x       y       z     vdW  Elec       q    Type
REMARK                         _______ _______ _______ _____ _____    ______ ____
ROOT
ATOM      1  N   UNL     1       2.000   7.382  19.304  0.00  0.00    +0.000 N 
ATOM      2  H   UNL     1       1.148   6.811  19.286  0.00  0.00    +0.000 HD
ENDROOT
BRANCH   1   6
ATOM      3  C   UNL     1       5.230   5.648  17.250  0.00  0.00    +0.000 A 
ATOM      4  C   UNL     1       4.765   6.899  16.860  0.00  0.00    +0.000 A 
ATOM      5  C   UNL     1       3.674   7.462  17.525  0.00  0.00    +0.000 A 
ATOM      6  C   UNL     1       3.011   6.781  18.558  0.00  0.00    +0.000 A 
ATOM      7  C   UNL     1       3.489   5.504  18.906  0.00  0.00    +0.000 A 
ATOM      8  C   UNL     1       4.614   4.943  18.280  0.00  0.00    +0.000 A 
BRANCH   3  10
ATOM      9  C   UNL     1       7.700   4.521  17.754  0.00  0.00    +0.000 C 
ATOM     10  S   UNL     1       6.615   4.925  16.409  0.00  0.00    +0.000 S 
ATOM     11  O   UNL     1       7.228   5.968  15.611  0.00  0.00    +0.000 OA
ATOM     12  O   UNL     1       6.159   3.691  15.800  0.00  0.00    +0.000 OA
ENDBRANCH   3  10
BRANCH   7  13
ATOM     13  S   UNL     1       2.602   4.467  20.064  0.00  0.00    +0.000 S 
ATOM     14  C   UNL     1       1.170   3.920  19.169  0.00  0.00    +0.000 C 
ATOM     15  O   UNL     1       3.434   3.304  20.350  0.00  0.00    +0.000 OA
ATOM     16  O   UNL     1       2.152   5.323  21.147  0.00  0.00    +0.000 OA
ENDBRANCH   7  13
ENDBRANCH   1   6
BRANCH   1  17
ATOM     17  C   UNL     1       1.769   8.828  19.294  0.00  0.00    +0.000 C 
BRANCH  17  18
ATOM     18  C   UNL     1       0.677   9.279  20.313  0.00  0.00    +0.000 C 
ATOM     19  C   UNL     1       1.290   9.993  21.542  0.00  0.00    +0.000 C 
ATOM     20  C   UNL     1       0.292   9.794  22.683  0.00  0.00    +0.000 C 
ATOM     21  C   UNL     1      -0.608   8.630  22.277  0.00  0.00    +0.000 C 
ATOM     22  C   UNL     1       0.009   8.065  21.006  0.00  0.00    +0.000 C 
BRANCH  18  23
ATOM     23  C   UNL     1      -0.302  10.191  19.530  0.00  0.00    +0.000 A 
ATOM     24  C   UNL     1      -0.142  11.592  19.565  0.00  0.00    +0.000 A 
ATOM     25  C   UNL     1      -0.861  12.433  18.708  0.00  0.00    +0.000 A 
ATOM     26  C   UNL     1      -1.771  11.895  17.804  0.00  0.00    +0.000 A 
ATOM     27  C   UNL     1      -1.986  10.522  17.791  0.00  0.00    +0.000 A 
ATOM     28 CL   UNL     1      -3.097   9.844  16.664  0.00  0.00    +0.000 Cl
ATOM     29  C   UNL     1      -1.273   9.680  18.651  0.00  0.00    +0.000 A 
ENDBRANCH  18  23
ENDBRANCH  17  18
ENDBRANCH   1  17
TORSDOF 6
ENDMDL
MODEL 8
REMARK VINA RESULT:      -7.8      2.784      4.801
REMARK  Name = 
REMARK  8 active torsions:
REMARK  status: ('A' for Active; 'I' for Inactive)
REMARK    1  A    between atoms: C_1  and  S_2
REMARK    2  A    between atoms: S_2  and  C_5
REMARK    3  A    between atoms: C_8  and  N_9
REMARK    4  A    between atoms: N_9  and  C_10
REMARK    5  A    between atoms: C_10  and  C_11
REMARK    6  A    between atoms: C_11  and  C_12
REMARK    7  A    between atoms: C_23  and  S_24
REMARK    8  A    between atoms: S_24  and  C_25
REMARK                            x       y       z     vdW  Elec       q    Type
REMARK                         _______ _______ _______ _____ _____    ______ ____
ROOT
ATOM      1  N   UNL     1       2.250   7.709  19.332  0.00  0.00    +0.000 N 
ATOM      2  H   UNL     1       2.914   7.812  20.107  0.00  0.00    +0.000 HD
ENDROOT
BRANCH   1   6
ATOM      3  C   UNL     1      -0.251  11.047  18.819  0.00  0.00    +0.000 A 
ATOM      4  C   UNL     1       0.516  10.596  17.750  0.00  0.00    +0.000 A 
ATOM      5  C   UNL     1       1.367   9.505  17.929  0.00  0.00    +0.000 A 
ATOM      6  C   UNL     1       1.495   8.868  19.174  0.00  0.00    +0.000 A 
ATOM      7  C   UNL     1       0.727   9.370  20.242  0.00  0.00    +0.000 A 
ATOM      8  C   UNL     1      -0.169  10.436  20.067  0.00  0.00    +0.000 A 
BRANCH   3  10
ATOM      9  C   UNL     1      -1.853  12.771  20.262  0.00  0.00    +0.000 C 
ATOM     10  S   UNL     1      -1.334  12.434  18.599  0.00  0.00    +0.000 S 
ATOM     11  O   UNL     1      -2.477  11.974  17.837  0.00  0.00    +0.000 OA
ATOM     12  O   UNL     1      -0.527  13.547  18.136  0.00  0.00    +0.000 OA
ENDBRANCH   3  10
BRANCH   7  13
ATOM     13  S   UNL     1       0.960   8.768  21.911  0.00  0.00    +0.000 S 
ATOM     14  C   UNL     1      -0.526   9.231  22.765  0.00  0.00    +0.000 C 
ATOM     15  O   UNL     1       1.020   7.313  21.856  0.00  0.00    +0.000 OA
ATOM     16  O   UNL     1       2.060   9.520  22.488  0.00  0.00    +0.000 OA
ENDBRANCH   7  13
ENDBRANCH   1   6
BRANCH   1  17
ATOM     17  C   UNL     1       2.751   6.935  18.195  0.00  0.00    +0.000 C 
BRANCH  17  18
ATOM     18  C   UNL     1       2.866   5.408  18.498  0.00  0.00    +0.000 C 
ATOM     19  C   UNL     1       1.797   4.585  17.739  0.00  0.00    +0.000 C 
ATOM     20  C   UNL     1       1.583   3.315  18.564  0.00  0.00    +0.000 C 
ATOM     21  C   UNL     1       2.131   3.604  19.959  0.00  0.00    +0.000 C 
ATOM     22  C   UNL     1       2.471   5.087  19.961  0.00  0.00    +0.000 C 
BRANCH  18  23
ATOM     23  C   UNL     1       4.310   4.994  18.115  0.00  0.00    +0.000 A 
ATOM     24  C   UNL     1       4.560   4.374  16.872  0.00  0.00    +0.000 A 
ATOM     25  C   UNL     1       5.863   4.183  16.399  0.00  0.00    +0.000 A 
ATOM     26  C   UNL     1       6.950   4.593  17.163  0.00  0.00    +0.000 A 
ATOM     27  C   UNL     1       6.729   5.155  18.414  0.00  0.00    +0.000 A 
ATOM     28 CL   UNL     1       8.067   5.683  19.361  0.00  0.00    +0.000 Cl
ATOM     29  C   UNL     1       5.428   5.342  18.893  0.00  0.00    +0.000 A 
ENDBRANCH  18  23
ENDBRANCH  17  18
ENDBRANCH   1  17
TORSDOF 6
ENDMDL
MODEL 9
REMARK VINA RESULT:      -7.8      3.369      5.114
REMARK  Name = 
REMARK  8 active torsions:
REMARK  status: ('A' for Active; 'I' for Inactive)
REMARK    1  A    between atoms: C_1  and  S_2
REMARK    2  A    between atoms: S_2  and  C_5
REMARK    3  A    between atoms: C_8  and  N_9
REMARK    4  A    between atoms: N_9  and  C_10
REMARK    5  A    between atoms: C_10  and  C_11
REMARK    6  A    between atoms: C_11  and  C_12
REMARK    7  A    between atoms: C_23  and  S_24
REMARK    8  A    between atoms: S_24  and  C_25
REMARK                            x       y       z     vdW  Elec       q    Type
REMARK                         _______ _______ _______ _____ _____    ______ ____
ROOT
ATOM      1  N   UNL     1       2.153   7.242  20.116  0.00  0.00    +0.000 N 
ATOM      2  H   UNL     1       3.066   7.615  19.836  0.00  0.00    +0.000 HD
ENDROOT
BRANCH   1   6
ATOM      3  C   UNL     1      -0.103  10.447  21.633  0.00  0.00    +0.000 A 
ATOM      4  C   UNL     1       0.005   9.276  22.375  0.00  0.00    +0.000 A 
ATOM      5  C   UNL     1       0.731   8.202  21.858  0.00  0.00    +0.000 A 
ATOM      6  C   UNL     1       1.330   8.262  20.589  0.00  0.00    +0.000 A 
ATOM      7  C   UNL     1       1.174   9.451  19.852  0.00  0.00    +0.000 A 
ATOM      8  C   UNL     1       0.488  10.557  20.377  0.00  0.00    +0.000 A 
BRANCH   3  10
ATOM      9  C   UNL     1      -2.050  12.265  20.905  0.00  0.00    +0.000 C 
ATOM     10  S   UNL     1      -1.025  11.816  22.283  0.00  0.00    +0.000 S 
ATOM     11  O   UNL     1      -0.086  12.889  22.536  0.00  0.00    +0.000 OA
ATOM     12  O   UNL     1      -1.876  11.304  23.340  0.00  0.00    +0.000 OA
ENDBRANCH   3  10
BRANCH   7  13
ATOM     13  S   UNL     1       1.720   9.564  18.151  0.00  0.00    +0.000 S 
ATOM     14  C   UNL     1       2.118  11.279  17.922  0.00  0.00    +0.000 C 
ATOM     15  O   UNL     1       2.948   8.790  18.025  0.00  0.00    +0.000 OA
ATOM     16  O   UNL     1       0.575   9.254  17.314  0.00  0.00    +0.000 OA
ENDBRANCH   7  13
ENDBRANCH   1   6
BRANCH   1  17
ATOM     17  C   UNL     1       1.653   6.152  19.277  0.00  0.00    +0.000 C 
BRANCH  17  18
ATOM     18  C   UNL     1       2.191   4.753  19.707  0.00  0.00    +0.000 C 
ATOM     19  C   UNL     1       1.167   3.626  19.426  0.00  0.00    +0.000 C 
ATOM     20  C   UNL     1       1.488   2.510  20.421  0.00  0.00    +0.000 C 
ATOM     21  C   UNL     1       2.325   3.142  21.529  0.00  0.00    +0.000 C 
ATOM     22  C   UNL     1       2.307   4.637  21.248  0.00  0.00    +0.000 C 
BRANCH  18  23
ATOM     23  C   UNL     1       3.523   4.542  18.944  0.00  0.00    +0.000 A 
ATOM     24  C   UNL     1       3.514   3.977  17.651  0.00  0.00    +0.000 A 
ATOM     25  C   UNL     1       4.659   3.969  16.847  0.00  0.00    +0.000 A 
ATOM     26  C   UNL     1       5.848   4.513  17.321  0.00  0.00    +0.000 A 
ATOM     27  C   UNL     1       5.895   5.025  18.612  0.00  0.00    +0.000 A 
ATOM     28 CL   UNL     1       7.357   5.718  19.202  0.00  0.00    +0.000 Cl
ATOM     29  C   UNL     1       4.753   5.028  19.420  0.00  0.00    +0.000 A 
ENDBRANCH  18  23
ENDBRANCH  17  18
ENDBRANCH   1  17
TORSDOF 6
ENDMDL
