MODEL 1
REMARK VINA RESULT:      -8.9      0.000      0.000
REMARK  Name = 
REMARK  5 active torsions:
REMARK  status: ('A' for Active; 'I' for Inactive)
REMARK    1  A    between atoms: C_1  and  C_2
REMARK    2  A    between atoms: C_2  and  C_3
REMARK    3  A    between atoms: C_10  and  C_11
REMARK    4  A    between atoms: C_16  and  N_17
REMARK    5  A    between atoms: C_21  and  C_22
REMARK                            x       y       z     vdW  Elec       q    Type
REMARK                         _______ _______ _______ _____ _____    ______ ____
ROOT
ATOM      1  C   UNL     1       2.071   6.509  20.013  0.00  0.00    +0.000 C 
ATOM      2  O   UNL     1       1.915   5.955  21.103  0.00  0.00    +0.000 OA
ATOM      3  N   UNL     1       1.576   7.789  19.747  0.00  0.00    +0.000 N 
ATOM      4  C   UNL     1       1.112   8.560  20.898  0.00  0.00    +0.000 C 
ATOM      5  C   UNL     1      -0.089   9.430  20.550  0.00  0.00    +0.000 C 
ATOM      6  C   UNL     1       0.154  10.365  19.338  0.00  0.00    +0.000 C 
ATOM      7  C   UNL     1       0.673   9.458  18.188  0.00  0.00    +0.000 C 
ATOM      8  C   UNL     1       1.878   8.602  18.573  0.00  0.00    +0.000 C 
ENDROOT
BRANCH   1  18
ATOM      9  C   UNL     1       7.381   5.469  19.145  0.00  0.00    +0.000 C 
ATOM     10  C   UNL     1       6.570   5.739  17.879  0.00  0.00    +0.000 C 
ATOM     11  C   UNL     1       6.807   7.146  17.335  0.00  0.00    +0.000 C 
ATOM     12  C   UNL     1       6.866   4.679  16.790  0.00  0.00    +0.000 C 
ATOM     13  O   UNL     1       7.940   4.450  16.256  0.00  0.00    +0.000 OA
ATOM     14  N   UNL     1       5.668   4.022  16.508  0.00  0.00    +0.000 N 
ATOM     15  C   UNL     1       4.622   4.500  17.285  0.00  0.00    +0.000 A 
ATOM     16  C   UNL     1       3.310   4.088  17.312  0.00  0.00    +0.000 A 
ATOM     17  C   UNL     1       2.444   4.725  18.214  0.00  0.00    +0.000 A 
ATOM     18  C   UNL     1       2.904   5.782  19.027  0.00  0.00    +0.000 A 
ATOM     19  C   UNL     1       4.251   6.159  18.995  0.00  0.00    +0.000 A 
ATOM     20  C   UNL     1       5.097   5.511  18.116  0.00  0.00    +0.000 A 
ATOM     21  H   UNL     1       5.604   3.280  15.828  0.00  0.00    +0.000 HD
ENDBRANCH   1  18
BRANCH   6  22
ATOM     22  N   UNL     1       1.042  11.525  19.641  0.00  0.00    +0.000 NA
ATOM     23  C   UNL     1       0.789  12.122  20.975  0.00  0.00    +0.000 C 
ATOM     24  C   UNL     1      -0.314  13.142  20.781  0.00  0.00    +0.000 C 
ATOM     25  C   UNL     1       0.015  13.757  19.439  0.00  0.00    +0.000 C 
ATOM     26  C   UNL     1       0.813  12.683  18.696  0.00  0.00    +0.000 C 
BRANCH  26  27
ATOM     27  C   UNL     1       2.154  13.263  18.204  0.00  0.00    +0.000 C 
ATOM     28  N   UNL     1       2.937  12.414  17.481  0.00  0.00    +0.000 N 
ATOM     29  O   UNL     1       2.514  14.414  18.433  0.00  0.00    +0.000 OA
ATOM     30  H   UNL     1       2.631  11.454  17.364  0.00  0.00    +0.000 HD
ATOM     31  H   UNL     1       3.851  12.714  17.173  0.00  0.00    +0.000 HD
ENDBRANCH  26  27
ENDBRANCH   6  22
TORSDOF 3
ENDMDL
MODEL 2
REMARK VINA RESULT:      -7.4      2.223      3.044
REMARK  Name = 
REMARK  5 active torsions:
REMARK  status: ('A' for Active; 'I' for Inactive)
REMARK    1  A    between atoms: C_1  and  C_2
REMARK    2  A    between atoms: C_2  and  C_3
REMARK    3  A    between atoms: C_10  and  C_11
REMARK    4  A    between atoms: C_16  and  N_17
REMARK    5  A    between atoms: C_21  and  C_22
REMARK                            x       y       z     vdW  Elec       q    Type
REMARK                         _______ _______ _______ _____ _____    ______ ____
ROOT
ATOM      1  C   UNL     1       1.298   8.124  20.822  0.00  0.00    +0.000 C 
ATOM      2  O   UNL     1       1.216   7.733  21.988  0.00  0.00    +0.000 OA
ATOM      3  N   UNL     1       0.893   9.403  20.431  0.00  0.00    +0.000 N 
ATOM      4  C   UNL     1       0.633  10.360  21.505  0.00  0.00    +0.000 C 
ATOM      5  C   UNL     1      -0.516  11.299  21.161  0.00  0.00    +0.000 C 
ATOM      6  C   UNL     1      -0.328  12.040  19.813  0.00  0.00    +0.000 C 
ATOM      7  C   UNL     1      -0.026  10.944  18.754  0.00  0.00    +0.000 C 
ATOM      8  C   UNL     1       1.133  10.024  19.132  0.00  0.00    +0.000 C 
ENDROOT
BRANCH   1  18
ATOM      9  C   UNL     1       0.863   2.872  19.320  0.00  0.00    +0.000 C 
ATOM     10  C   UNL     1       2.296   3.399  19.384  0.00  0.00    +0.000 C 
ATOM     11  C   UNL     1       3.025   2.928  20.641  0.00  0.00    +0.000 C 
ATOM     12  C   UNL     1       3.093   3.006  18.116  0.00  0.00    +0.000 C 
ATOM     13  O   UNL     1       3.346   1.879  17.723  0.00  0.00    +0.000 OA
ATOM     14  N   UNL     1       3.489   4.188  17.489  0.00  0.00    +0.000 N 
ATOM     15  C   UNL     1       3.041   5.310  18.171  0.00  0.00    +0.000 A 
ATOM     16  C   UNL     1       3.209   6.638  17.850  0.00  0.00    +0.000 A 
ATOM     17  C   UNL     1       2.631   7.592  18.702  0.00  0.00    +0.000 A 
ATOM     18  C   UNL     1       1.946   7.194  19.869  0.00  0.00    +0.000 A 
ATOM     19  C   UNL     1       1.770   5.835  20.152  0.00  0.00    +0.000 A 
ATOM     20  C   UNL     1       2.327   4.905  19.295  0.00  0.00    +0.000 A 
ATOM     21  H   UNL     1       4.023   4.194  16.633  0.00  0.00    +0.000 HD
ENDBRANCH   1  18
BRANCH   6  22
ATOM     22  N   UNL     1       0.689  13.130  19.862  0.00  0.00    +0.000 NA
ATOM     23  C   UNL     1       0.337  14.214  20.811  0.00  0.00    +0.000 C 
ATOM     24  C   UNL     1      -0.528  15.189  20.040  0.00  0.00    +0.000 C 
ATOM     25  C   UNL     1       0.107  15.207  18.668  0.00  0.00    +0.000 C 
ATOM     26  C   UNL     1       0.813  13.856  18.541  0.00  0.00    +0.000 C 
BRANCH  26  27
ATOM     27  C   UNL     1       2.294  14.063  18.167  0.00  0.00    +0.000 C 
ATOM     28  N   UNL     1       2.960  12.953  17.739  0.00  0.00    +0.000 N 
ATOM     29  O   UNL     1       2.861  15.151  18.238  0.00  0.00    +0.000 OA
ATOM     30  H   UNL     1       2.473  12.063  17.752  0.00  0.00    +0.000 HD
ATOM     31  H   UNL     1       3.945  13.010  17.529  0.00  0.00    +0.000 HD
ENDBRANCH  26  27
ENDBRANCH   6  22
TORSDOF 3
ENDMDL
MODEL 3
REMARK VINA RESULT:      -7.0      5.106      8.710
REMARK  Name = 
REMARK  5 active torsions:
REMARK  status: ('A' for Active; 'I' for Inactive)
REMARK    1  A    between atoms: C_1  and  C_2
REMARK    2  A    between atoms: C_2  and  C_3
REMARK    3  A    between atoms: C_10  and  C_11
REMARK    4  A    between atoms: C_16  and  N_17
REMARK    5  A    between atoms: C_21  and  C_22
REMARK                            x       y       z     vdW  Elec       q    Type
REMARK                         _______ _______ _______ _____ _____    ______ ____
ROOT
ATOM      1  C   UNL     1       2.856  14.506  21.029  0.00  0.00    +0.000 C 
ATOM      2  O   UNL     1       2.569  14.530  22.227  0.00  0.00    +0.000 OA
ATOM      3  N   UNL     1       4.156  14.729  20.566  0.00  0.00    +0.000 N 
ATOM      4  C   UNL     1       5.217  14.711  21.571  0.00  0.00    +0.000 C 
ATOM      5  C   UNL     1       6.316  15.716  21.252  0.00  0.00    +0.000 C 
ATOM      6  C   UNL     1       6.916  15.547  19.833  0.00  0.00    +0.000 C 
ATOM      7  C   UNL     1       5.712  15.546  18.851  0.00  0.00    +0.000 C 
ATOM      8  C   UNL     1       4.632  14.525  19.201  0.00  0.00    +0.000 C 
ENDROOT
BRANCH   1  18
ATOM      9  C   UNL     1      -0.497  10.248  20.218  0.00  0.00    +0.000 C 
ATOM     10  C   UNL     1       0.007  10.914  18.939  0.00  0.00    +0.000 C 
ATOM     11  C   UNL     1       1.117  10.104  18.270  0.00  0.00    +0.000 C 
ATOM     12  C   UNL     1      -1.154  11.166  17.946  0.00  0.00    +0.000 C 
ATOM     13  O   UNL     1      -1.876  10.331  17.427  0.00  0.00    +0.000 OA
ATOM     14  N   UNL     1      -1.230  12.543  17.733  0.00  0.00    +0.000 N 
ATOM     15  C   UNL     1      -0.279  13.233  18.472  0.00  0.00    +0.000 A 
ATOM     16  C   UNL     1      -0.062  14.590  18.545  0.00  0.00    +0.000 A 
ATOM     17  C   UNL     1       0.960  15.042  19.394  0.00  0.00    +0.000 A 
ATOM     18  C   UNL     1       1.762  14.126  20.106  0.00  0.00    +0.000 A 
ATOM     19  C   UNL     1       1.498  12.754  20.030  0.00  0.00    +0.000 A 
ATOM     20  C   UNL     1       0.476  12.323  19.206  0.00  0.00    +0.000 A 
ATOM     21  H   UNL     1      -1.916  12.960  17.122  0.00  0.00    +0.000 HD
ENDBRANCH   1  18
BRANCH   6  22
ATOM     22  N   UNL     1       7.812  14.362  19.695  0.00  0.00    +0.000 NA
ATOM     23  C   UNL     1       8.751  14.204  20.832  0.00  0.00    +0.000 C 
ATOM     24  C   UNL     1       9.968  15.040  20.496  0.00  0.00    +0.000 C 
ATOM     25  C   UNL     1      10.132  14.832  19.007  0.00  0.00    +0.000 C 
ATOM     26  C   UNL     1       8.732  14.477  18.500  0.00  0.00    +0.000 C 
BRANCH  26  27
ATOM     27  C   UNL     1       8.773  13.154  17.711  0.00  0.00    +0.000 C 
ATOM     28  N   UNL     1       7.646  12.847  17.009  0.00  0.00    +0.000 N 
ATOM     29  O   UNL     1       9.749  12.409  17.696  0.00  0.00    +0.000 OA
ATOM     30  H   UNL     1       6.841  13.458  17.094  0.00  0.00    +0.000 HD
ATOM     31  H   UNL     1       7.588  11.970  16.512  0.00  0.00    +0.000 HD
ENDBRANCH  26  27
ENDBRANCH   6  22
TORSDOF 3
ENDMDL
MODEL 4
REMARK VINA RESULT:      -6.9      2.829      8.641
REMARK  Name = 
REMARK  5 active torsions:
REMARK  status: ('A' for Active; 'I' for Inactive)
REMARK    1  A    between atoms: C_1  and  C_2
REMARK    2  A    between atoms: C_2  and  C_3
REMARK    3  A    between atoms: C_10  and  C_11
REMARK    4  A    between atoms: C_16  and  N_17
REMARK    5  A    between atoms: C_21  and  C_22
REMARK                            x       y       z     vdW  Elec       q    Type
REMARK                         _______ _______ _______ _____ _____    ______ ____
ROOT
ATOM      1  C   UNL     1       2.251   8.924  17.888  0.00  0.00    +0.000 C 
ATOM      2  O   UNL     1       3.172   9.695  17.613  0.00  0.00    +0.000 OA
ATOM      3  N   UNL     1       2.428   7.539  17.954  0.00  0.00    +0.000 N 
ATOM      4  C   UNL     1       3.808   7.060  17.964  0.00  0.00    +0.000 C 
ATOM      5  C   UNL     1       3.956   5.742  17.214  0.00  0.00    +0.000 C 
ATOM      6  C   UNL     1       2.996   4.633  17.715  0.00  0.00    +0.000 C 
ATOM      7  C   UNL     1       1.571   5.252  17.698  0.00  0.00    +0.000 C 
ATOM      8  C   UNL     1       1.462   6.570  18.461  0.00  0.00    +0.000 C 
ENDROOT
BRANCH   1  18
ATOM      9  C   UNL     1       0.436  12.899  21.196  0.00  0.00    +0.000 C 
ATOM     10  C   UNL     1      -0.478  11.677  21.108  0.00  0.00    +0.000 C 
ATOM     11  C   UNL     1      -0.353  10.778  22.337  0.00  0.00    +0.000 C 
ATOM     12  C   UNL     1      -1.952  12.096  20.889  0.00  0.00    +0.000 C 
ATOM     13  O   UNL     1      -2.646  12.771  21.633  0.00  0.00    +0.000 OA
ATOM     14  N   UNL     1      -2.366  11.551  19.674  0.00  0.00    +0.000 N 
ATOM     15  C   UNL     1      -1.349  10.841  19.053  0.00  0.00    +0.000 A 
ATOM     16  C   UNL     1      -1.367  10.189  17.841  0.00  0.00    +0.000 A 
ATOM     17  C   UNL     1      -0.187   9.557  17.422  0.00  0.00    +0.000 A 
ATOM     18  C   UNL     1       0.959   9.555  18.245  0.00  0.00    +0.000 A 
ATOM     19  C   UNL     1       0.953  10.250  19.460  0.00  0.00    +0.000 A 
ATOM     20  C   UNL     1      -0.210  10.885  19.852  0.00  0.00    +0.000 A 
ATOM     21  H   UNL     1      -3.296  11.689  19.307  0.00  0.00    +0.000 HD
ENDBRANCH   1  18
BRANCH   6  22
ATOM     22  N   UNL     1       3.386   4.050  19.032  0.00  0.00    +0.000 NA
ATOM     23  C   UNL     1       4.376   2.951  18.913  0.00  0.00    +0.000 C 
ATOM     24  C   UNL     1       3.578   1.682  18.698  0.00  0.00    +0.000 C 
ATOM     25  C   UNL     1       2.374   1.873  19.594  0.00  0.00    +0.000 C 
ATOM     26  C   UNL     1       2.220   3.389  19.732  0.00  0.00    +0.000 C 
BRANCH  26  27
ATOM     27  C   UNL     1       2.180   3.785  21.221  0.00  0.00    +0.000 C 
ATOM     28  N   UNL     1       2.430   5.097  21.494  0.00  0.00    +0.000 N 
ATOM     29  O   UNL     1       1.937   2.988  22.124  0.00  0.00    +0.000 OA
ATOM     30  H   UNL     1       2.685   5.710  20.727  0.00  0.00    +0.000 HD
ATOM     31  H   UNL     1       2.471   5.411  22.452  0.00  0.00    +0.000 HD
ENDBRANCH  26  27
ENDBRANCH   6  22
TORSDOF 3
ENDMDL
MODEL 5
REMARK VINA RESULT:      -6.9      2.763      3.958
REMARK  Name = 
REMARK  5 active torsions:
REMARK  status: ('A' for Active; 'I' for Inactive)
REMARK    1  A    between atoms: C_1  and  C_2
REMARK    2  A    between atoms: C_2  and  C_3
REMARK    3  A    between atoms: C_10  and  C_11
REMARK    4  A    between atoms: C_16  and  N_17
REMARK    5  A    between atoms: C_21  and  C_22
REMARK                            x       y       z     vdW  Elec       q    Type
REMARK                         _______ _______ _______ _____ _____    ______ ____
ROOT
ATOM      1  C   UNL     1       1.928   8.599  18.622  0.00  0.00    +0.000 C 
ATOM      2  O   UNL     1       2.198   8.722  17.426  0.00  0.00    +0.000 OA
ATOM      3  N   UNL     1       1.365   9.636  19.372  0.00  0.00    +0.000 N 
ATOM      4  C   UNL     1       0.845  10.775  18.620  0.00  0.00    +0.000 C 
ATOM      5  C   UNL     1       1.053  12.088  19.364  0.00  0.00    +0.000 C 
ATOM      6  C   UNL     1       0.474  12.083  20.802  0.00  0.00    +0.000 C 
ATOM      7  C   UNL     1       1.059  10.824  21.500  0.00  0.00    +0.000 C 
ATOM      8  C   UNL     1       0.829   9.527  20.726  0.00  0.00    +0.000 C 
ENDROOT
BRANCH   1  18
ATOM      9  C   UNL     1       5.901   4.830  18.815  0.00  0.00    +0.000 C 
ATOM     10  C   UNL     1       4.490   4.261  18.667  0.00  0.00    +0.000 C 
ATOM     11  C   UNL     1       4.201   3.812  17.236  0.00  0.00    +0.000 C 
ATOM     12  C   UNL     1       4.250   3.098  19.660  0.00  0.00    +0.000 C 
ATOM     13  O   UNL     1       4.853   2.038  19.716  0.00  0.00    +0.000 OA
ATOM     14  N   UNL     1       3.196   3.471  20.494  0.00  0.00    +0.000 N 
ATOM     15  C   UNL     1       2.721   4.739  20.190  0.00  0.00    +0.000 A 
ATOM     16  C   UNL     1       1.717   5.454  20.802  0.00  0.00    +0.000 A 
ATOM     17  C   UNL     1       1.441   6.740  20.314  0.00  0.00    +0.000 A 
ATOM     18  C   UNL     1       2.142   7.254  19.203  0.00  0.00    +0.000 A 
ATOM     19  C   UNL     1       3.176   6.512  18.621  0.00  0.00    +0.000 A 
ATOM     20  C   UNL     1       3.451   5.255  19.123  0.00  0.00    +0.000 A 
ATOM     21  H   UNL     1       2.852   2.876  21.232  0.00  0.00    +0.000 HD
ENDBRANCH   1  18
BRANCH   6  22
ATOM     22  N   UNL     1      -1.014  12.167  20.852  0.00  0.00    +0.000 NA
ATOM     23  C   UNL     1      -1.591  12.976  19.751  0.00  0.00    +0.000 C 
ATOM     24  C   UNL     1      -1.592  14.412  20.235  0.00  0.00    +0.000 C 
ATOM     25  C   UNL     1      -1.951  14.284  21.698  0.00  0.00    +0.000 C 
ATOM     26  C   UNL     1      -1.505  12.875  22.095  0.00  0.00    +0.000 C 
BRANCH  26  27
ATOM     27  C   UNL     1      -2.678  12.108  22.736  0.00  0.00    +0.000 C 
ATOM     28  N   UNL     1      -3.925  12.494  22.343  0.00  0.00    +0.000 N 
ATOM     29  O   UNL     1      -2.525  11.199  23.547  0.00  0.00    +0.000 OA
ATOM     30  H   UNL     1      -4.011  13.287  21.717  0.00  0.00    +0.000 HD
ATOM     31  H   UNL     1      -4.738  12.067  22.764  0.00  0.00    +0.000 HD
ENDBRANCH  26  27
ENDBRANCH   6  22
TORSDOF 3
ENDMDL
MODEL 6
REMARK VINA RESULT:      -6.8      2.554      3.795
REMARK  Name = 
REMARK  5 active torsions:
REMARK  status: ('A' for Active; 'I' for Inactive)
REMARK    1  A    between atoms: C_1  and  C_2
REMARK    2  A    between atoms: C_2  and  C_3
REMARK    3  A    between atoms: C_10  and  C_11
REMARK    4  A    between atoms: C_16  and  N_17
REMARK    5  A    between atoms: C_21  and  C_22
REMARK                            x       y       z     vdW  Elec       q    Type
REMARK                         _______ _______ _______ _____ _____    ______ ____
ROOT
ATOM      1  C   UNL     1       1.254   9.095  18.088  0.00  0.00    +0.000 C 
ATOM      2  O   UNL     1       0.884   8.998  16.917  0.00  0.00    +0.000 OA
ATOM      3  N   UNL     1       0.859  10.154  18.912  0.00  0.00    +0.000 N 
ATOM      4  C   UNL     1      -0.234  10.989  18.419  0.00  0.00    +0.000 C 
ATOM      5  C   UNL     1      -0.055  12.449  18.816  0.00  0.00    +0.000 C 
ATOM      6  C   UNL     1       0.139  12.657  20.339  0.00  0.00    +0.000 C 
ATOM      7  C   UNL     1       1.292  11.707  20.764  0.00  0.00    +0.000 C 
ATOM      8  C   UNL     1       1.077  10.252  20.351  0.00  0.00    +0.000 C 
ENDROOT
BRANCH   1  18
ATOM      9  C   UNL     1       6.311   7.080  17.464  0.00  0.00    +0.000 C 
ATOM     10  C   UNL     1       5.217   6.022  17.603  0.00  0.00    +0.000 C 
ATOM     11  C   UNL     1       4.854   5.393  16.260  0.00  0.00    +0.000 C 
ATOM     12  C   UNL     1       5.624   4.930  18.622  0.00  0.00    +0.000 C 
ATOM     13  O   UNL     1       6.580   4.174  18.552  0.00  0.00    +0.000 OA
ATOM     14  N   UNL     1       4.684   4.949  19.653  0.00  0.00    +0.000 N 
ATOM     15  C   UNL     1       3.720   5.927  19.454  0.00  0.00    +0.000 A 
ATOM     16  C   UNL     1       2.656   6.264  20.259  0.00  0.00    +0.000 A 
ATOM     17  C   UNL     1       1.829   7.318  19.840  0.00  0.00    +0.000 A 
ATOM     18  C   UNL     1       2.063   7.970  18.611  0.00  0.00    +0.000 A 
ATOM     19  C   UNL     1       3.170   7.621  17.829  0.00  0.00    +0.000 A 
ATOM     20  C   UNL     1       3.987   6.595  18.263  0.00  0.00    +0.000 A 
ATOM     21  H   UNL     1       4.736   4.326  20.445  0.00  0.00    +0.000 HD
ENDBRANCH   1  18
BRANCH   6  22
ATOM     22  N   UNL     1      -1.112  12.484  21.134  0.00  0.00    +0.000 NA
ATOM     23  C   UNL     1      -2.035  13.640  21.030  0.00  0.00    +0.000 C 
ATOM     24  C   UNL     1      -1.607  14.623  22.100  0.00  0.00    +0.000 C 
ATOM     25  C   UNL     1      -1.225  13.730  23.258  0.00  0.00    +0.000 C 
ATOM     26  C   UNL     1      -0.838  12.395  22.619  0.00  0.00    +0.000 C 
BRANCH  26  27
ATOM     27  C   UNL     1      -1.644  11.246  23.257  0.00  0.00    +0.000 C 
ATOM     28  N   UNL     1      -0.998  10.050  23.352  0.00  0.00    +0.000 N 
ATOM     29  O   UNL     1      -2.794  11.377  23.665  0.00  0.00    +0.000 OA
ATOM     30  H   UNL     1      -0.071   9.967  22.950  0.00  0.00    +0.000 HD
ATOM     31  H   UNL     1      -1.487   9.243  23.712  0.00  0.00    +0.000 HD
ENDBRANCH  26  27
ENDBRANCH   6  22
TORSDOF 3
ENDMDL
MODEL 7
REMARK VINA RESULT:      -6.7      1.636      2.280
REMARK  Name = 
REMARK  5 active torsions:
REMARK  status: ('A' for Active; 'I' for Inactive)
REMARK    1  A    between atoms: C_1  and  C_2
REMARK    2  A    between atoms: C_2  and  C_3
REMARK    3  A    between atoms: C_10  and  C_11
REMARK    4  A    between atoms: C_16  and  N_17
REMARK    5  A    between atoms: C_21  and  C_22
REMARK                            x       y       z     vdW  Elec       q    Type
REMARK                         _______ _______ _______ _____ _____    ______ ____
ROOT
ATOM      1  C   UNL     1       1.697   7.871  19.896  0.00  0.00    +0.000 C 
ATOM      2  O   UNL     1       1.530   7.211  20.923  0.00  0.00    +0.000 OA
ATOM      3  N   UNL     1       1.135   9.140  19.723  0.00  0.00    +0.000 N 
ATOM      4  C   UNL     1       0.579   9.773  20.916  0.00  0.00    +0.000 C 
ATOM      5  C   UNL     1      -0.658  10.602  20.594  0.00  0.00    +0.000 C 
ATOM      6  C   UNL     1      -0.424  11.657  19.483  0.00  0.00    +0.000 C 
ATOM      7  C   UNL     1       0.195  10.891  18.281  0.00  0.00    +0.000 C 
ATOM      8  C   UNL     1       1.434  10.074  18.642  0.00  0.00    +0.000 C 
ENDROOT
BRANCH   1  18
ATOM      9  C   UNL     1       2.652   2.986  17.605  0.00  0.00    +0.000 C 
ATOM     10  C   UNL     1       3.906   3.811  17.892  0.00  0.00    +0.000 C 
ATOM     11  C   UNL     1       4.646   3.318  19.134  0.00  0.00    +0.000 C 
ATOM     12  C   UNL     1       4.855   3.829  16.668  0.00  0.00    +0.000 C 
ATOM     13  O   UNL     1       5.400   2.872  16.142  0.00  0.00    +0.000 OA
ATOM     14  N   UNL     1       4.991   5.157  16.264  0.00  0.00    +0.000 N 
ATOM     15  C   UNL     1       4.240   6.017  17.054  0.00  0.00    +0.000 A 
ATOM     16  C   UNL     1       4.099   7.381  16.949  0.00  0.00    +0.000 A 
ATOM     17  C   UNL     1       3.253   8.022  17.868  0.00  0.00    +0.000 A 
ATOM     18  C   UNL     1       2.612   7.288  18.888  0.00  0.00    +0.000 A 
ATOM     19  C   UNL     1       2.755   5.897  18.950  0.00  0.00    +0.000 A 
ATOM     20  C   UNL     1       3.575   5.276  18.027  0.00  0.00    +0.000 A 
ATOM     21  H   UNL     1       5.561   5.429  15.477  0.00  0.00    +0.000 HD
ENDBRANCH   1  18
BRANCH   6  22
ATOM     22  N   UNL     1       0.379  12.833  19.929  0.00  0.00    +0.000 NA
ATOM     23  C   UNL     1      -0.306  13.649  20.961  0.00  0.00    +0.000 C 
ATOM     24  C   UNL     1      -1.167  14.645  20.213  0.00  0.00    +0.000 C 
ATOM     25  C   UNL     1      -0.311  15.020  19.025  0.00  0.00    +0.000 C 
ATOM     26  C   UNL     1       0.616  13.822  18.810  0.00  0.00    +0.000 C 
BRANCH  26  27
ATOM     27  C   UNL     1       2.086  14.284  18.789  0.00  0.00    +0.000 C 
ATOM     28  N   UNL     1       2.919  13.578  17.973  0.00  0.00    +0.000 N 
ATOM     29  O   UNL     1       2.505  15.228  19.454  0.00  0.00    +0.000 OA
ATOM     30  H   UNL     1       2.548  12.769  17.487  0.00  0.00    +0.000 HD
ATOM     31  H   UNL     1       3.905  13.796  17.953  0.00  0.00    +0.000 HD
ENDBRANCH  26  27
ENDBRANCH   6  22
TORSDOF 3
ENDMDL
MODEL 8
REMARK VINA RESULT:      -6.6      2.561      3.582
REMARK  Name = 
REMARK  5 active torsions:
REMARK  status: ('A' for Active; 'I' for Inactive)
REMARK    1  A    between atoms: C_1  and  C_2
REMARK    2  A    between atoms: C_2  and  C_3
REMARK    3  A    between atoms: C_10  and  C_11
REMARK    4  A    between atoms: C_16  and  N_17
REMARK    5  A    between atoms: C_21  and  C_22
REMARK                            x       y       z     vdW  Elec       q    Type
REMARK                         _______ _______ _______ _____ _____    ______ ____
ROOT
ATOM      1  C   UNL     1       0.837   9.028  21.094  0.00  0.00    +0.000 C 
ATOM      2  O   UNL     1       0.722   8.645  22.259  0.00  0.00    +0.000 OA
ATOM      3  N   UNL     1       0.444  10.305  20.684  0.00  0.00    +0.000 N 
ATOM      4  C   UNL     1       0.154  11.268  21.744  0.00  0.00    +0.000 C 
ATOM      5  C   UNL     1      -0.985  12.205  21.362  0.00  0.00    +0.000 C 
ATOM      6  C   UNL     1      -0.759  12.938  20.016  0.00  0.00    +0.000 C 
ATOM      7  C   UNL     1      -0.428  11.836  18.972  0.00  0.00    +0.000 C 
ATOM      8  C   UNL     1       0.720  10.918  19.388  0.00  0.00    +0.000 C 
ENDROOT
BRANCH   1  18
ATOM      9  C   UNL     1       0.775   3.668  19.952  0.00  0.00    +0.000 C 
ATOM     10  C   UNL     1       2.159   4.315  19.899  0.00  0.00    +0.000 C 
ATOM     11  C   UNL     1       2.991   3.991  21.139  0.00  0.00    +0.000 C 
ATOM     12  C   UNL     1       2.918   3.904  18.614  0.00  0.00    +0.000 C 
ATOM     13  O   UNL     1       3.246   2.777  18.278  0.00  0.00    +0.000 OA
ATOM     14  N   UNL     1       3.178   5.069  17.891  0.00  0.00    +0.000 N 
ATOM     15  C   UNL     1       2.672   6.194  18.527  0.00  0.00    +0.000 A 
ATOM     16  C   UNL     1       2.708   7.506  18.114  0.00  0.00    +0.000 A 
ATOM     17  C   UNL     1       2.097   8.465  18.936  0.00  0.00    +0.000 A 
ATOM     18  C   UNL     1       1.511   8.092  20.164  0.00  0.00    +0.000 A 
ATOM     19  C   UNL     1       1.468   6.745  20.542  0.00  0.00    +0.000 A 
ATOM     20  C   UNL     1       2.056   5.808  19.714  0.00  0.00    +0.000 A 
ATOM     21  H   UNL     1       3.664   5.061  17.007  0.00  0.00    +0.000 HD
ENDBRANCH   1  18
BRANCH   6  22
ATOM     22  N   UNL     1       0.257  14.029  20.087  0.00  0.00    +0.000 NA
ATOM     23  C   UNL     1      -0.191  15.193  20.889  0.00  0.00    +0.000 C 
ATOM     24  C   UNL     1      -0.951  16.096  19.940  0.00  0.00    +0.000 C 
ATOM     25  C   UNL     1      -0.160  15.992  18.655  0.00  0.00    +0.000 C 
ATOM     26  C   UNL     1       0.542  14.634  18.730  0.00  0.00    +0.000 C 
BRANCH  26  27
ATOM     27  C   UNL     1       2.058  14.808  18.515  0.00  0.00    +0.000 C 
ATOM     28  N   UNL     1       2.534  16.079  18.645  0.00  0.00    +0.000 N 
ATOM     29  O   UNL     1       2.811  13.875  18.248  0.00  0.00    +0.000 OA
ATOM     30  H   UNL     1       1.872  16.829  18.807  0.00  0.00    +0.000 HD
ATOM     31  H   UNL     1       3.510  16.269  18.466  0.00  0.00    +0.000 HD
ENDBRANCH  26  27
ENDBRANCH   6  22
TORSDOF 3
ENDMDL
MODEL 9
REMARK VINA RESULT:      -6.5      1.907      2.596
REMARK  Name = 
REMARK  5 active torsions:
REMARK  status: ('A' for Active; 'I' for Inactive)
REMARK    1  A    between atoms: C_1  and  C_2
REMARK    2  A    between atoms: C_2  and  C_3
REMARK    3  A    between atoms: C_10  and  C_11
REMARK    4  A    between atoms: C_16  and  N_17
REMARK    5  A    between atoms: C_21  and  C_22
REMARK                            x       y       z     vdW  Elec       q    Type
REMARK                         _______ _______ _______ _____ _____    ______ ____
ROOT
ATOM      1  C   UNL     1       1.409   7.869  20.550  0.00  0.00    +0.000 C 
ATOM      2  O   UNL     1       1.275   6.987  21.400  0.00  0.00    +0.000 OA
ATOM      3  N   UNL     1       0.854   9.143  20.699  0.00  0.00    +0.000 N 
ATOM      4  C   UNL     1       0.349   9.481  22.028  0.00  0.00    +0.000 C 
ATOM      5  C   UNL     1      -0.890  10.364  21.955  0.00  0.00    +0.000 C 
ATOM      6  C   UNL     1      -0.687  11.649  21.112  0.00  0.00    +0.000 C 
ATOM      7  C   UNL     1      -0.121  11.184  19.742  0.00  0.00    +0.000 C 
ATOM      8  C   UNL     1       1.122  10.303  19.855  0.00  0.00    +0.000 C 
ENDROOT
BRANCH   1  18
ATOM      9  C   UNL     1       3.285   3.381  18.025  0.00  0.00    +0.000 C 
ATOM     10  C   UNL     1       4.298   4.521  18.134  0.00  0.00    +0.000 C 
ATOM     11  C   UNL     1       5.326   4.271  19.235  0.00  0.00    +0.000 C 
ATOM     12  C   UNL     1       5.004   4.771  16.779  0.00  0.00    +0.000 C 
ATOM     13  O   UNL     1       5.699   3.988  16.153  0.00  0.00    +0.000 OA
ATOM     14  N   UNL     1       4.710   6.079  16.390  0.00  0.00    +0.000 N 
ATOM     15  C   UNL     1       3.887   6.718  17.306  0.00  0.00    +0.000 A 
ATOM     16  C   UNL     1       3.367   7.991  17.257  0.00  0.00    +0.000 A 
ATOM     17  C   UNL     1       2.532   8.396  18.310  0.00  0.00    +0.000 A 
ATOM     18  C   UNL     1       2.280   7.536  19.399  0.00  0.00    +0.000 A 
ATOM     19  C   UNL     1       2.803   6.237  19.405  0.00  0.00    +0.000 A 
ATOM     20  C   UNL     1       3.607   5.844  18.353  0.00  0.00    +0.000 A 
ATOM     21  H   UNL     1       5.057   6.479  15.531  0.00  0.00    +0.000 HD
ENDBRANCH   1  18
BRANCH   6  22
ATOM     22  N   UNL     1       0.143  12.687  21.789  0.00  0.00    +0.000 NA
ATOM     23  C   UNL     1      -0.621  13.499  22.767  0.00  0.00    +0.000 C 
ATOM     24  C   UNL     1      -1.236  14.640  21.985  0.00  0.00    +0.000 C 
ATOM     25  C   UNL     1      -0.156  15.000  20.990  0.00  0.00    +0.000 C 
ATOM     26  C   UNL     1       0.667  13.722  20.818  0.00  0.00    +0.000 C 
BRANCH  26  27
ATOM     27  C   UNL     1       2.158  14.011  21.078  0.00  0.00    +0.000 C 
ATOM     28  N   UNL     1       3.001  13.769  20.034  0.00  0.00    +0.000 N 
ATOM     29  O   UNL     1       2.585  14.436  22.148  0.00  0.00    +0.000 OA
ATOM     30  H   UNL     1       2.617  13.363  19.188  0.00  0.00    +0.000 HD
ATOM     31  H   UNL     1       3.996  13.888  20.155  0.00  0.00    +0.000 HD
ENDBRANCH  26  27
ENDBRANCH   6  22
TORSDOF 3
ENDMDL
