MODEL 1
REMARK VINA RESULT:      -7.9      0.000      0.000
REMARK  Name = 
REMARK  2 active torsions:
REMARK  status: ('A' for Active; 'I' for Inactive)
REMARK    1  A    between atoms: C_2  and  C_14
REMARK    2  A    between atoms: N_16  and  C_17
REMARK                            x       y       z     vdW  Elec       q    Type
REMARK                         _______ _______ _______ _____ _____    ______ ____
ROOT
ATOM      1  O   UNL     1       1.812   9.089  17.525  0.00  0.00    +0.000 OA
ATOM      2  C   UNL     1       1.668   9.243  18.728  0.00  0.00    +0.000 C 
ATOM      3  N   UNL     1       1.826   8.302  19.727  0.00  0.00    +0.000 N 
ATOM      4  C   UNL     1       2.245   7.012  19.490  0.00  0.00    +0.000 A 
ATOM      5  N   UNL     1       1.996   6.012  20.302  0.00  0.00    +0.000 NA
ATOM      6  C   UNL     1       2.437   4.825  19.720  0.00  0.00    +0.000 A 
ATOM      7  C   UNL     1       2.245   3.518  20.222  0.00  0.00    +0.000 A 
ATOM      8  C   UNL     1       2.714   2.418  19.490  0.00  0.00    +0.000 A 
ATOM      9  C   UNL     1       3.383   2.612  18.289  0.00  0.00    +0.000 A 
ATOM     10  F   UNL     1       3.818   1.548  17.600  0.00  0.00    +0.000 F 
ATOM     11  C   UNL     1       3.610   3.884  17.778  0.00  0.00    +0.000 A 
ATOM     12  C   UNL     1       3.117   4.974  18.509  0.00  0.00    +0.000 A 
ATOM     13  S   UNL     1       3.209   6.641  18.131  0.00  0.00    +0.000 S 
ATOM     14  H   UNL     1       1.368   8.467  20.615  0.00  0.00    +0.000 HD
ENDROOT
BRANCH   2  15
ATOM     15  C   UNL     1       1.144  10.585  19.186  0.00  0.00    +0.000 A 
ATOM     16  N   UNL     1       1.746  11.654  18.735  0.00  0.00    +0.000 NA
ATOM     17  N   UNL     1       1.377  12.871  19.279  0.00  0.00    +0.000 N 
ATOM     18  C   UNL     1       0.483  12.968  20.329  0.00  0.00    +0.000 A 
ATOM     19  C   UNL     1      -0.214  11.954  20.840  0.00  0.00    +0.000 A 
ATOM     20  C   UNL     1       0.002  10.666  20.178  0.00  0.00    +0.000 A 
ATOM     21  O   UNL     1      -0.741   9.719  20.385  0.00  0.00    +0.000 OA
BRANCH  17  22
ATOM     22  C   UNL     1       2.085  13.999  18.752  0.00  0.00    +0.000 A 
ATOM     23  C   UNL     1       1.485  15.271  18.748  0.00  0.00    +0.000 A 
ATOM     24  C   UNL     1       2.159  16.394  18.260  0.00  0.00    +0.000 A 
ATOM     25  C   UNL     1       3.448  16.265  17.752  0.00  0.00    +0.000 A 
ATOM     26  C   UNL     1       4.060  15.016  17.731  0.00  0.00    +0.000 A 
ATOM     27  C   UNL     1       3.386  13.895  18.227  0.00  0.00    +0.000 A 
ENDBRANCH  17  22
ENDBRANCH   2  15
TORSDOF 2
ENDMDL
MODEL 2
REMARK VINA RESULT:      -7.9      3.021      4.247
REMARK  Name = 
REMARK  2 active torsions:
REMARK  status: ('A' for Active; 'I' for Inactive)
REMARK    1  A    between atoms: C_2  and  C_14
REMARK    2  A    between atoms: N_16  and  C_17
REMARK                            x       y       z     vdW  Elec       q    Type
REMARK                         _______ _______ _______ _____ _____    ______ ____
ROOT
ATOM      1  O   UNL     1       1.720   9.706  17.622  0.00  0.00    +0.000 OA
ATOM      2  C   UNL     1       1.314   9.308  18.702  0.00  0.00    +0.000 C 
ATOM      3  N   UNL     1       1.578   8.098  19.313  0.00  0.00    +0.000 N 
ATOM      4  C   UNL     1       2.427   7.153  18.781  0.00  0.00    +0.000 A 
ATOM      5  N   UNL     1       2.369   5.878  19.083  0.00  0.00    +0.000 NA
ATOM      6  C   UNL     1       3.269   5.173  18.288  0.00  0.00    +0.000 A 
ATOM      7  C   UNL     1       3.420   3.769  18.225  0.00  0.00    +0.000 A 
ATOM      8  C   UNL     1       4.347   3.210  17.334  0.00  0.00    +0.000 A 
ATOM      9  C   UNL     1       5.128   4.031  16.532  0.00  0.00    +0.000 A 
ATOM     10  F   UNL     1       6.003   3.478  15.681  0.00  0.00    +0.000 F 
ATOM     11  C   UNL     1       5.023   5.416  16.584  0.00  0.00    +0.000 A 
ATOM     12  C   UNL     1       4.077   5.961  17.465  0.00  0.00    +0.000 A 
ATOM     13  S   UNL     1       3.694   7.608  17.731  0.00  0.00    +0.000 S 
ATOM     14  H   UNL     1       0.934   7.770  20.023  0.00  0.00    +0.000 HD
ENDROOT
BRANCH   2  15
ATOM     15  C   UNL     1       0.309  10.182  19.417  0.00  0.00    +0.000 A 
ATOM     16  N   UNL     1      -0.828  10.412  18.815  0.00  0.00    +0.000 NA
ATOM     17  N   UNL     1      -1.677  11.340  19.388  0.00  0.00    +0.000 N 
ATOM     18  C   UNL     1      -1.317  12.083  20.497  0.00  0.00    +0.000 A 
ATOM     19  C   UNL     1      -0.205  11.907  21.210  0.00  0.00    +0.000 A 
ATOM     20  C   UNL     1       0.649  10.810  20.753  0.00  0.00    +0.000 A 
ATOM     21  O   UNL     1       1.563  10.392  21.448  0.00  0.00    +0.000 OA
BRANCH  17  22
ATOM     22  C   UNL     1      -2.899  11.555  18.671  0.00  0.00    +0.000 A 
ATOM     23  C   UNL     1      -2.998  11.188  17.318  0.00  0.00    +0.000 A 
ATOM     24  C   UNL     1      -4.183  11.366  16.599  0.00  0.00    +0.000 A 
ATOM     25  C   UNL     1      -5.294  11.930  17.218  0.00  0.00    +0.000 A 
ATOM     26  C   UNL     1      -5.220  12.314  18.552  0.00  0.00    +0.000 A 
ATOM     27  C   UNL     1      -4.035  12.128  19.272  0.00  0.00    +0.000 A 
ENDBRANCH  17  22
ENDBRANCH   2  15
TORSDOF 2
ENDMDL
MODEL 3
REMARK VINA RESULT:      -7.8      0.538      1.085
REMARK  Name = 
REMARK  2 active torsions:
REMARK  status: ('A' for Active; 'I' for Inactive)
REMARK    1  A    between atoms: C_2  and  C_14
REMARK    2  A    between atoms: N_16  and  C_17
REMARK                            x       y       z     vdW  Elec       q    Type
REMARK                         _______ _______ _______ _____ _____    ______ ____
ROOT
ATOM      1  O   UNL     1       1.436   9.343  17.851  0.00  0.00    +0.000 OA
ATOM      2  C   UNL     1       1.425   9.479  19.064  0.00  0.00    +0.000 C 
ATOM      3  N   UNL     1       1.623   8.508  20.027  0.00  0.00    +0.000 N 
ATOM      4  C   UNL     1       1.933   7.201  19.727  0.00  0.00    +0.000 A 
ATOM      5  N   UNL     1       1.705   6.200  20.544  0.00  0.00    +0.000 NA
ATOM      6  C   UNL     1       2.008   5.001  19.902  0.00  0.00    +0.000 A 
ATOM      7  C   UNL     1       1.785   3.697  20.400  0.00  0.00    +0.000 A 
ATOM      8  C   UNL     1       2.107   2.587  19.606  0.00  0.00    +0.000 A 
ATOM      9  C   UNL     1       2.662   2.767  18.347  0.00  0.00    +0.000 A 
ATOM     10  F   UNL     1       2.956   1.693  17.600  0.00  0.00    +0.000 F 
ATOM     11  C   UNL     1       2.916   4.033  17.835  0.00  0.00    +0.000 A 
ATOM     12  C   UNL     1       2.570   5.135  18.630  0.00  0.00    +0.000 A 
ATOM     13  S   UNL     1       2.728   6.801  18.271  0.00  0.00    +0.000 S 
ATOM     14  H   UNL     1       1.268   8.681  20.960  0.00  0.00    +0.000 HD
ENDROOT
BRANCH   2  15
ATOM     15  C   UNL     1       1.036  10.840  19.595  0.00  0.00    +0.000 A 
ATOM     16  N   UNL     1       1.572  11.886  19.024  0.00  0.00    +0.000 NA
ATOM     17  N   UNL     1       1.349  13.118  19.611  0.00  0.00    +0.000 N 
ATOM     18  C   UNL     1       0.673  13.251  20.810  0.00  0.00    +0.000 A 
ATOM     19  C   UNL     1       0.056  12.263  21.457  0.00  0.00    +0.000 A 
ATOM     20  C   UNL     1       0.106  10.964  20.784  0.00  0.00    +0.000 A 
ATOM     21  O   UNL     1      -0.612  10.042  21.141  0.00  0.00    +0.000 OA
BRANCH  17  22
ATOM     22  C   UNL     1       1.975  14.220  18.945  0.00  0.00    +0.000 A 
ATOM     23  C   UNL     1       3.210  14.043  18.295  0.00  0.00    +0.000 A 
ATOM     24  C   UNL     1       3.834  15.095  17.618  0.00  0.00    +0.000 A 
ATOM     25  C   UNL     1       3.242  16.353  17.589  0.00  0.00    +0.000 A 
ATOM     26  C   UNL     1       2.027  16.559  18.236  0.00  0.00    +0.000 A 
ATOM     27  C   UNL     1       1.400  15.503  18.905  0.00  0.00    +0.000 A 
ENDBRANCH  17  22
ENDBRANCH   2  15
TORSDOF 2
ENDMDL
MODEL 4
REMARK VINA RESULT:      -7.8      4.669      9.372
REMARK  Name = 
REMARK  2 active torsions:
REMARK  status: ('A' for Active; 'I' for Inactive)
REMARK    1  A    between atoms: C_2  and  C_14
REMARK    2  A    between atoms: N_16  and  C_17
REMARK                            x       y       z     vdW  Elec       q    Type
REMARK                         _______ _______ _______ _____ _____    ______ ____
ROOT
ATOM      1  O   UNL     1       1.221   9.192  21.423  0.00  0.00    +0.000 OA
ATOM      2  C   UNL     1       1.067   9.217  20.212  0.00  0.00    +0.000 C 
ATOM      3  N   UNL     1       0.207  10.017  19.485  0.00  0.00    +0.000 N 
ATOM      4  C   UNL     1      -0.590  10.983  20.056  0.00  0.00    +0.000 A 
ATOM      5  N   UNL     1      -1.687  11.437  19.497  0.00  0.00    +0.000 NA
ATOM      6  C   UNL     1      -2.329  12.305  20.377  0.00  0.00    +0.000 A 
ATOM      7  C   UNL     1      -3.595  12.906  20.197  0.00  0.00    +0.000 A 
ATOM      8  C   UNL     1      -4.125  13.725  21.204  0.00  0.00    +0.000 A 
ATOM      9  C   UNL     1      -3.400  13.963  22.364  0.00  0.00    +0.000 A 
ATOM     10  F   UNL     1      -3.926  14.743  23.318  0.00  0.00    +0.000 F 
ATOM     11  C   UNL     1      -2.142  13.408  22.565  0.00  0.00    +0.000 A 
ATOM     12  C   UNL     1      -1.633  12.573  21.559  0.00  0.00    +0.000 A 
ATOM     13  S   UNL     1      -0.146  11.728  21.526  0.00  0.00    +0.000 S 
ATOM     14  H   UNL     1      -0.056   9.714  18.554  0.00  0.00    +0.000 HD
ENDROOT
BRANCH   2  15
ATOM     15  C   UNL     1       1.812   8.177  19.408  0.00  0.00    +0.000 A 
ATOM     16  N   UNL     1       1.954   6.991  19.938  0.00  0.00    +0.000 NA
ATOM     17  N   UNL     1       2.774   6.093  19.280  0.00  0.00    +0.000 N 
ATOM     18  C   UNL     1       3.505   6.445  18.161  0.00  0.00    +0.000 A 
ATOM     19  C   UNL     1       3.410   7.607  17.517  0.00  0.00    +0.000 A 
ATOM     20  C   UNL     1       2.419   8.533  18.066  0.00  0.00    +0.000 A 
ATOM     21  O   UNL     1       2.064   9.520  17.439  0.00  0.00    +0.000 OA
BRANCH  17  22
ATOM     22  C   UNL     1       2.898   4.818  19.921  0.00  0.00    +0.000 A 
ATOM     23  C   UNL     1       2.078   4.495  21.017  0.00  0.00    +0.000 A 
ATOM     24  C   UNL     1       2.161   3.251  21.649  0.00  0.00    +0.000 A 
ATOM     25  C   UNL     1       3.080   2.305  21.204  0.00  0.00    +0.000 A 
ATOM     26  C   UNL     1       3.912   2.603  20.130  0.00  0.00    +0.000 A 
ATOM     27  C   UNL     1       3.822   3.846  19.495  0.00  0.00    +0.000 A 
ENDBRANCH  17  22
ENDBRANCH   2  15
TORSDOF 2
ENDMDL
MODEL 5
REMARK VINA RESULT:      -7.8      2.988      4.198
REMARK  Name = 
REMARK  2 active torsions:
REMARK  status: ('A' for Active; 'I' for Inactive)
REMARK    1  A    between atoms: C_2  and  C_14
REMARK    2  A    between atoms: N_16  and  C_17
REMARK                            x       y       z     vdW  Elec       q    Type
REMARK                         _______ _______ _______ _____ _____    ______ ____
ROOT
ATOM      1  O   UNL     1       1.199   9.668  17.703  0.00  0.00    +0.000 OA
ATOM      2  C   UNL     1       1.008   9.451  18.890  0.00  0.00    +0.000 C 
ATOM      3  N   UNL     1       1.479   8.395  19.644  0.00  0.00    +0.000 N 
ATOM      4  C   UNL     1       2.319   7.425  19.144  0.00  0.00    +0.000 A 
ATOM      5  N   UNL     1       2.431   6.227  19.666  0.00  0.00    +0.000 NA
ATOM      6  C   UNL     1       3.257   5.447  18.860  0.00  0.00    +0.000 A 
ATOM      7  C   UNL     1       3.529   4.069  19.014  0.00  0.00    +0.000 A 
ATOM      8  C   UNL     1       4.352   3.415  18.086  0.00  0.00    +0.000 A 
ATOM      9  C   UNL     1       4.916   4.124  17.033  0.00  0.00    +0.000 A 
ATOM     10  F   UNL     1       5.693   3.480  16.152  0.00  0.00    +0.000 F 
ATOM     11  C   UNL     1       4.688   5.484  16.864  0.00  0.00    +0.000 A 
ATOM     12  C   UNL     1       3.846   6.120  17.787  0.00  0.00    +0.000 A 
ATOM     13  S   UNL     1       3.356   7.759  17.829  0.00  0.00    +0.000 S 
ATOM     14  H   UNL     1       0.990   8.162  20.501  0.00  0.00    +0.000 HD
ENDROOT
BRANCH   2  15
ATOM     15  C   UNL     1       0.050  10.375  19.606  0.00  0.00    +0.000 A 
ATOM     16  N   UNL     1      -1.108  10.600  19.043  0.00  0.00    +0.000 NA
ATOM     17  N   UNL     1      -1.915  11.569  19.609  0.00  0.00    +0.000 N 
ATOM     18  C   UNL     1      -1.495  12.353  20.668  0.00  0.00    +0.000 A 
ATOM     19  C   UNL     1      -0.356  12.187  21.340  0.00  0.00    +0.000 A 
ATOM     20  C   UNL     1       0.458  11.055  20.897  0.00  0.00    +0.000 A 
ATOM     21  O   UNL     1       1.393  10.650  21.571  0.00  0.00    +0.000 OA
BRANCH  17  22
ATOM     22  C   UNL     1      -3.162  11.775  18.936  0.00  0.00    +0.000 A 
ATOM     23  C   UNL     1      -4.245  12.361  19.615  0.00  0.00    +0.000 A 
ATOM     24  C   UNL     1      -5.466  12.595  18.978  0.00  0.00    +0.000 A 
ATOM     25  C   UNL     1      -5.636  12.232  17.645  0.00  0.00    +0.000 A 
ATOM     26  C   UNL     1      -4.586  11.638  16.953  0.00  0.00    +0.000 A 
ATOM     27  C   UNL     1      -3.362  11.413  17.591  0.00  0.00    +0.000 A 
ENDBRANCH  17  22
ENDBRANCH   2  15
TORSDOF 2
ENDMDL
MODEL 6
REMARK VINA RESULT:      -7.8      1.848      3.923
REMARK  Name = 
REMARK  2 active torsions:
REMARK  status: ('A' for Active; 'I' for Inactive)
REMARK    1  A    between atoms: C_2  and  C_14
REMARK    2  A    between atoms: N_16  and  C_17
REMARK                            x       y       z     vdW  Elec       q    Type
REMARK                         _______ _______ _______ _____ _____    ______ ____
ROOT
ATOM      1  O   UNL     1       1.565   9.039  17.717  0.00  0.00    +0.000 OA
ATOM      2  C   UNL     1       1.456   9.338  18.896  0.00  0.00    +0.000 C 
ATOM      3  N   UNL     1       1.573   8.510  19.995  0.00  0.00    +0.000 N 
ATOM      4  C   UNL     1       1.902   7.177  19.903  0.00  0.00    +0.000 A 
ATOM      5  N   UNL     1       1.607   6.295  20.828  0.00  0.00    +0.000 NA
ATOM      6  C   UNL     1       1.958   5.022  20.383  0.00  0.00    +0.000 A 
ATOM      7  C   UNL     1       1.693   3.797  21.034  0.00  0.00    +0.000 A 
ATOM      8  C   UNL     1       2.075   2.591  20.429  0.00  0.00    +0.000 A 
ATOM      9  C   UNL     1       2.731   2.602  19.205  0.00  0.00    +0.000 A 
ATOM     10  F   UNL     1       3.081   1.440  18.638  0.00  0.00    +0.000 F 
ATOM     11  C   UNL     1       3.028   3.789  18.547  0.00  0.00    +0.000 A 
ATOM     12  C   UNL     1       2.622   4.986  19.154  0.00  0.00    +0.000 A 
ATOM     13  S   UNL     1       2.813   6.589  18.584  0.00  0.00    +0.000 S 
ATOM     14  H   UNL     1       1.144   8.805  20.864  0.00  0.00    +0.000 HD
ENDROOT
BRANCH   2  15
ATOM     15  C   UNL     1       1.029  10.756  19.202  0.00  0.00    +0.000 A 
ATOM     16  N   UNL     1       0.048  10.921  20.051  0.00  0.00    +0.000 NA
ATOM     17  N   UNL     1      -0.452  12.201  20.206  0.00  0.00    +0.000 N 
ATOM     18  C   UNL     1      -0.017  13.261  19.432  0.00  0.00    +0.000 A 
ATOM     19  C   UNL     1       0.997  13.216  18.569  0.00  0.00    +0.000 A 
ATOM     20  C   UNL     1       1.684  11.925  18.497  0.00  0.00    +0.000 A 
ATOM     21  O   UNL     1       2.762  11.817  17.934  0.00  0.00    +0.000 OA
BRANCH  17  22
ATOM     22  C   UNL     1      -1.534  12.310  21.138  0.00  0.00    +0.000 A 
ATOM     23  C   UNL     1      -1.404  11.787  22.437  0.00  0.00    +0.000 A 
ATOM     24  C   UNL     1      -2.434  11.898  23.374  0.00  0.00    +0.000 A 
ATOM     25  C   UNL     1      -3.627  12.525  23.026  0.00  0.00    +0.000 A 
ATOM     26  C   UNL     1      -3.788  13.039  21.744  0.00  0.00    +0.000 A 
ATOM     27  C   UNL     1      -2.752  12.934  20.810  0.00  0.00    +0.000 A 
ENDBRANCH  17  22
ENDBRANCH   2  15
TORSDOF 2
ENDMDL
MODEL 7
REMARK VINA RESULT:      -7.8      0.909      1.340
REMARK  Name = 
REMARK  2 active torsions:
REMARK  status: ('A' for Active; 'I' for Inactive)
REMARK    1  A    between atoms: C_2  and  C_14
REMARK    2  A    between atoms: N_16  and  C_17
REMARK                            x       y       z     vdW  Elec       q    Type
REMARK                         _______ _______ _______ _____ _____    ______ ____
ROOT
ATOM      1  O   UNL     1       1.832   9.035  17.476  0.00  0.00    +0.000 OA
ATOM      2  C   UNL     1       1.467   9.394  18.584  0.00  0.00    +0.000 C 
ATOM      3  N   UNL     1       1.451   8.655  19.751  0.00  0.00    +0.000 N 
ATOM      4  C   UNL     1       1.924   7.365  19.835  0.00  0.00    +0.000 A 
ATOM      5  N   UNL     1       1.545   6.515  20.759  0.00  0.00    +0.000 NA
ATOM      6  C   UNL     1       2.102   5.266  20.495  0.00  0.00    +0.000 A 
ATOM      7  C   UNL     1       1.840   4.062  21.187  0.00  0.00    +0.000 A 
ATOM      8  C   UNL     1       2.451   2.872  20.766  0.00  0.00    +0.000 A 
ATOM      9  C   UNL     1       3.327   2.881  19.689  0.00  0.00    +0.000 A 
ATOM     10  F   UNL     1       3.896   1.732  19.296  0.00  0.00    +0.000 F 
ATOM     11  C   UNL     1       3.625   4.050  19.001  0.00  0.00    +0.000 A 
ATOM     12  C   UNL     1       2.991   5.229  19.418  0.00  0.00    +0.000 A 
ATOM     13  S   UNL     1       3.127   6.803  18.762  0.00  0.00    +0.000 S 
ATOM     14  H   UNL     1       0.835   8.954  20.498  0.00  0.00    +0.000 HD
ENDROOT
BRANCH   2  15
ATOM     15  C   UNL     1       0.849  10.769  18.686  0.00  0.00    +0.000 A 
ATOM     16  N   UNL     1       1.634  11.799  18.513  0.00  0.00    +0.000 NA
ATOM     17  N   UNL     1       1.109  13.053  18.768  0.00  0.00    +0.000 N 
ATOM     18  C   UNL     1      -0.162  13.228  19.284  0.00  0.00    +0.000 A 
ATOM     19  C   UNL     1      -1.057  12.258  19.463  0.00  0.00    +0.000 A 
ATOM     20  C   UNL     1      -0.617  10.930  19.037  0.00  0.00    +0.000 A 
ATOM     21  O   UNL     1      -1.411  10.009  18.924  0.00  0.00    +0.000 OA
BRANCH  17  22
ATOM     22  C   UNL     1       2.026  14.135  18.573  0.00  0.00    +0.000 A 
ATOM     23  C   UNL     1       3.358  13.876  18.203  0.00  0.00    +0.000 A 
ATOM     24  C   UNL     1       4.269  14.913  17.984  0.00  0.00    +0.000 A 
ATOM     25  C   UNL     1       3.870  16.236  18.146  0.00  0.00    +0.000 A 
ATOM     26  C   UNL     1       2.562  16.520  18.525  0.00  0.00    +0.000 A 
ATOM     27  C   UNL     1       1.650  15.481  18.735  0.00  0.00    +0.000 A 
ENDBRANCH  17  22
ENDBRANCH   2  15
TORSDOF 2
ENDMDL
MODEL 8
REMARK VINA RESULT:      -7.7      3.939      8.788
REMARK  Name = 
REMARK  2 active torsions:
REMARK  status: ('A' for Active; 'I' for Inactive)
REMARK    1  A    between atoms: C_2  and  C_14
REMARK    2  A    between atoms: N_16  and  C_17
REMARK                            x       y       z     vdW  Elec       q    Type
REMARK                         _______ _______ _______ _____ _____    ______ ____
ROOT
ATOM      1  O   UNL     1       1.313   5.545  20.911  0.00  0.00    +0.000 OA
ATOM      2  C   UNL     1       2.068   5.786  19.982  0.00  0.00    +0.000 C 
ATOM      3  N   UNL     1       2.289   6.999  19.361  0.00  0.00    +0.000 N 
ATOM      4  C   UNL     1       1.698   8.174  19.769  0.00  0.00    +0.000 A 
ATOM      5  N   UNL     1       1.538   9.212  18.983  0.00  0.00    +0.000 NA
ATOM      6  C   UNL     1       0.796  10.186  19.649  0.00  0.00    +0.000 A 
ATOM      7  C   UNL     1       0.312  11.397  19.105  0.00  0.00    +0.000 A 
ATOM      8  C   UNL     1      -0.462  12.255  19.900  0.00  0.00    +0.000 A 
ATOM      9  C   UNL     1      -0.732  11.927  21.222  0.00  0.00    +0.000 A 
ATOM     10  F   UNL     1      -1.479  12.756  21.964  0.00  0.00    +0.000 F 
ATOM     11  C   UNL     1      -0.252  10.757  21.796  0.00  0.00    +0.000 A 
ATOM     12  C   UNL     1       0.502   9.897  20.984  0.00  0.00    +0.000 A 
ATOM     13  S   UNL     1       1.197   8.386  21.387  0.00  0.00    +0.000 S 
ATOM     14  H   UNL     1       2.673   6.995  18.424  0.00  0.00    +0.000 HD
ENDROOT
BRANCH   2  15
ATOM     15  C   UNL     1       2.766   4.604  19.348  0.00  0.00    +0.000 A 
ATOM     16  N   UNL     1       3.692   4.854  18.459  0.00  0.00    +0.000 NA
ATOM     17  N   UNL     1       4.212   3.780  17.761  0.00  0.00    +0.000 N 
ATOM     18  C   UNL     1       3.719   2.497  17.906  0.00  0.00    +0.000 A 
ATOM     19  C   UNL     1       2.808   2.123  18.804  0.00  0.00    +0.000 A 
ATOM     20  C   UNL     1       2.352   3.189  19.697  0.00  0.00    +0.000 A 
ATOM     21  O   UNL     1       1.710   2.935  20.704  0.00  0.00    +0.000 OA
BRANCH  17  22
ATOM     22  C   UNL     1       5.211   4.125  16.793  0.00  0.00    +0.000 A 
ATOM     23  C   UNL     1       4.906   4.094  15.421  0.00  0.00    +0.000 A 
ATOM     24  C   UNL     1       5.853   4.446  14.456  0.00  0.00    +0.000 A 
ATOM     25  C   UNL     1       7.135   4.825  14.844  0.00  0.00    +0.000 A 
ATOM     26  C   UNL     1       7.467   4.851  16.194  0.00  0.00    +0.000 A 
ATOM     27  C   UNL     1       6.515   4.507  17.159  0.00  0.00    +0.000 A 
ENDBRANCH  17  22
ENDBRANCH   2  15
TORSDOF 2
ENDMDL
MODEL 9
REMARK VINA RESULT:      -7.7      4.363      8.641
REMARK  Name = 
REMARK  2 active torsions:
REMARK  status: ('A' for Active; 'I' for Inactive)
REMARK    1  A    between atoms: C_2  and  C_14
REMARK    2  A    between atoms: N_16  and  C_17
REMARK                            x       y       z     vdW  Elec       q    Type
REMARK                         _______ _______ _______ _____ _____    ______ ____
ROOT
ATOM      1  O   UNL     1       2.573   8.311  18.571  0.00  0.00    +0.000 OA
ATOM      2  C   UNL     1       2.291   7.420  19.358  0.00  0.00    +0.000 C 
ATOM      3  N   UNL     1       1.437   7.486  20.441  0.00  0.00    +0.000 N 
ATOM      4  C   UNL     1       0.707   8.610  20.760  0.00  0.00    +0.000 A 
ATOM      5  N   UNL     1       0.249   8.855  21.964  0.00  0.00    +0.000 NA
ATOM      6  C   UNL     1      -0.330  10.122  21.989  0.00  0.00    +0.000 A 
ATOM      7  C   UNL     1      -0.828  10.800  23.124  0.00  0.00    +0.000 A 
ATOM      8  C   UNL     1      -1.343  12.097  22.988  0.00  0.00    +0.000 A 
ATOM      9  C   UNL     1      -1.383  12.705  21.740  0.00  0.00    +0.000 A 
ATOM     10  F   UNL     1      -1.872  13.948  21.631  0.00  0.00    +0.000 F 
ATOM     11  C   UNL     1      -0.924  12.059  20.599  0.00  0.00    +0.000 A 
ATOM     12  C   UNL     1      -0.392  10.770  20.753  0.00  0.00    +0.000 A 
ATOM     13  S   UNL     1       0.273   9.742  19.558  0.00  0.00    +0.000 S 
ATOM     14  H   UNL     1       1.546   6.801  21.179  0.00  0.00    +0.000 HD
ENDROOT
BRANCH   2  15
ATOM     15  C   UNL     1       3.044   6.118  19.212  0.00  0.00    +0.000 A 
ATOM     16  N   UNL     1       3.883   6.013  18.215  0.00  0.00    +0.000 NA
ATOM     17  N   UNL     1       4.446   4.772  17.983  0.00  0.00    +0.000 N 
ATOM     18  C   UNL     1       4.076   3.649  18.699  0.00  0.00    +0.000 A 
ATOM     19  C   UNL     1       3.263   3.646  19.755  0.00  0.00    +0.000 A 
ATOM     20  C   UNL     1       2.778   4.966  20.159  0.00  0.00    +0.000 A 
ATOM     21  O   UNL     1       2.228   5.132  21.238  0.00  0.00    +0.000 OA
BRANCH  17  22
ATOM     22  C   UNL     1       5.344   4.723  16.868  0.00  0.00    +0.000 A 
ATOM     23  C   UNL     1       4.935   4.139  15.656  0.00  0.00    +0.000 A 
ATOM     24  C   UNL     1       5.782   4.096  14.545  0.00  0.00    +0.000 A 
ATOM     25  C   UNL     1       7.066   4.627  14.628  0.00  0.00    +0.000 A 
ATOM     26  C   UNL     1       7.501   5.198  15.819  0.00  0.00    +0.000 A 
ATOM     27  C   UNL     1       6.649   5.247  16.927  0.00  0.00    +0.000 A 
ENDBRANCH  17  22
ENDBRANCH   2  15
TORSDOF 2
ENDMDL
