MODEL 1
REMARK VINA RESULT:      -8.0      0.000      0.000
REMARK  Name = 
REMARK  9 active torsions:
REMARK  status: ('A' for Active; 'I' for Inactive)
REMARK    1  A    between atoms: C_1  and  C_2
REMARK    2  A    between atoms: C_2  and  O_3
REMARK    3  A    between atoms: C_2  and  C_10
REMARK    4  A    between atoms: O_3  and  C_4
REMARK    5  A    between atoms: N_8  and  C_9
REMARK    6  A    between atoms: C_14  and  N_15
REMARK    7  A    between atoms: C_16  and  C_18
REMARK    8  A    between atoms: C_22  and  N_23
REMARK    9  A    between atoms: N_23  and  C_24
REMARK                            x       y       z     vdW  Elec       q    Type
REMARK                         _______ _______ _______ _____ _____    ______ ____
ROOT
ATOM      1  C   UNL     1       4.648   4.991  17.045  0.00  0.00    +0.000 A 
ATOM      2  C   UNL     1       3.977   3.760  17.089  0.00  0.00    +0.000 A 
ATOM      3  C   UNL     1       2.678   3.684  17.578  0.00  0.00    +0.000 A 
ATOM      4  C   UNL     1       2.047   4.828  18.062  0.00  0.00    +0.000 A 
ATOM      5  C   UNL     1       2.700   6.065  18.055  0.00  0.00    +0.000 A 
ATOM      6  C   UNL     1       3.979   6.151  17.489  0.00  0.00    +0.000 A 
ENDROOT
BRANCH   5   7
ATOM      7  N   UNL     1       2.139   7.229  18.637  0.00  0.00    +0.000 N 
ATOM      8  C   UNL     1       2.184   8.485  18.049  0.00  0.00    +0.000 C 
ATOM      9  O   UNL     1       2.687   8.752  16.963  0.00  0.00    +0.000 OA
ATOM     10  H   UNL     1       1.494   7.087  19.401  0.00  0.00    +0.000 HD
BRANCH   8  11
ATOM     11  C   UNL     1       1.511   9.606  18.767  0.00  0.00    +0.000 A 
ATOM     12  C   UNL     1       1.337  10.872  18.206  0.00  0.00    +0.000 A 
ATOM     13  C   UNL     1       0.611  11.828  18.914  0.00  0.00    +0.000 A 
ATOM     14  C   UNL     1       0.043  11.520  20.161  0.00  0.00    +0.000 A 
ATOM     15  C   UNL     1       0.183  10.247  20.723  0.00  0.00    +0.000 A 
ATOM     16  C   UNL     1       0.963   9.318  20.029  0.00  0.00    +0.000 A 
BRANCH  15  17
ATOM     17  N   UNL     1      -0.305   9.903  21.985  0.00  0.00    +0.000 N 
ATOM     18  H   UNL     1      -0.808  10.662  22.435  0.00  0.00    +0.000 HD
BRANCH  17  19
ATOM     19  C   UNL     1       0.596   9.293  22.936  0.00  0.00    +0.000 C 
ATOM     20  F   UNL     1      -0.042   9.289  24.135  0.00  0.00    +0.000 F 
ENDBRANCH  17  19
ENDBRANCH  15  17
ENDBRANCH   8  11
ENDBRANCH   5   7
BRANCH   1  22
ATOM     21  C   UNL     1       7.054   4.578  17.658  0.00  0.00    +0.000 C 
ATOM     22  C   UNL     1       6.089   5.031  16.564  0.00  0.00    +0.000 C 
BRANCH  22  23
ATOM     23  O   UNL     1       6.184   4.167  15.419  0.00  0.00    +0.000 OA
BRANCH  23  24
ATOM     24  C   UNL     1       6.901   4.645  14.406  0.00  0.00    +0.000 A 
ATOM     25  N   UNL     1       7.872   5.530  14.465  0.00  0.00    +0.000 NA
ATOM     26  N   UNL     1       8.340   5.723  13.185  0.00  0.00    +0.000 NA
ATOM     27  C   UNL     1       7.643   4.950  12.383  0.00  0.00    +0.000 A 
ATOM     28  N   UNL     1       6.724   4.256  13.110  0.00  0.00    +0.000 N 
ATOM     29  C   UNL     1       5.762   3.320  12.603  0.00  0.00    +0.000 C 
ENDBRANCH  23  24
ENDBRANCH  22  23
ENDBRANCH   1  22
TORSDOF 7
ENDMDL
MODEL 2
REMARK VINA RESULT:      -8.0      3.743      9.216
REMARK  Name = 
REMARK  9 active torsions:
REMARK  status: ('A' for Active; 'I' for Inactive)
REMARK    1  A    between atoms: C_1  and  C_2
REMARK    2  A    between atoms: C_2  and  O_3
REMARK    3  A    between atoms: C_2  and  C_10
REMARK    4  A    between atoms: O_3  and  C_4
REMARK    5  A    between atoms: N_8  and  C_9
REMARK    6  A    between atoms: C_14  and  N_15
REMARK    7  A    between atoms: C_16  and  C_18
REMARK    8  A    between atoms: C_22  and  N_23
REMARK    9  A    between atoms: N_23  and  C_24
REMARK                            x       y       z     vdW  Elec       q    Type
REMARK                         _______ _______ _______ _____ _____    ______ ____
ROOT
ATOM      1  C   UNL     1       0.176  10.607  20.005  0.00  0.00    +0.000 A 
ATOM      2  C   UNL     1      -0.079  10.507  21.381  0.00  0.00    +0.000 A 
ATOM      3  C   UNL     1       0.473   9.471  22.125  0.00  0.00    +0.000 A 
ATOM      4  C   UNL     1       1.256   8.502  21.499  0.00  0.00    +0.000 A 
ATOM      5  C   UNL     1       1.507   8.562  20.124  0.00  0.00    +0.000 A 
ATOM      6  C   UNL     1       1.014   9.650  19.394  0.00  0.00    +0.000 A 
ENDROOT
BRANCH   5   7
ATOM      7  N   UNL     1       2.203   7.541  19.430  0.00  0.00    +0.000 N 
ATOM      8  C   UNL     1       2.208   6.208  19.817  0.00  0.00    +0.000 C 
ATOM      9  O   UNL     1       1.610   5.739  20.780  0.00  0.00    +0.000 OA
ATOM     10  H   UNL     1       2.523   7.764  18.498  0.00  0.00    +0.000 HD
BRANCH   8  11
ATOM     11  C   UNL     1       2.956   5.244  18.959  0.00  0.00    +0.000 A 
ATOM     12  C   UNL     1       2.362   4.541  17.911  0.00  0.00    +0.000 A 
ATOM     13  C   UNL     1       3.160   3.735  17.102  0.00  0.00    +0.000 A 
ATOM     14  C   UNL     1       4.545   3.647  17.322  0.00  0.00    +0.000 A 
ATOM     15  C   UNL     1       5.161   4.368  18.349  0.00  0.00    +0.000 A 
ATOM     16  C   UNL     1       4.338   5.125  19.188  0.00  0.00    +0.000 A 
BRANCH  15  17
ATOM     17  N   UNL     1       6.520   4.271  18.654  0.00  0.00    +0.000 N 
ATOM     18  H   UNL     1       6.760   4.715  19.535  0.00  0.00    +0.000 HD
BRANCH  17  19
ATOM     19  C   UNL     1       7.485   4.646  17.647  0.00  0.00    +0.000 C 
ATOM     20  F   UNL     1       7.846   5.930  17.907  0.00  0.00    +0.000 F 
ENDBRANCH  17  19
ENDBRANCH  15  17
ENDBRANCH   8  11
ENDBRANCH   5   7
BRANCH   1  22
ATOM     21  C   UNL     1       0.524  12.756  18.744  0.00  0.00    +0.000 C 
ATOM     22  C   UNL     1      -0.492  11.715  19.208  0.00  0.00    +0.000 C 
BRANCH  22  23
ATOM     23  O   UNL     1      -1.140  11.104  18.080  0.00  0.00    +0.000 OA
BRANCH  23  24
ATOM     24  C   UNL     1      -2.445  11.342  17.978  0.00  0.00    +0.000 A 
ATOM     25  N   UNL     1      -3.244  11.810  18.911  0.00  0.00    +0.000 NA
ATOM     26  N   UNL     1      -4.506  11.909  18.368  0.00  0.00    +0.000 NA
ATOM     27  C   UNL     1      -4.438  11.501  17.121  0.00  0.00    +0.000 A 
ATOM     28  N   UNL     1      -3.159  11.132  16.835  0.00  0.00    +0.000 N 
ATOM     29  C   UNL     1      -2.677  10.615  15.586  0.00  0.00    +0.000 C 
ENDBRANCH  23  24
ENDBRANCH  22  23
ENDBRANCH   1  22
TORSDOF 7
ENDMDL
MODEL 3
REMARK VINA RESULT:      -7.9      1.895      2.414
REMARK  Name = 
REMARK  9 active torsions:
REMARK  status: ('A' for Active; 'I' for Inactive)
REMARK    1  A    between atoms: C_1  and  C_2
REMARK    2  A    between atoms: C_2  and  O_3
REMARK    3  A    between atoms: C_2  and  C_10
REMARK    4  A    between atoms: O_3  and  C_4
REMARK    5  A    between atoms: N_8  and  C_9
REMARK    6  A    between atoms: C_14  and  N_15
REMARK    7  A    between atoms: C_16  and  C_18
REMARK    8  A    between atoms: C_22  and  N_23
REMARK    9  A    between atoms: N_23  and  C_24
REMARK                            x       y       z     vdW  Elec       q    Type
REMARK                         _______ _______ _______ _____ _____    ______ ____
ROOT
ATOM      1  C   UNL     1       4.691   5.028  17.076  0.00  0.00    +0.000 A 
ATOM      2  C   UNL     1       4.003   3.811  17.197  0.00  0.00    +0.000 A 
ATOM      3  C   UNL     1       2.693   3.788  17.661  0.00  0.00    +0.000 A 
ATOM      4  C   UNL     1       2.066   4.972  18.043  0.00  0.00    +0.000 A 
ATOM      5  C   UNL     1       2.735   6.198  17.956  0.00  0.00    +0.000 A 
ATOM      6  C   UNL     1       4.027   6.226  17.415  0.00  0.00    +0.000 A 
ENDROOT
BRANCH   5   7
ATOM      7  N   UNL     1       2.177   7.409  18.436  0.00  0.00    +0.000 N 
ATOM      8  C   UNL     1       1.766   7.604  19.747  0.00  0.00    +0.000 C 
ATOM      9  O   UNL     1       1.844   6.782  20.654  0.00  0.00    +0.000 OA
ATOM     10  H   UNL     1       2.290   8.223  17.849  0.00  0.00    +0.000 HD
BRANCH   8  11
ATOM     11  C   UNL     1       1.235   8.951  20.109  0.00  0.00    +0.000 A 
ATOM     12  C   UNL     1       0.879   9.301  21.411  0.00  0.00    +0.000 A 
ATOM     13  C   UNL     1       0.484  10.612  21.672  0.00  0.00    +0.000 A 
ATOM     14  C   UNL     1       0.465  11.572  20.648  0.00  0.00    +0.000 A 
ATOM     15  C   UNL     1       0.848  11.244  19.343  0.00  0.00    +0.000 A 
ATOM     16  C   UNL     1       1.184   9.913  19.085  0.00  0.00    +0.000 A 
BRANCH  15  17
ATOM     17  N   UNL     1       0.789  12.140  18.273  0.00  0.00    +0.000 N 
ATOM     18  H   UNL     1       0.737  11.675  17.371  0.00  0.00    +0.000 HD
BRANCH  17  19
ATOM     19  C   UNL     1       1.757  13.210  18.209  0.00  0.00    +0.000 C 
ATOM     20  F   UNL     1       2.772  12.872  19.045  0.00  0.00    +0.000 F 
ENDBRANCH  17  19
ENDBRANCH  15  17
ENDBRANCH   8  11
ENDBRANCH   5   7
BRANCH   1  22
ATOM     21  C   UNL     1       7.065   4.521  17.738  0.00  0.00    +0.000 C 
ATOM     22  C   UNL     1       6.142   5.014  16.625  0.00  0.00    +0.000 C 
BRANCH  22  23
ATOM     23  O   UNL     1       6.228   4.152  15.479  0.00  0.00    +0.000 OA
BRANCH  23  24
ATOM     24  C   UNL     1       6.911   4.645  14.449  0.00  0.00    +0.000 A 
ATOM     25  N   UNL     1       7.863   5.551  14.485  0.00  0.00    +0.000 NA
ATOM     26  N   UNL     1       8.297   5.753  13.193  0.00  0.00    +0.000 NA
ATOM     27  C   UNL     1       7.598   4.964  12.409  0.00  0.00    +0.000 A 
ATOM     28  N   UNL     1       6.712   4.250  13.158  0.00  0.00    +0.000 N 
ATOM     29  C   UNL     1       5.759   3.293  12.674  0.00  0.00    +0.000 C 
ENDBRANCH  23  24
ENDBRANCH  22  23
ENDBRANCH   1  22
TORSDOF 7
ENDMDL
MODEL 4
REMARK VINA RESULT:      -7.9      2.258      2.708
REMARK  Name = 
REMARK  9 active torsions:
REMARK  status: ('A' for Active; 'I' for Inactive)
REMARK    1  A    between atoms: C_1  and  C_2
REMARK    2  A    between atoms: C_2  and  O_3
REMARK    3  A    between atoms: C_2  and  C_10
REMARK    4  A    between atoms: O_3  and  C_4
REMARK    5  A    between atoms: N_8  and  C_9
REMARK    6  A    between atoms: C_14  and  N_15
REMARK    7  A    between atoms: C_16  and  C_18
REMARK    8  A    between atoms: C_22  and  N_23
REMARK    9  A    between atoms: N_23  and  C_24
REMARK                            x       y       z     vdW  Elec       q    Type
REMARK                         _______ _______ _______ _____ _____    ______ ____
ROOT
ATOM      1  C   UNL     1       4.838   5.178  17.119  0.00  0.00    +0.000 A 
ATOM      2  C   UNL     1       4.239   4.009  17.614  0.00  0.00    +0.000 A 
ATOM      3  C   UNL     1       2.957   4.047  18.147  0.00  0.00    +0.000 A 
ATOM      4  C   UNL     1       2.270   5.258  18.227  0.00  0.00    +0.000 A 
ATOM      5  C   UNL     1       2.850   6.443  17.764  0.00  0.00    +0.000 A 
ATOM      6  C   UNL     1       4.111   6.386  17.156  0.00  0.00    +0.000 A 
ENDROOT
BRANCH   5   7
ATOM      7  N   UNL     1       2.234   7.710  17.926  0.00  0.00    +0.000 N 
ATOM      8  C   UNL     1       1.869   8.239  19.155  0.00  0.00    +0.000 C 
ATOM      9  O   UNL     1       2.041   7.705  20.247  0.00  0.00    +0.000 OA
ATOM     10  H   UNL     1       2.268   8.334  17.133  0.00  0.00    +0.000 HD
BRANCH   8  11
ATOM     11  C   UNL     1       1.266   9.604  19.166  0.00  0.00    +0.000 A 
ATOM     12  C   UNL     1       0.157   9.938  19.943  0.00  0.00    +0.000 A 
ATOM     13  C   UNL     1      -0.277  11.263  19.963  0.00  0.00    +0.000 A 
ATOM     14  C   UNL     1       0.402  12.251  19.231  0.00  0.00    +0.000 A 
ATOM     15  C   UNL     1       1.533  11.937  18.471  0.00  0.00    +0.000 A 
ATOM     16  C   UNL     1       1.920  10.596  18.415  0.00  0.00    +0.000 A 
BRANCH  15  17
ATOM     17  N   UNL     1       2.210  12.864  17.676  0.00  0.00    +0.000 N 
ATOM     18  H   UNL     1       2.808  12.426  16.981  0.00  0.00    +0.000 HD
BRANCH  17  19
ATOM     19  C   UNL     1       2.927  13.939  18.319  0.00  0.00    +0.000 C 
ATOM     20  F   UNL     1       2.233  15.080  18.069  0.00  0.00    +0.000 F 
ENDBRANCH  17  19
ENDBRANCH  15  17
ENDBRANCH   8  11
ENDBRANCH   5   7
BRANCH   1  22
ATOM     21  C   UNL     1       7.227   4.621  17.678  0.00  0.00    +0.000 C 
ATOM     22  C   UNL     1       6.264   5.114  16.599  0.00  0.00    +0.000 C 
BRANCH  22  23
ATOM     23  O   UNL     1       6.272   4.225  15.471  0.00  0.00    +0.000 OA
BRANCH  23  24
ATOM     24  C   UNL     1       6.928   4.669  14.402  0.00  0.00    +0.000 A 
ATOM     25  N   UNL     1       7.918   5.534  14.379  0.00  0.00    +0.000 NA
ATOM     26  N   UNL     1       8.302   5.695  13.066  0.00  0.00    +0.000 NA
ATOM     27  C   UNL     1       7.536   4.923  12.329  0.00  0.00    +0.000 A 
ATOM     28  N   UNL     1       6.656   4.261  13.130  0.00  0.00    +0.000 N 
ATOM     29  C   UNL     1       5.642   3.337  12.707  0.00  0.00    +0.000 C 
ENDBRANCH  23  24
ENDBRANCH  22  23
ENDBRANCH   1  22
TORSDOF 7
ENDMDL
MODEL 5
REMARK VINA RESULT:      -7.8      4.997      7.369
REMARK  Name = 
REMARK  9 active torsions:
REMARK  status: ('A' for Active; 'I' for Inactive)
REMARK    1  A    between atoms: C_1  and  C_2
REMARK    2  A    between atoms: C_2  and  O_3
REMARK    3  A    between atoms: C_2  and  C_10
REMARK    4  A    between atoms: O_3  and  C_4
REMARK    5  A    between atoms: N_8  and  C_9
REMARK    6  A    between atoms: C_14  and  N_15
REMARK    7  A    between atoms: C_16  and  C_18
REMARK    8  A    between atoms: C_22  and  N_23
REMARK    9  A    between atoms: N_23  and  C_24
REMARK                            x       y       z     vdW  Elec       q    Type
REMARK                         _______ _______ _______ _____ _____    ______ ____
ROOT
ATOM      1  C   UNL     1       4.842   5.213  17.118  0.00  0.00    +0.000 A 
ATOM      2  C   UNL     1       5.386   4.447  16.077  0.00  0.00    +0.000 A 
ATOM      3  C   UNL     1       6.558   4.848  15.446  0.00  0.00    +0.000 A 
ATOM      4  C   UNL     1       7.181   6.037  15.822  0.00  0.00    +0.000 A 
ATOM      5  C   UNL     1       6.648   6.835  16.840  0.00  0.00    +0.000 A 
ATOM      6  C   UNL     1       5.511   6.386  17.525  0.00  0.00    +0.000 A 
ENDROOT
BRANCH   5   7
ATOM      7  N   UNL     1       7.186   8.102  17.179  0.00  0.00    +0.000 N 
ATOM      8  C   UNL     1       8.113   8.302  18.192  0.00  0.00    +0.000 C 
ATOM      9  O   UNL     1       8.597   7.428  18.905  0.00  0.00    +0.000 OA
ATOM     10  H   UNL     1       7.049   8.845  16.508  0.00  0.00    +0.000 HD
BRANCH   8  11
ATOM     11  C   UNL     1       8.616   9.690  18.401  0.00  0.00    +0.000 A 
ATOM     12  C   UNL     1       9.732   9.984  19.185  0.00  0.00    +0.000 A 
ATOM     13  C   UNL     1      10.186  11.300  19.244  0.00  0.00    +0.000 A 
ATOM     14  C   UNL     1       9.548  12.313  18.510  0.00  0.00    +0.000 A 
ATOM     15  C   UNL     1       8.446  12.030  17.696  0.00  0.00    +0.000 A 
ATOM     16  C   UNL     1       7.967  10.717  17.693  0.00  0.00    +0.000 A 
BRANCH  15  17
ATOM     17  N   UNL     1       7.734  13.005  16.995  0.00  0.00    +0.000 N 
ATOM     18  H   UNL     1       8.164  13.245  16.106  0.00  0.00    +0.000 HD
BRANCH  17  19
ATOM     19  C   UNL     1       7.347  14.213  17.684  0.00  0.00    +0.000 C 
ATOM     20  F   UNL     1       6.023  14.395  17.444  0.00  0.00    +0.000 F 
ENDBRANCH  17  19
ENDBRANCH  15  17
ENDBRANCH   8  11
ENDBRANCH   5   7
BRANCH   1  22
ATOM     21  C   UNL     1       3.090   3.410  17.230  0.00  0.00    +0.000 C 
ATOM     22  C   UNL     1       3.527   4.780  17.745  0.00  0.00    +0.000 C 
BRANCH  22  23
ATOM     23  O   UNL     1       3.720   4.746  19.168  0.00  0.00    +0.000 OA
BRANCH  23  24
ATOM     24  C   UNL     1       2.773   4.110  19.854  0.00  0.00    +0.000 A 
ATOM     25  N   UNL     1       1.533   4.500  20.048  0.00  0.00    +0.000 NA
ATOM     26  N   UNL     1       0.904   3.534  20.801  0.00  0.00    +0.000 NA
ATOM     27  C   UNL     1       1.778   2.583  21.042  0.00  0.00    +0.000 A 
ATOM     28  N   UNL     1       2.969   2.907  20.466  0.00  0.00    +0.000 N 
ATOM     29  C   UNL     1       4.180   2.138  20.514  0.00  0.00    +0.000 C 
ENDBRANCH  23  24
ENDBRANCH  22  23
ENDBRANCH   1  22
TORSDOF 7
ENDMDL
MODEL 6
REMARK VINA RESULT:      -7.8      3.669      9.245
REMARK  Name = 
REMARK  9 active torsions:
REMARK  status: ('A' for Active; 'I' for Inactive)
REMARK    1  A    between atoms: C_1  and  C_2
REMARK    2  A    between atoms: C_2  and  O_3
REMARK    3  A    between atoms: C_2  and  C_10
REMARK    4  A    between atoms: O_3  and  C_4
REMARK    5  A    between atoms: N_8  and  C_9
REMARK    6  A    between atoms: C_14  and  N_15
REMARK    7  A    between atoms: C_16  and  C_18
REMARK    8  A    between atoms: C_22  and  N_23
REMARK    9  A    between atoms: N_23  and  C_24
REMARK                            x       y       z     vdW  Elec       q    Type
REMARK                         _______ _______ _______ _____ _____    ______ ____
ROOT
ATOM      1  C   UNL     1      -0.214  10.360  20.016  0.00  0.00    +0.000 A 
ATOM      2  C   UNL     1      -0.387  10.112  21.386  0.00  0.00    +0.000 A 
ATOM      3  C   UNL     1       0.368   9.135  22.025  0.00  0.00    +0.000 A 
ATOM      4  C   UNL     1       1.277   8.370  21.297  0.00  0.00    +0.000 A 
ATOM      5  C   UNL     1       1.453   8.577  19.925  0.00  0.00    +0.000 A 
ATOM      6  C   UNL     1       0.748   9.615  19.303  0.00  0.00    +0.000 A 
ENDROOT
BRANCH   5   7
ATOM      7  N   UNL     1       2.284   7.750  19.127  0.00  0.00    +0.000 N 
ATOM      8  C   UNL     1       2.434   6.385  19.326  0.00  0.00    +0.000 C 
ATOM      9  O   UNL     1       1.868   5.719  20.187  0.00  0.00    +0.000 OA
ATOM     10  H   UNL     1       2.601   8.139  18.250  0.00  0.00    +0.000 HD
BRANCH   8  11
ATOM     11  C   UNL     1       3.313   5.643  18.376  0.00  0.00    +0.000 A 
ATOM     12  C   UNL     1       3.026   4.355  17.924  0.00  0.00    +0.000 A 
ATOM     13  C   UNL     1       3.855   3.779  16.963  0.00  0.00    +0.000 A 
ATOM     14  C   UNL     1       4.948   4.488  16.440  0.00  0.00    +0.000 A 
ATOM     15  C   UNL     1       5.231   5.792  16.860  0.00  0.00    +0.000 A 
ATOM     16  C   UNL     1       4.427   6.333  17.866  0.00  0.00    +0.000 A 
BRANCH  15  17
ATOM     17  N   UNL     1       6.338   6.521  16.422  0.00  0.00    +0.000 N 
ATOM     18  H   UNL     1       7.012   5.951  15.919  0.00  0.00    +0.000 HD
BRANCH  17  19
ATOM     19  C   UNL     1       7.032   7.365  17.367  0.00  0.00    +0.000 C 
ATOM     20  F   UNL     1       7.940   6.580  18.002  0.00  0.00    +0.000 F 
ENDBRANCH  17  19
ENDBRANCH  15  17
ENDBRANCH   8  11
ENDBRANCH   5   7
BRANCH   1  22
ATOM     21  C   UNL     1      -0.287  12.600  18.872  0.00  0.00    +0.000 C 
ATOM     22  C   UNL     1      -1.098  11.391  19.335  0.00  0.00    +0.000 C 
BRANCH  22  23
ATOM     23  O   UNL     1      -1.727  10.747  18.215  0.00  0.00    +0.000 OA
BRANCH  23  24
ATOM     24  C   UNL     1      -2.952  11.178  17.927  0.00  0.00    +0.000 A 
ATOM     25  N   UNL     1      -3.840  11.670  18.763  0.00  0.00    +0.000 NA
ATOM     26  N   UNL     1      -4.963  11.998  18.036  0.00  0.00    +0.000 NA
ATOM     27  C   UNL     1      -4.725  11.698  16.779  0.00  0.00    +0.000 A 
ATOM     28  N   UNL     1      -3.472  11.177  16.666  0.00  0.00    +0.000 N 
ATOM     29  C   UNL     1      -2.844  10.711  15.463  0.00  0.00    +0.000 C 
ENDBRANCH  23  24
ENDBRANCH  22  23
ENDBRANCH   1  22
TORSDOF 7
ENDMDL
MODEL 7
REMARK VINA RESULT:      -7.8      5.199      7.247
REMARK  Name = 
REMARK  9 active torsions:
REMARK  status: ('A' for Active; 'I' for Inactive)
REMARK    1  A    between atoms: C_1  and  C_2
REMARK    2  A    between atoms: C_2  and  O_3
REMARK    3  A    between atoms: C_2  and  C_10
REMARK    4  A    between atoms: O_3  and  C_4
REMARK    5  A    between atoms: N_8  and  C_9
REMARK    6  A    between atoms: C_14  and  N_15
REMARK    7  A    between atoms: C_16  and  C_18
REMARK    8  A    between atoms: C_22  and  N_23
REMARK    9  A    between atoms: N_23  and  C_24
REMARK                            x       y       z     vdW  Elec       q    Type
REMARK                         _______ _______ _______ _____ _____    ______ ____
ROOT
ATOM      1  C   UNL     1       4.735   5.261  16.990  0.00  0.00    +0.000 A 
ATOM      2  C   UNL     1       5.331   4.463  16.002  0.00  0.00    +0.000 A 
ATOM      3  C   UNL     1       6.554   4.825  15.449  0.00  0.00    +0.000 A 
ATOM      4  C   UNL     1       7.179   6.005  15.850  0.00  0.00    +0.000 A 
ATOM      5  C   UNL     1       6.597   6.833  16.815  0.00  0.00    +0.000 A 
ATOM      6  C   UNL     1       5.404   6.424  17.426  0.00  0.00    +0.000 A 
ENDROOT
BRANCH   5   7
ATOM      7  N   UNL     1       7.142   8.092  17.171  0.00  0.00    +0.000 N 
ATOM      8  C   UNL     1       8.082   8.271  18.176  0.00  0.00    +0.000 C 
ATOM      9  O   UNL     1       8.573   7.383  18.865  0.00  0.00    +0.000 OA
ATOM     10  H   UNL     1       6.998   8.848  16.517  0.00  0.00    +0.000 HD
BRANCH   8  11
ATOM     11  C   UNL     1       8.591   9.654  18.405  0.00  0.00    +0.000 A 
ATOM     12  C   UNL     1       9.672   9.937  19.239  0.00  0.00    +0.000 A 
ATOM     13  C   UNL     1      10.139  11.248  19.317  0.00  0.00    +0.000 A 
ATOM     14  C   UNL     1       9.546  12.266  18.552  0.00  0.00    +0.000 A 
ATOM     15  C   UNL     1       8.480  11.994  17.689  0.00  0.00    +0.000 A 
ATOM     16  C   UNL     1       7.987  10.687  17.667  0.00  0.00    +0.000 A 
BRANCH  15  17
ATOM     17  N   UNL     1       7.812  12.975  16.953  0.00  0.00    +0.000 N 
ATOM     18  H   UNL     1       8.335  13.282  16.138  0.00  0.00    +0.000 HD
BRANCH  17  19
ATOM     19  C   UNL     1       7.285  14.126  17.649  0.00  0.00    +0.000 C 
ATOM     20  F   UNL     1       8.237  15.092  17.588  0.00  0.00    +0.000 F 
ENDBRANCH  17  19
ENDBRANCH  15  17
ENDBRANCH   8  11
ENDBRANCH   5   7
BRANCH   1  22
ATOM     21  C   UNL     1       2.990   3.451  17.110  0.00  0.00    +0.000 C 
ATOM     22  C   UNL     1       3.369   4.870  17.530  0.00  0.00    +0.000 C 
BRANCH  22  23
ATOM     23  O   UNL     1       3.426   4.974  18.962  0.00  0.00    +0.000 OA
BRANCH  23  24
ATOM     24  C   UNL     1       3.740   3.850  19.600  0.00  0.00    +0.000 A 
ATOM     25  N   UNL     1       4.895   3.222  19.585  0.00  0.00    +0.000 NA
ATOM     26  N   UNL     1       4.777   2.112  20.392  0.00  0.00    +0.000 NA
ATOM     27  C   UNL     1       3.555   2.097  20.875  0.00  0.00    +0.000 A 
ATOM     28  N   UNL     1       2.868   3.172  20.400  0.00  0.00    +0.000 N 
ATOM     29  C   UNL     1       1.500   3.504  20.680  0.00  0.00    +0.000 C 
ENDBRANCH  23  24
ENDBRANCH  22  23
ENDBRANCH   1  22
TORSDOF 7
ENDMDL
MODEL 8
REMARK VINA RESULT:      -7.7      3.826      9.320
REMARK  Name = 
REMARK  9 active torsions:
REMARK  status: ('A' for Active; 'I' for Inactive)
REMARK    1  A    between atoms: C_1  and  C_2
REMARK    2  A    between atoms: C_2  and  O_3
REMARK    3  A    between atoms: C_2  and  C_10
REMARK    4  A    between atoms: O_3  and  C_4
REMARK    5  A    between atoms: N_8  and  C_9
REMARK    6  A    between atoms: C_14  and  N_15
REMARK    7  A    between atoms: C_16  and  C_18
REMARK    8  A    between atoms: C_22  and  N_23
REMARK    9  A    between atoms: N_23  and  C_24
REMARK                            x       y       z     vdW  Elec       q    Type
REMARK                         _______ _______ _______ _____ _____    ______ ____
ROOT
ATOM      1  C   UNL     1      -0.308  10.473  20.094  0.00  0.00    +0.000 A 
ATOM      2  C   UNL     1      -0.459  10.118  21.443  0.00  0.00    +0.000 A 
ATOM      3  C   UNL     1       0.337   9.126  22.003  0.00  0.00    +0.000 A 
ATOM      4  C   UNL     1       1.267   8.451  21.214  0.00  0.00    +0.000 A 
ATOM      5  C   UNL     1       1.423   8.765  19.860  0.00  0.00    +0.000 A 
ATOM      6  C   UNL     1       0.674   9.819  19.321  0.00  0.00    +0.000 A 
ENDROOT
BRANCH   5   7
ATOM      7  N   UNL     1       2.275   8.031  18.998  0.00  0.00    +0.000 N 
ATOM      8  C   UNL     1       2.483   6.663  19.099  0.00  0.00    +0.000 C 
ATOM      9  O   UNL     1       1.956   5.915  19.917  0.00  0.00    +0.000 OA
ATOM     10  H   UNL     1       2.565   8.493  18.147  0.00  0.00    +0.000 HD
BRANCH   8  11
ATOM     11  C   UNL     1       3.379   6.026  18.091  0.00  0.00    +0.000 A 
ATOM     12  C   UNL     1       4.196   6.758  17.229  0.00  0.00    +0.000 A 
ATOM     13  C   UNL     1       5.071   6.075  16.387  0.00  0.00    +0.000 A 
ATOM     14  C   UNL     1       5.149   4.673  16.418  0.00  0.00    +0.000 A 
ATOM     15  C   UNL     1       4.358   3.926  17.297  0.00  0.00    +0.000 A 
ATOM     16  C   UNL     1       3.444   4.621  18.092  0.00  0.00    +0.000 A 
BRANCH  15  17
ATOM     17  N   UNL     1       4.347   2.530  17.327  0.00  0.00    +0.000 N 
ATOM     18  H   UNL     1       4.319   2.114  16.401  0.00  0.00    +0.000 HD
BRANCH  17  19
ATOM     19  C   UNL     1       3.395   1.861  18.183  0.00  0.00    +0.000 C 
ATOM     20  F   UNL     1       3.964   0.688  18.563  0.00  0.00    +0.000 F 
ENDBRANCH  17  19
ENDBRANCH  15  17
ENDBRANCH   8  11
ENDBRANCH   5   7
BRANCH   1  22
ATOM     21  C   UNL     1      -0.509  12.843  19.271  0.00  0.00    +0.000 C 
ATOM     22  C   UNL     1      -1.236  11.518  19.497  0.00  0.00    +0.000 C 
BRANCH  22  23
ATOM     23  O   UNL     1      -1.729  10.995  18.253  0.00  0.00    +0.000 OA
BRANCH  23  24
ATOM     24  C   UNL     1      -2.984  11.324  17.958  0.00  0.00    +0.000 A 
ATOM     25  N   UNL     1      -3.899  11.790  18.779  0.00  0.00    +0.000 NA
ATOM     26  N   UNL     1      -5.047  12.003  18.048  0.00  0.00    +0.000 NA
ATOM     27  C   UNL     1      -4.798  11.661  16.804  0.00  0.00    +0.000 A 
ATOM     28  N   UNL     1      -3.511  11.226  16.703  0.00  0.00    +0.000 N 
ATOM     29  C   UNL     1      -2.859  10.750  15.517  0.00  0.00    +0.000 C 
ENDBRANCH  23  24
ENDBRANCH  22  23
ENDBRANCH   1  22
TORSDOF 7
ENDMDL
MODEL 9
REMARK VINA RESULT:      -7.7      3.733      9.007
REMARK  Name = 
REMARK  9 active torsions:
REMARK  status: ('A' for Active; 'I' for Inactive)
REMARK    1  A    between atoms: C_1  and  C_2
REMARK    2  A    between atoms: C_2  and  O_3
REMARK    3  A    between atoms: C_2  and  C_10
REMARK    4  A    between atoms: O_3  and  C_4
REMARK    5  A    between atoms: N_8  and  C_9
REMARK    6  A    between atoms: C_14  and  N_15
REMARK    7  A    between atoms: C_16  and  C_18
REMARK    8  A    between atoms: C_22  and  N_23
REMARK    9  A    between atoms: N_23  and  C_24
REMARK                            x       y       z     vdW  Elec       q    Type
REMARK                         _______ _______ _______ _____ _____    ______ ____
ROOT
ATOM      1  C   UNL     1      -0.001  10.742  20.095  0.00  0.00    +0.000 A 
ATOM      2  C   UNL     1      -0.239  10.755  21.478  0.00  0.00    +0.000 A 
ATOM      3  C   UNL     1       0.296   9.764  22.292  0.00  0.00    +0.000 A 
ATOM      4  C   UNL     1       1.043   8.729  21.733  0.00  0.00    +0.000 A 
ATOM      5  C   UNL     1       1.276   8.676  20.355  0.00  0.00    +0.000 A 
ATOM      6  C   UNL     1       0.801   9.719  19.549  0.00  0.00    +0.000 A 
ENDROOT
BRANCH   5   7
ATOM      7  N   UNL     1       1.934   7.586  19.732  0.00  0.00    +0.000 N 
ATOM      8  C   UNL     1       2.405   7.611  18.427  0.00  0.00    +0.000 C 
ATOM      9  O   UNL     1       2.335   8.564  17.657  0.00  0.00    +0.000 OA
ATOM     10  H   UNL     1       2.262   6.848  20.340  0.00  0.00    +0.000 HD
BRANCH   8  11
ATOM     11  C   UNL     1       3.115   6.399  17.927  0.00  0.00    +0.000 A 
ATOM     12  C   UNL     1       4.456   6.407  17.543  0.00  0.00    +0.000 A 
ATOM     13  C   UNL     1       5.060   5.205  17.180  0.00  0.00    +0.000 A 
ATOM     14  C   UNL     1       4.340   4.000  17.220  0.00  0.00    +0.000 A 
ATOM     15  C   UNL     1       3.004   3.970  17.630  0.00  0.00    +0.000 A 
ATOM     16  C   UNL     1       2.395   5.190  17.934  0.00  0.00    +0.000 A 
BRANCH  15  17
ATOM     17  N   UNL     1       2.221   2.813  17.629  0.00  0.00    +0.000 N 
ATOM     18  H   UNL     1       1.524   2.808  16.890  0.00  0.00    +0.000 HD
BRANCH  17  19
ATOM     19  C   UNL     1       1.613   2.385  18.867  0.00  0.00    +0.000 C 
ATOM     20  F   UNL     1       0.287   2.226  18.619  0.00  0.00    +0.000 F 
ENDBRANCH  17  19
ENDBRANCH  15  17
ENDBRANCH   8  11
ENDBRANCH   5   7
BRANCH   1  22
ATOM     21  C   UNL     1       0.380  12.806  18.707  0.00  0.00    +0.000 C 
ATOM     22  C   UNL     1      -0.651  11.804  19.224  0.00  0.00    +0.000 C 
BRANCH  22  23
ATOM     23  O   UNL     1      -1.292  11.130  18.129  0.00  0.00    +0.000 OA
BRANCH  23  24
ATOM     24  C   UNL     1      -2.595  11.370  18.000  0.00  0.00    +0.000 A 
ATOM     25  N   UNL     1      -3.419  11.806  18.926  0.00  0.00    +0.000 NA
ATOM     26  N   UNL     1      -4.667  11.922  18.355  0.00  0.00    +0.000 NA
ATOM     27  C   UNL     1      -4.565  11.554  17.097  0.00  0.00    +0.000 A 
ATOM     28  N   UNL     1      -3.278  11.196  16.833  0.00  0.00    +0.000 N 
ATOM     29  C   UNL     1      -2.762  10.721  15.581  0.00  0.00    +0.000 C 
ENDBRANCH  23  24
ENDBRANCH  22  23
ENDBRANCH   1  22
TORSDOF 7
ENDMDL
