MODEL 1
REMARK VINA RESULT:      -8.4      0.000      0.000
REMARK  Name = 
REMARK  7 active torsions:
REMARK  status: ('A' for Active; 'I' for Inactive)
REMARK    1  A    between atoms: C_1  and  C_2
REMARK    2  A    between atoms: C_6  and  C_7
REMARK    3  A    between atoms: C_7  and  C_8
REMARK    4  A    between atoms: C_18  and  S_19
REMARK    5  A    between atoms: S_19  and  N_22
REMARK    6  A    between atoms: N_22  and  C_23
REMARK    7  A    between atoms: N_22  and  C_24
REMARK                            x       y       z     vdW  Elec       q    Type
REMARK                         _______ _______ _______ _____ _____    ______ ____
ROOT
ATOM      1  C   UNL     1       3.134   4.772  19.717  0.00  0.00    +0.000 C 
ATOM      2  O   UNL     1       3.329   4.410  20.893  0.00  0.00    +0.000 OA
ATOM      3  N   UNL     1       2.543   6.023  19.500  0.00  0.00    +0.000 N 
ATOM      4  C   UNL     1       2.549   6.779  18.256  0.00  0.00    +0.000 C 
ATOM      5  C   UNL     1       1.980   8.230  18.330  0.00  0.00    +0.000 C 
ATOM      6  C   UNL     1       1.468   8.721  19.667  0.00  0.00    +0.000 A 
ATOM      7  C   UNL     1       1.366   7.774  20.712  0.00  0.00    +0.000 A 
ATOM      8  C   UNL     1       1.105   8.170  22.030  0.00  0.00    +0.000 A 
ATOM      9  C   UNL     1       0.887   9.500  22.334  0.00  0.00    +0.000 A 
ATOM     10  C   UNL     1       0.859  10.436  21.303  0.00  0.00    +0.000 A 
ATOM     11  C   UNL     1       1.114  10.050  19.971  0.00  0.00    +0.000 A 
ATOM     12  C   UNL     1       1.456   6.313  20.401  0.00  0.00    +0.000 C 
ENDROOT
BRANCH   1  13
ATOM     13  C   UNL     1       3.368   3.762  18.523  0.00  0.00    +0.000 C 
ATOM     14  C   UNL     1       3.132   2.219  18.639  0.00  0.00    +0.000 C 
ATOM     15  C   UNL     1       1.694   2.413  18.151  0.00  0.00    +0.000 C 
ATOM     16  C   UNL     1       2.129   3.733  17.517  0.00  0.00    +0.000 C 
BRANCH  13  22
ATOM     17  C   UNL     1       6.168   4.083  14.250  0.00  0.00    +0.000 C 
ATOM     18  C   UNL     1       6.082   4.367  15.720  0.00  0.00    +0.000 A 
ATOM     19  C   UNL     1       7.203   4.743  16.459  0.00  0.00    +0.000 A 
ATOM     20  C   UNL     1       7.102   4.905  17.838  0.00  0.00    +0.000 A 
ATOM     21  C   UNL     1       5.892   4.651  18.491  0.00  0.00    +0.000 A 
ATOM     22  C   UNL     1       4.744   4.234  17.788  0.00  0.00    +0.000 A 
ATOM     23  C   UNL     1       4.868   4.151  16.385  0.00  0.00    +0.000 A 
ENDBRANCH  13  22
ENDBRANCH   1  13
BRANCH  11  24
ATOM     24  S   UNL     1       0.934  11.360  18.754  0.00  0.00    +0.000 S 
ATOM     25  O   UNL     1       2.216  11.496  18.083  0.00  0.00    +0.000 OA
ATOM     26  O   UNL     1      -0.272  11.139  17.994  0.00  0.00    +0.000 OA
BRANCH  24  27
ATOM     27  N   UNL     1       0.720  12.755  19.716  0.00  0.00    +0.000 NA
ATOM     28  C   UNL     1       1.856  13.679  19.850  0.00  0.00    +0.000 C 
ATOM     29  C   UNL     1      -0.580  13.449  19.649  0.00  0.00    +0.000 C 
ENDBRANCH  24  27
ENDBRANCH  11  24
TORSDOF 4
ENDMDL
MODEL 2
REMARK VINA RESULT:      -8.2      0.974      1.218
REMARK  Name = 
REMARK  7 active torsions:
REMARK  status: ('A' for Active; 'I' for Inactive)
REMARK    1  A    between atoms: C_1  and  C_2
REMARK    2  A    between atoms: C_6  and  C_7
REMARK    3  A    between atoms: C_7  and  C_8
REMARK    4  A    between atoms: C_18  and  S_19
REMARK    5  A    between atoms: S_19  and  N_22
REMARK    6  A    between atoms: N_22  and  C_23
REMARK    7  A    between atoms: N_22  and  C_24
REMARK                            x       y       z     vdW  Elec       q    Type
REMARK                         _______ _______ _______ _____ _____    ______ ____
ROOT
ATOM      1  C   UNL     1       2.817   4.798  20.017  0.00  0.00    +0.000 C 
ATOM      2  O   UNL     1       2.847   4.411  21.201  0.00  0.00    +0.000 OA
ATOM      3  N   UNL     1       2.341   6.089  19.756  0.00  0.00    +0.000 N 
ATOM      4  C   UNL     1       2.544   6.856  18.535  0.00  0.00    +0.000 C 
ATOM      5  C   UNL     1       2.069   8.342  18.568  0.00  0.00    +0.000 C 
ATOM      6  C   UNL     1       1.437   8.853  19.846  0.00  0.00    +0.000 A 
ATOM      7  C   UNL     1       1.150   7.904  20.854  0.00  0.00    +0.000 A 
ATOM      8  C   UNL     1       0.762   8.304  22.139  0.00  0.00    +0.000 A 
ATOM      9  C   UNL     1       0.600   9.643  22.440  0.00  0.00    +0.000 A 
ATOM     10  C   UNL     1       0.756  10.589  21.431  0.00  0.00    +0.000 A 
ATOM     11  C   UNL     1       1.140  10.200  20.130  0.00  0.00    +0.000 A 
ATOM     12  C   UNL     1       1.176   6.444  20.528  0.00  0.00    +0.000 C 
ENDROOT
BRANCH   1  13
ATOM     13  C   UNL     1       3.121   3.787  18.840  0.00  0.00    +0.000 C 
ATOM     14  C   UNL     1       2.895   2.243  18.949  0.00  0.00    +0.000 C 
ATOM     15  C   UNL     1       1.482   2.419  18.389  0.00  0.00    +0.000 C 
ATOM     16  C   UNL     1       1.935   3.742  17.773  0.00  0.00    +0.000 C 
BRANCH  13  22
ATOM     17  C   UNL     1       6.177   4.028  14.741  0.00  0.00    +0.000 C 
ATOM     18  C   UNL     1       5.990   4.364  16.190  0.00  0.00    +0.000 A 
ATOM     19  C   UNL     1       7.051   4.802  16.982  0.00  0.00    +0.000 A 
ATOM     20  C   UNL     1       6.859   5.013  18.345  0.00  0.00    +0.000 A 
ATOM     21  C   UNL     1       5.617   4.749  18.930  0.00  0.00    +0.000 A 
ATOM     22  C   UNL     1       4.527   4.271  18.175  0.00  0.00    +0.000 A 
ATOM     23  C   UNL     1       4.743   4.139  16.787  0.00  0.00    +0.000 A 
ENDBRANCH  13  22
ENDBRANCH   1  13
BRANCH  11  24
ATOM     24  S   UNL     1       1.193  11.533  18.925  0.00  0.00    +0.000 S 
ATOM     25  O   UNL     1       1.458  12.758  19.659  0.00  0.00    +0.000 OA
ATOM     26  O   UNL     1       2.037  11.141  17.822  0.00  0.00    +0.000 OA
BRANCH  24  27
ATOM     27  N   UNL     1      -0.419  11.617  18.370  0.00  0.00    +0.000 NA
ATOM     28  C   UNL     1      -1.088  10.359  18.006  0.00  0.00    +0.000 C 
ATOM     29  C   UNL     1      -1.325  12.582  19.021  0.00  0.00    +0.000 C 
ENDBRANCH  24  27
ENDBRANCH  11  24
TORSDOF 4
ENDMDL
MODEL 3
REMARK VINA RESULT:      -8.2      0.560      1.407
REMARK  Name = 
REMARK  7 active torsions:
REMARK  status: ('A' for Active; 'I' for Inactive)
REMARK    1  A    between atoms: C_1  and  C_2
REMARK    2  A    between atoms: C_6  and  C_7
REMARK    3  A    between atoms: C_7  and  C_8
REMARK    4  A    between atoms: C_18  and  S_19
REMARK    5  A    between atoms: S_19  and  N_22
REMARK    6  A    between atoms: N_22  and  C_23
REMARK    7  A    between atoms: N_22  and  C_24
REMARK                            x       y       z     vdW  Elec       q    Type
REMARK                         _______ _______ _______ _____ _____    ______ ____
ROOT
ATOM      1  C   UNL     1       3.188   4.950  19.691  0.00  0.00    +0.000 C 
ATOM      2  O   UNL     1       3.361   4.555  20.860  0.00  0.00    +0.000 OA
ATOM      3  N   UNL     1       2.565   6.190  19.498  0.00  0.00    +0.000 N 
ATOM      4  C   UNL     1       2.582   6.986  18.279  0.00  0.00    +0.000 C 
ATOM      5  C   UNL     1       1.968   8.417  18.383  0.00  0.00    +0.000 C 
ATOM      6  C   UNL     1       1.405   8.848  19.721  0.00  0.00    +0.000 A 
ATOM      7  C   UNL     1       1.304   7.864  20.732  0.00  0.00    +0.000 A 
ATOM      8  C   UNL     1       0.994   8.210  22.054  0.00  0.00    +0.000 A 
ATOM      9  C   UNL     1       0.729   9.522  22.394  0.00  0.00    +0.000 A 
ATOM     10  C   UNL     1       0.701  10.490  21.393  0.00  0.00    +0.000 A 
ATOM     11  C   UNL     1       1.003  10.155  20.057  0.00  0.00    +0.000 A 
ATOM     12  C   UNL     1       1.445   6.418  20.376  0.00  0.00    +0.000 C 
ENDROOT
BRANCH   1  13
ATOM     13  C   UNL     1       3.484   3.987  18.473  0.00  0.00    +0.000 C 
ATOM     14  C   UNL     1       3.387   2.428  18.561  0.00  0.00    +0.000 C 
ATOM     15  C   UNL     1       1.928   2.501  18.107  0.00  0.00    +0.000 C 
ATOM     16  C   UNL     1       2.231   3.867  17.491  0.00  0.00    +0.000 C 
BRANCH  13  22
ATOM     17  C   UNL     1       7.973   6.430  18.773  0.00  0.00    +0.000 C 
ATOM     18  C   UNL     1       6.951   5.783  17.886  0.00  0.00    +0.000 A 
ATOM     19  C   UNL     1       6.981   5.939  16.501  0.00  0.00    +0.000 A 
ATOM     20  C   UNL     1       5.961   5.402  15.720  0.00  0.00    +0.000 A 
ATOM     21  C   UNL     1       4.886   4.742  16.322  0.00  0.00    +0.000 A 
ATOM     22  C   UNL     1       4.796   4.593  17.720  0.00  0.00    +0.000 A 
ATOM     23  C   UNL     1       5.884   5.088  18.470  0.00  0.00    +0.000 A 
ENDBRANCH  13  22
ENDBRANCH   1  13
BRANCH  11  24
ATOM     24  S   UNL     1       0.817  11.500  18.878  0.00  0.00    +0.000 S 
ATOM     25  O   UNL     1       2.117  11.709  18.265  0.00  0.00    +0.000 OA
ATOM     26  O   UNL     1      -0.348  11.257  18.062  0.00  0.00    +0.000 OA
BRANCH  24  27
ATOM     27  N   UNL     1       0.508  12.850  19.876  0.00  0.00    +0.000 NA
ATOM     28  C   UNL     1       1.581  13.842  20.042  0.00  0.00    +0.000 C 
ATOM     29  C   UNL     1      -0.834  13.459  19.820  0.00  0.00    +0.000 C 
ENDBRANCH  24  27
ENDBRANCH  11  24
TORSDOF 4
ENDMDL
MODEL 4
REMARK VINA RESULT:      -8.1      2.837      8.566
REMARK  Name = 
REMARK  7 active torsions:
REMARK  status: ('A' for Active; 'I' for Inactive)
REMARK    1  A    between atoms: C_1  and  C_2
REMARK    2  A    between atoms: C_6  and  C_7
REMARK    3  A    between atoms: C_7  and  C_8
REMARK    4  A    between atoms: C_18  and  S_19
REMARK    5  A    between atoms: S_19  and  N_22
REMARK    6  A    between atoms: N_22  and  C_23
REMARK    7  A    between atoms: N_22  and  C_24
REMARK                            x       y       z     vdW  Elec       q    Type
REMARK                         _______ _______ _______ _____ _____    ______ ____
ROOT
ATOM      1  C   UNL     1       1.154  10.505  19.158  0.00  0.00    +0.000 C 
ATOM      2  O   UNL     1       1.833  11.293  18.472  0.00  0.00    +0.000 OA
ATOM      3  N   UNL     1       1.520   9.153  19.167  0.00  0.00    +0.000 N 
ATOM      4  C   UNL     1       1.109   8.152  20.141  0.00  0.00    +0.000 C 
ATOM      5  C   UNL     1       1.805   6.759  20.033  0.00  0.00    +0.000 C 
ATOM      6  C   UNL     1       2.828   6.565  18.935  0.00  0.00    +0.000 A 
ATOM      7  C   UNL     1       2.948   7.590  17.968  0.00  0.00    +0.000 A 
ATOM      8  C   UNL     1       4.001   7.598  17.044  0.00  0.00    +0.000 A 
ATOM      9  C   UNL     1       4.923   6.570  17.020  0.00  0.00    +0.000 A 
ATOM     10  C   UNL     1       4.755   5.487  17.879  0.00  0.00    +0.000 A 
ATOM     11  C   UNL     1       3.696   5.463  18.810  0.00  0.00    +0.000 A 
ATOM     12  C   UNL     1       1.891   8.645  17.870  0.00  0.00    +0.000 C 
ENDROOT
BRANCH   1  13
ATOM     13  C   UNL     1      -0.190  10.991  19.832  0.00  0.00    +0.000 C 
ATOM     14  C   UNL     1      -0.607  10.616  21.293  0.00  0.00    +0.000 C 
ATOM     15  C   UNL     1       0.072  11.889  21.804  0.00  0.00    +0.000 C 
ATOM     16  C   UNL     1      -0.066  12.478  20.401  0.00  0.00    +0.000 C 
BRANCH  13  22
ATOM     17  C   UNL     1      -4.978  11.979  18.313  0.00  0.00    +0.000 C 
ATOM     18  C   UNL     1      -3.661  11.341  17.984  0.00  0.00    +0.000 A 
ATOM     19  C   UNL     1      -3.523  10.461  16.910  0.00  0.00    +0.000 A 
ATOM     20  C   UNL     1      -2.308   9.815  16.694  0.00  0.00    +0.000 A 
ATOM     21  C   UNL     1      -1.239  10.014  17.573  0.00  0.00    +0.000 A 
ATOM     22  C   UNL     1      -1.346  10.865  18.691  0.00  0.00    +0.000 A 
ATOM     23  C   UNL     1      -2.568  11.555  18.834  0.00  0.00    +0.000 A 
ENDBRANCH  13  22
ENDBRANCH   1  13
BRANCH  11  24
ATOM     24  S   UNL     1       3.563   3.947  19.767  0.00  0.00    +0.000 S 
ATOM     25  O   UNL     1       4.864   3.303  19.725  0.00  0.00    +0.000 OA
ATOM     26  O   UNL     1       2.928   4.238  21.030  0.00  0.00    +0.000 OA
BRANCH  24  27
ATOM     27  N   UNL     1       2.499   2.992  18.834  0.00  0.00    +0.000 NA
ATOM     28  C   UNL     1       3.080   1.930  17.999  0.00  0.00    +0.000 C 
ATOM     29  C   UNL     1       1.206   2.608  19.433  0.00  0.00    +0.000 C 
ENDBRANCH  24  27
ENDBRANCH  11  24
TORSDOF 4
ENDMDL
MODEL 5
REMARK VINA RESULT:      -8.0      1.263      1.965
REMARK  Name = 
REMARK  7 active torsions:
REMARK  status: ('A' for Active; 'I' for Inactive)
REMARK    1  A    between atoms: C_1  and  C_2
REMARK    2  A    between atoms: C_6  and  C_7
REMARK    3  A    between atoms: C_7  and  C_8
REMARK    4  A    between atoms: C_18  and  S_19
REMARK    5  A    between atoms: S_19  and  N_22
REMARK    6  A    between atoms: N_22  and  C_23
REMARK    7  A    between atoms: N_22  and  C_24
REMARK                            x       y       z     vdW  Elec       q    Type
REMARK                         _______ _______ _______ _____ _____    ______ ____
ROOT
ATOM      1  C   UNL     1       2.740   5.127  20.017  0.00  0.00    +0.000 C 
ATOM      2  O   UNL     1       2.789   4.691  21.183  0.00  0.00    +0.000 OA
ATOM      3  N   UNL     1       2.207   6.406  19.812  0.00  0.00    +0.000 N 
ATOM      4  C   UNL     1       2.374   7.232  18.626  0.00  0.00    +0.000 C 
ATOM      5  C   UNL     1       1.834   8.694  18.723  0.00  0.00    +0.000 C 
ATOM      6  C   UNL     1       1.182   9.120  20.021  0.00  0.00    +0.000 A 
ATOM      7  C   UNL     1       0.938   8.117  20.987  0.00  0.00    +0.000 A 
ATOM      8  C   UNL     1       0.535   8.444  22.288  0.00  0.00    +0.000 A 
ATOM      9  C   UNL     1       0.314   9.760  22.647  0.00  0.00    +0.000 A 
ATOM     10  C   UNL     1       0.427  10.754  21.679  0.00  0.00    +0.000 A 
ATOM     11  C   UNL     1       0.826  10.439  20.363  0.00  0.00    +0.000 A 
ATOM     12  C   UNL     1       1.029   6.675  20.598  0.00  0.00    +0.000 C 
ENDROOT
BRANCH   1  13
ATOM     13  C   UNL     1       3.087   4.182  18.798  0.00  0.00    +0.000 C 
ATOM     14  C   UNL     1       2.947   2.624  18.846  0.00  0.00    +0.000 C 
ATOM     15  C   UNL     1       1.521   2.744  18.305  0.00  0.00    +0.000 C 
ATOM     16  C   UNL     1       1.894   4.114  17.740  0.00  0.00    +0.000 C 
BRANCH  13  22
ATOM     17  C   UNL     1       7.884   5.855  19.426  0.00  0.00    +0.000 C 
ATOM     18  C   UNL     1       6.763   5.584  18.467  0.00  0.00    +0.000 A 
ATOM     19  C   UNL     1       6.788   6.064  17.158  0.00  0.00    +0.000 A 
ATOM     20  C   UNL     1       5.687   5.872  16.328  0.00  0.00    +0.000 A 
ATOM     21  C   UNL     1       4.540   5.237  16.814  0.00  0.00    +0.000 A 
ATOM     22  C   UNL     1       4.457   4.769  18.141  0.00  0.00    +0.000 A 
ATOM     23  C   UNL     1       5.619   4.918  18.927  0.00  0.00    +0.000 A 
ENDBRANCH  13  22
ENDBRANCH   1  13
BRANCH  11  24
ATOM     24  S   UNL     1       0.819  11.824  19.217  0.00  0.00    +0.000 S 
ATOM     25  O   UNL     1       0.897  13.036  20.014  0.00  0.00    +0.000 OA
ATOM     26  O   UNL     1       1.775  11.574  18.166  0.00  0.00    +0.000 OA
BRANCH  24  27
ATOM     27  N   UNL     1      -0.750  11.763  18.546  0.00  0.00    +0.000 NA
ATOM     28  C   UNL     1      -1.155  10.531  17.852  0.00  0.00    +0.000 C 
ATOM     29  C   UNL     1      -1.853  12.381  19.308  0.00  0.00    +0.000 C 
ENDBRANCH  24  27
ENDBRANCH  11  24
TORSDOF 4
ENDMDL
MODEL 6
REMARK VINA RESULT:      -8.0      1.541      2.096
REMARK  Name = 
REMARK  7 active torsions:
REMARK  status: ('A' for Active; 'I' for Inactive)
REMARK    1  A    between atoms: C_1  and  C_2
REMARK    2  A    between atoms: C_6  and  C_7
REMARK    3  A    between atoms: C_7  and  C_8
REMARK    4  A    between atoms: C_18  and  S_19
REMARK    5  A    between atoms: S_19  and  N_22
REMARK    6  A    between atoms: N_22  and  C_23
REMARK    7  A    between atoms: N_22  and  C_24
REMARK                            x       y       z     vdW  Elec       q    Type
REMARK                         _______ _______ _______ _____ _____    ______ ____
ROOT
ATOM      1  C   UNL     1       2.568   5.550  20.087  0.00  0.00    +0.000 C 
ATOM      2  O   UNL     1       2.626   5.048  21.226  0.00  0.00    +0.000 OA
ATOM      3  N   UNL     1       1.978   6.813  19.951  0.00  0.00    +0.000 N 
ATOM      4  C   UNL     1       2.119   7.716  18.819  0.00  0.00    +0.000 C 
ATOM      5  C   UNL     1       1.511   9.143  18.995  0.00  0.00    +0.000 C 
ATOM      6  C   UNL     1       0.828   9.461  20.308  0.00  0.00    +0.000 A 
ATOM      7  C   UNL     1       0.621   8.392  21.211  0.00  0.00    +0.000 A 
ATOM      8  C   UNL     1       0.191   8.622  22.524  0.00  0.00    +0.000 A 
ATOM      9  C   UNL     1      -0.093   9.902  22.957  0.00  0.00    +0.000 A 
ATOM     10  C   UNL     1      -0.017  10.957  22.051  0.00  0.00    +0.000 A 
ATOM     11  C   UNL     1       0.408  10.740  20.724  0.00  0.00    +0.000 A 
ATOM     12  C   UNL     1       0.782   6.982  20.738  0.00  0.00    +0.000 C 
ENDROOT
BRANCH   1  13
ATOM     13  C   UNL     1       2.969   4.697  18.819  0.00  0.00    +0.000 C 
ATOM     14  C   UNL     1       2.821   3.141  18.743  0.00  0.00    +0.000 C 
ATOM     15  C   UNL     1       1.423   3.312  18.145  0.00  0.00    +0.000 C 
ATOM     16  C   UNL     1       1.828   4.717  17.703  0.00  0.00    +0.000 C 
BRANCH  13  22
ATOM     17  C   UNL     1       7.924   5.707  19.620  0.00  0.00    +0.000 C 
ATOM     18  C   UNL     1       6.755   5.810  18.685  0.00  0.00    +0.000 A 
ATOM     19  C   UNL     1       6.791   6.628  17.556  0.00  0.00    +0.000 A 
ATOM     20  C   UNL     1       5.654   6.770  16.766  0.00  0.00    +0.000 A 
ATOM     21  C   UNL     1       4.464   6.128  17.122  0.00  0.00    +0.000 A 
ATOM     22  C   UNL     1       4.372   5.321  18.273  0.00  0.00    +0.000 A 
ATOM     23  C   UNL     1       5.564   5.145  19.007  0.00  0.00    +0.000 A 
ENDBRANCH  13  22
ENDBRANCH   1  13
BRANCH  11  24
ATOM     24  S   UNL     1       0.347  12.189  19.662  0.00  0.00    +0.000 S 
ATOM     25  O   UNL     1      -0.133  11.744  18.364  0.00  0.00    +0.000 OA
ATOM     26  O   UNL     1      -0.316  13.262  20.362  0.00  0.00    +0.000 OA
BRANCH  24  27
ATOM     27  N   UNL     1       1.994  12.600  19.475  0.00  0.00    +0.000 NA
ATOM     28  C   UNL     1       2.514  12.750  18.107  0.00  0.00    +0.000 C 
ATOM     29  C   UNL     1       2.576  13.572  20.420  0.00  0.00    +0.000 C 
ENDBRANCH  24  27
ENDBRANCH  11  24
TORSDOF 4
ENDMDL
MODEL 7
REMARK VINA RESULT:      -7.9      3.219      8.113
REMARK  Name = 
REMARK  7 active torsions:
REMARK  status: ('A' for Active; 'I' for Inactive)
REMARK    1  A    between atoms: C_1  and  C_2
REMARK    2  A    between atoms: C_6  and  C_7
REMARK    3  A    between atoms: C_7  and  C_8
REMARK    4  A    between atoms: C_18  and  S_19
REMARK    5  A    between atoms: S_19  and  N_22
REMARK    6  A    between atoms: N_22  and  C_23
REMARK    7  A    between atoms: N_22  and  C_24
REMARK                            x       y       z     vdW  Elec       q    Type
REMARK                         _______ _______ _______ _____ _____    ______ ____
ROOT
ATOM      1  C   UNL     1      -0.031   9.406  20.040  0.00  0.00    +0.000 C 
ATOM      2  O   UNL     1      -0.722   8.810  20.888  0.00  0.00    +0.000 OA
ATOM      3  N   UNL     1       1.066   8.731  19.487  0.00  0.00    +0.000 N 
ATOM      4  C   UNL     1       1.772   9.084  18.265  0.00  0.00    +0.000 C 
ATOM      5  C   UNL     1       2.841   8.061  17.767  0.00  0.00    +0.000 C 
ATOM      6  C   UNL     1       3.058   6.810  18.591  0.00  0.00    +0.000 A 
ATOM      7  C   UNL     1       2.415   6.740  19.849  0.00  0.00    +0.000 A 
ATOM      8  C   UNL     1       2.386   5.548  20.585  0.00  0.00    +0.000 A 
ATOM      9  C   UNL     1       3.032   4.418  20.121  0.00  0.00    +0.000 A 
ATOM     10  C   UNL     1       3.775   4.497  18.946  0.00  0.00    +0.000 A 
ATOM     11  C   UNL     1       3.819   5.693  18.198  0.00  0.00    +0.000 A 
ATOM     12  C   UNL     1       1.826   7.976  20.451  0.00  0.00    +0.000 C 
ENDROOT
BRANCH   1  13
ATOM     13  C   UNL     1      -0.273  10.941  19.751  0.00  0.00    +0.000 C 
ATOM     14  C   UNL     1      -0.064  12.064  20.820  0.00  0.00    +0.000 C 
ATOM     15  C   UNL     1       1.380  12.236  20.343  0.00  0.00    +0.000 C 
ATOM     16  C   UNL     1       0.971  11.611  19.010  0.00  0.00    +0.000 C 
BRANCH  13  22
ATOM     17  C   UNL     1      -2.723   9.939  15.369  0.00  0.00    +0.000 C 
ATOM     18  C   UNL     1      -2.794  10.548  16.737  0.00  0.00    +0.000 A 
ATOM     19  C   UNL     1      -3.850  11.377  17.115  0.00  0.00    +0.000 A 
ATOM     20  C   UNL     1      -3.833  11.999  18.361  0.00  0.00    +0.000 A 
ATOM     21  C   UNL     1      -2.741  11.828  19.218  0.00  0.00    +0.000 A 
ATOM     22  C   UNL     1      -1.637  11.029  18.863  0.00  0.00    +0.000 A 
ATOM     23  C   UNL     1      -1.725  10.360  17.624  0.00  0.00    +0.000 A 
ENDBRANCH  13  22
ENDBRANCH   1  13
BRANCH  11  24
ATOM     24  S   UNL     1       4.908   5.652  16.768  0.00  0.00    +0.000 S 
ATOM     25  O   UNL     1       4.784   4.331  16.177  0.00  0.00    +0.000 OA
ATOM     26  O   UNL     1       4.688   6.836  15.972  0.00  0.00    +0.000 OA
BRANCH  24  27
ATOM     27  N   UNL     1       6.464   5.748  17.464  0.00  0.00    +0.000 NA
ATOM     28  C   UNL     1       7.350   4.582  17.332  0.00  0.00    +0.000 C 
ATOM     29  C   UNL     1       7.187   7.031  17.368  0.00  0.00    +0.000 C 
ENDBRANCH  24  27
ENDBRANCH  11  24
TORSDOF 4
ENDMDL
MODEL 8
REMARK VINA RESULT:      -7.8      1.273      1.518
REMARK  Name = 
REMARK  7 active torsions:
REMARK  status: ('A' for Active; 'I' for Inactive)
REMARK    1  A    between atoms: C_1  and  C_2
REMARK    2  A    between atoms: C_6  and  C_7
REMARK    3  A    between atoms: C_7  and  C_8
REMARK    4  A    between atoms: C_18  and  S_19
REMARK    5  A    between atoms: S_19  and  N_22
REMARK    6  A    between atoms: N_22  and  C_23
REMARK    7  A    between atoms: N_22  and  C_24
REMARK                            x       y       z     vdW  Elec       q    Type
REMARK                         _______ _______ _______ _____ _____    ______ ____
ROOT
ATOM      1  C   UNL     1       2.458   5.486  20.211  0.00  0.00    +0.000 C 
ATOM      2  O   UNL     1       2.502   5.020  21.366  0.00  0.00    +0.000 OA
ATOM      3  N   UNL     1       1.897   6.757  20.032  0.00  0.00    +0.000 N 
ATOM      4  C   UNL     1       2.060   7.619  18.871  0.00  0.00    +0.000 C 
ATOM      5  C   UNL     1       1.485   9.064  19.000  0.00  0.00    +0.000 C 
ATOM      6  C   UNL     1       0.806   9.441  20.300  0.00  0.00    +0.000 A 
ATOM      7  C   UNL     1       0.574   8.407  21.236  0.00  0.00    +0.000 A 
ATOM      8  C   UNL     1       0.147   8.689  22.540  0.00  0.00    +0.000 A 
ATOM      9  C   UNL     1      -0.109   9.989  22.930  0.00  0.00    +0.000 A 
ATOM     10  C   UNL     1      -0.007  11.012  21.990  0.00  0.00    +0.000 A 
ATOM     11  C   UNL     1       0.415  10.742  20.672  0.00  0.00    +0.000 A 
ATOM     12  C   UNL     1       0.704   6.978  20.810  0.00  0.00    +0.000 C 
ENDROOT
BRANCH   1  13
ATOM     13  C   UNL     1       2.842   4.583  18.972  0.00  0.00    +0.000 C 
ATOM     14  C   UNL     1       2.616   3.035  18.929  0.00  0.00    +0.000 C 
ATOM     15  C   UNL     1       1.241   3.263  18.295  0.00  0.00    +0.000 C 
ATOM     16  C   UNL     1       1.728   4.634  17.830  0.00  0.00    +0.000 C 
BRANCH  13  22
ATOM     17  C   UNL     1       6.020   5.498  15.064  0.00  0.00    +0.000 C 
ATOM     18  C   UNL     1       5.808   5.543  16.548  0.00  0.00    +0.000 A 
ATOM     19  C   UNL     1       6.865   5.757  17.432  0.00  0.00    +0.000 A 
ATOM     20  C   UNL     1       6.644   5.696  18.806  0.00  0.00    +0.000 A 
ATOM     21  C   UNL     1       5.375   5.381  19.302  0.00  0.00    +0.000 A 
ATOM     22  C   UNL     1       4.287   5.121  18.445  0.00  0.00    +0.000 A 
ATOM     23  C   UNL     1       4.535   5.263  17.064  0.00  0.00    +0.000 A 
ENDBRANCH  13  22
ENDBRANCH   1  13
BRANCH  11  24
ATOM     24  S   UNL     1       0.390  12.156  19.563  0.00  0.00    +0.000 S 
ATOM     25  O   UNL     1      -0.025  11.666  18.260  0.00  0.00    +0.000 OA
ATOM     26  O   UNL     1      -0.316  13.243  20.197  0.00  0.00    +0.000 OA
BRANCH  24  27
ATOM     27  N   UNL     1       2.039  12.580  19.439  0.00  0.00    +0.000 NA
ATOM     28  C   UNL     1       2.593  12.804  18.095  0.00  0.00    +0.000 C 
ATOM     29  C   UNL     1       2.594  13.501  20.449  0.00  0.00    +0.000 C 
ENDBRANCH  24  27
ENDBRANCH  11  24
TORSDOF 4
ENDMDL
MODEL 9
REMARK VINA RESULT:      -7.8      1.142      1.313
REMARK  Name = 
REMARK  7 active torsions:
REMARK  status: ('A' for Active; 'I' for Inactive)
REMARK    1  A    between atoms: C_1  and  C_2
REMARK    2  A    between atoms: C_6  and  C_7
REMARK    3  A    between atoms: C_7  and  C_8
REMARK    4  A    between atoms: C_18  and  S_19
REMARK    5  A    between atoms: S_19  and  N_22
REMARK    6  A    between atoms: N_22  and  C_23
REMARK    7  A    between atoms: N_22  and  C_24
REMARK                            x       y       z     vdW  Elec       q    Type
REMARK                         _______ _______ _______ _____ _____    ______ ____
ROOT
ATOM      1  C   UNL     1       2.405   5.195  20.250  0.00  0.00    +0.000 C 
ATOM      2  O   UNL     1       2.310   4.724  21.399  0.00  0.00    +0.000 OA
ATOM      3  N   UNL     1       1.976   6.511  20.037  0.00  0.00    +0.000 N 
ATOM      4  C   UNL     1       2.312   7.358  18.902  0.00  0.00    +0.000 C 
ATOM      5  C   UNL     1       1.857   8.848  18.996  0.00  0.00    +0.000 C 
ATOM      6  C   UNL     1       1.106   9.280  20.238  0.00  0.00    +0.000 A 
ATOM      7  C   UNL     1       0.705   8.268  21.141  0.00  0.00    +0.000 A 
ATOM      8  C   UNL     1       0.194   8.584  22.406  0.00  0.00    +0.000 A 
ATOM      9  C   UNL     1       0.021   9.901  22.787  0.00  0.00    +0.000 A 
ATOM     10  C   UNL     1       0.292  10.913  21.869  0.00  0.00    +0.000 A 
ATOM     11  C   UNL     1       0.800  10.609  20.589  0.00  0.00    +0.000 A 
ATOM     12  C   UNL     1       0.744   6.835  20.713  0.00  0.00    +0.000 C 
ENDROOT
BRANCH   1  13
ATOM     13  C   UNL     1       2.813   4.265  19.039  0.00  0.00    +0.000 C 
ATOM     14  C   UNL     1       2.678   2.706  19.065  0.00  0.00    +0.000 C 
ATOM     15  C   UNL     1       1.278   2.825  18.459  0.00  0.00    +0.000 C 
ATOM     16  C   UNL     1       1.671   4.202  17.925  0.00  0.00    +0.000 C 
BRANCH  13  22
ATOM     17  C   UNL     1       5.789   5.297  15.004  0.00  0.00    +0.000 C 
ATOM     18  C   UNL     1       5.634   5.341  16.495  0.00  0.00    +0.000 A 
ATOM     19  C   UNL     1       6.714   5.609  17.335  0.00  0.00    +0.000 A 
ATOM     20  C   UNL     1       6.551   5.547  18.717  0.00  0.00    +0.000 A 
ATOM     21  C   UNL     1       5.318   5.178  19.264  0.00  0.00    +0.000 A 
ATOM     22  C   UNL     1       4.210   4.864  18.452  0.00  0.00    +0.000 A 
ATOM     23  C   UNL     1       4.396   5.007  17.061  0.00  0.00    +0.000 A 
ENDBRANCH  13  22
ENDBRANCH   1  13
BRANCH  11  24
ATOM     24  S   UNL     1       0.994  12.023  19.496  0.00  0.00    +0.000 S 
ATOM     25  O   UNL     1       1.747  13.026  20.228  0.00  0.00    +0.000 OA
ATOM     26  O   UNL     1       1.446  11.565  18.204  0.00  0.00    +0.000 OA
BRANCH  24  27
ATOM     27  N   UNL     1      -0.602  12.609  19.335  0.00  0.00    +0.000 NA
ATOM     28  C   UNL     1      -0.853  14.020  19.667  0.00  0.00    +0.000 C 
ATOM     29  C   UNL     1      -1.399  12.139  18.186  0.00  0.00    +0.000 C 
ENDBRANCH  24  27
ENDBRANCH  11  24
TORSDOF 4
ENDMDL
