MODEL 1
REMARK VINA RESULT:      -7.7      0.000      0.000
REMARK  Name = 
REMARK  5 active torsions:
REMARK  status: ('A' for Active; 'I' for Inactive)
REMARK    1  A    between atoms: C_1  and  N_2
REMARK    2  A    between atoms: C_3  and  C_5
REMARK    3  A    between atoms: C_8  and  C_10
REMARK    4  A    between atoms: N_12  and  C_13
REMARK    5  A    between atoms: C_13  and  C_14
REMARK                            x       y       z     vdW  Elec       q    Type
REMARK                         _______ _______ _______ _____ _____    ______ ____
ROOT
ATOM      1  C   UNL     1      -3.043  12.673  22.827  0.00  0.00    +0.000 A 
ATOM      2  N   UNL     1      -4.275  12.329  22.591  0.00  0.00    +0.000 NA
ATOM      3  N   UNL     1      -5.298  13.204  22.872  0.00  0.00    +0.000 N 
ATOM      4  C   UNL     1      -5.123  14.413  23.534  0.00  0.00    +0.000 A 
ATOM      5  O   UNL     1      -6.035  15.193  23.801  0.00  0.00    +0.000 OA
ATOM      6  C   UNL     1      -3.746  14.739  23.946  0.00  0.00    +0.000 A 
ATOM      7  C   UNL     1      -3.520  15.859  24.764  0.00  0.00    +0.000 A 
ATOM      8  C   UNL     1      -2.232  16.162  25.198  0.00  0.00    +0.000 A 
ATOM      9  C   UNL     1      -1.164  15.373  24.779  0.00  0.00    +0.000 A 
ATOM     10  C   UNL     1      -1.386  14.269  23.946  0.00  0.00    +0.000 A 
ATOM     11  C   UNL     1      -2.689  13.922  23.552  0.00  0.00    +0.000 A 
ENDROOT
BRANCH   1  15
ATOM     12  C   UNL     1      -1.343  12.867  18.954  0.00  0.00    +0.000 C 
ATOM     13  C   UNL     1      -2.314  12.263  19.951  0.00  0.00    +0.000 C 
ATOM     14  N   UNL     1      -1.598  11.577  21.041  0.00  0.00    +0.000 N 
ATOM     15  C   UNL     1      -1.953  11.678  22.402  0.00  0.00    +0.000 C 
ATOM     16  O   UNL     1      -1.445  11.029  23.315  0.00  0.00    +0.000 OA
ATOM     17  C   UNL     1      -0.535  10.733  20.554  0.00  0.00    +0.000 A 
ATOM     18  C   UNL     1       0.061   9.720  21.317  0.00  0.00    +0.000 A 
ATOM     19  C   UNL     1       1.064   8.898  20.783  0.00  0.00    +0.000 A 
ATOM     20  C   UNL     1       1.488   9.067  19.470  0.00  0.00    +0.000 A 
ATOM     21  C   UNL     1       0.920  10.071  18.694  0.00  0.00    +0.000 A 
ATOM     22  C   UNL     1      -0.067  10.905  19.233  0.00  0.00    +0.000 A 
ATOM     23  O   UNL     1      -0.495  11.887  18.370  0.00  0.00    +0.000 OA
BRANCH  12  26
ATOM     24  C   UNL     1      -0.930  16.202  20.726  0.00  0.00    +0.000 C 
ATOM     25  N   UNL     1      -1.476  15.007  20.137  0.00  0.00    +0.000 N 
ATOM     26  C   UNL     1      -0.631  14.060  19.612  0.00  0.00    +0.000 C 
ATOM     27  O   UNL     1       0.597  14.136  19.711  0.00  0.00    +0.000 OA
ATOM     28  H   UNL     1      -2.430  15.013  19.788  0.00  0.00    +0.000 HD
ENDBRANCH  12  26
ENDBRANCH   1  15
BRANCH   3  29
ATOM     29  C   UNL     1      -6.634  12.807  22.426  0.00  0.00    +0.000 C 
BRANCH  29  30
ATOM     30  C   UNL     1      -6.685  12.370  20.975  0.00  0.00    +0.000 A 
ATOM     31  C   UNL     1      -7.103  11.078  20.622  0.00  0.00    +0.000 A 
ATOM     32  C   UNL     1      -7.141  10.678  19.284  0.00  0.00    +0.000 A 
ATOM     33  C   UNL     1      -6.768  11.568  18.279  0.00  0.00    +0.000 A 
ATOM     34  C   UNL     1      -6.360  12.859  18.614  0.00  0.00    +0.000 A 
ATOM     35  C   UNL     1      -6.315  13.255  19.952  0.00  0.00    +0.000 A 
ENDBRANCH  29  30
ENDBRANCH   3  29
TORSDOF 4
ENDMDL
MODEL 2
REMARK VINA RESULT:      -7.7      2.381      6.906
REMARK  Name = 
REMARK  5 active torsions:
REMARK  status: ('A' for Active; 'I' for Inactive)
REMARK    1  A    between atoms: C_1  and  N_2
REMARK    2  A    between atoms: C_3  and  C_5
REMARK    3  A    between atoms: C_8  and  C_10
REMARK    4  A    between atoms: N_12  and  C_13
REMARK    5  A    between atoms: C_13  and  C_14
REMARK                            x       y       z     vdW  Elec       q    Type
REMARK                         _______ _______ _______ _____ _____    ______ ____
ROOT
ATOM      1  C   UNL     1      -0.387  12.259  21.013  0.00  0.00    +0.000 A 
ATOM      2  N   UNL     1      -0.423  11.391  20.045  0.00  0.00    +0.000 NA
ATOM      3  N   UNL     1       0.593  11.352  19.119  0.00  0.00    +0.000 N 
ATOM      4  C   UNL     1       1.619  12.286  19.056  0.00  0.00    +0.000 A 
ATOM      5  O   UNL     1       2.522  12.266  18.222  0.00  0.00    +0.000 OA
ATOM      6  C   UNL     1       1.581  13.368  20.056  0.00  0.00    +0.000 A 
ATOM      7  C   UNL     1       2.487  14.437  19.949  0.00  0.00    +0.000 A 
ATOM      8  C   UNL     1       2.441  15.489  20.859  0.00  0.00    +0.000 A 
ATOM      9  C   UNL     1       1.521  15.454  21.903  0.00  0.00    +0.000 A 
ATOM     10  C   UNL     1       0.631  14.378  22.023  0.00  0.00    +0.000 A 
ATOM     11  C   UNL     1       0.631  13.341  21.075  0.00  0.00    +0.000 A 
ENDROOT
BRANCH   1  15
ATOM     12  C   UNL     1      -4.281  13.649  20.099  0.00  0.00    +0.000 C 
ATOM     13  C   UNL     1      -2.918  13.839  20.735  0.00  0.00    +0.000 C 
ATOM     14  N   UNL     1      -2.711  12.887  21.842  0.00  0.00    +0.000 N 
ATOM     15  C   UNL     1      -1.510  12.179  22.058  0.00  0.00    +0.000 C 
ATOM     16  O   UNL     1      -1.274  11.469  23.033  0.00  0.00    +0.000 OA
ATOM     17  C   UNL     1      -3.850  12.812  22.722  0.00  0.00    +0.000 A 
ATOM     18  C   UNL     1      -3.797  12.273  24.015  0.00  0.00    +0.000 A 
ATOM     19  C   UNL     1      -4.925  12.261  24.847  0.00  0.00    +0.000 A 
ATOM     20  C   UNL     1      -6.130  12.795  24.408  0.00  0.00    +0.000 A 
ATOM     21  C   UNL     1      -6.213  13.329  23.127  0.00  0.00    +0.000 A 
ATOM     22  C   UNL     1      -5.093  13.322  22.287  0.00  0.00    +0.000 A 
ATOM     23  O   UNL     1      -5.338  13.829  21.032  0.00  0.00    +0.000 OA
BRANCH  12  26
ATOM     24  C   UNL     1      -3.080  10.911  17.756  0.00  0.00    +0.000 C 
ATOM     25  N   UNL     1      -3.164  12.094  18.573  0.00  0.00    +0.000 N 
ATOM     26  C   UNL     1      -4.290  12.320  19.326  0.00  0.00    +0.000 C 
ATOM     27  O   UNL     1      -5.207  11.499  19.417  0.00  0.00    +0.000 OA
ATOM     28  H   UNL     1      -2.600  12.905  18.338  0.00  0.00    +0.000 HD
ENDBRANCH  12  26
ENDBRANCH   1  15
BRANCH   3  29
ATOM     29  C   UNL     1       0.560  10.244  18.164  0.00  0.00    +0.000 C 
BRANCH  29  30
ATOM     30  C   UNL     1       1.340   9.027  18.619  0.00  0.00    +0.000 A 
ATOM     31  C   UNL     1       2.177   8.330  17.734  0.00  0.00    +0.000 A 
ATOM     32  C   UNL     1       2.888   7.205  18.157  0.00  0.00    +0.000 A 
ATOM     33  C   UNL     1       2.779   6.765  19.474  0.00  0.00    +0.000 A 
ATOM     34  C   UNL     1       1.959   7.453  20.368  0.00  0.00    +0.000 A 
ATOM     35  C   UNL     1       1.243   8.573  19.943  0.00  0.00    +0.000 A 
ENDBRANCH  29  30
ENDBRANCH   3  29
TORSDOF 4
ENDMDL
MODEL 3
REMARK VINA RESULT:      -7.5      1.017      1.288
REMARK  Name = 
REMARK  5 active torsions:
REMARK  status: ('A' for Active; 'I' for Inactive)
REMARK    1  A    between atoms: C_1  and  N_2
REMARK    2  A    between atoms: C_3  and  C_5
REMARK    3  A    between atoms: C_8  and  C_10
REMARK    4  A    between atoms: N_12  and  C_13
REMARK    5  A    between atoms: C_13  and  C_14
REMARK                            x       y       z     vdW  Elec       q    Type
REMARK                         _______ _______ _______ _____ _____    ______ ____
ROOT
ATOM      1  C   UNL     1      -2.502  12.742  22.531  0.00  0.00    +0.000 A 
ATOM      2  N   UNL     1      -3.756  12.401  22.575  0.00  0.00    +0.000 NA
ATOM      3  N   UNL     1      -4.726  13.367  22.701  0.00  0.00    +0.000 N 
ATOM      4  C   UNL     1      -4.456  14.711  22.928  0.00  0.00    +0.000 A 
ATOM      5  O   UNL     1      -5.319  15.577  23.058  0.00  0.00    +0.000 OA
ATOM      6  C   UNL     1      -3.034  15.083  23.037  0.00  0.00    +0.000 A 
ATOM      7  C   UNL     1      -2.692  16.387  23.432  0.00  0.00    +0.000 A 
ATOM      8  C   UNL     1      -1.356  16.747  23.579  0.00  0.00    +0.000 A 
ATOM      9  C   UNL     1      -0.359  15.819  23.290  0.00  0.00    +0.000 A 
ATOM     10  C   UNL     1      -0.699  14.525  22.876  0.00  0.00    +0.000 A 
ATOM     11  C   UNL     1      -2.045  14.135  22.782  0.00  0.00    +0.000 A 
ENDROOT
BRANCH   1  15
ATOM     12  C   UNL     1      -0.812  12.130  18.696  0.00  0.00    +0.000 C 
ATOM     13  C   UNL     1      -1.817  11.781  19.777  0.00  0.00    +0.000 C 
ATOM     14  N   UNL     1      -1.144  11.250  20.977  0.00  0.00    +0.000 N 
ATOM     15  C   UNL     1      -1.485  11.615  22.296  0.00  0.00    +0.000 C 
ATOM     16  O   UNL     1      -1.019  11.105  23.313  0.00  0.00    +0.000 OA
ATOM     17  C   UNL     1      -0.145  10.262  20.655  0.00  0.00    +0.000 A 
ATOM     18  C   UNL     1       0.383   9.361  21.589  0.00  0.00    +0.000 A 
ATOM     19  C   UNL     1       1.324   8.391  21.216  0.00  0.00    +0.000 A 
ATOM     20  C   UNL     1       1.753   8.296  19.897  0.00  0.00    +0.000 A 
ATOM     21  C   UNL     1       1.251   9.183  18.952  0.00  0.00    +0.000 A 
ATOM     22  C   UNL     1       0.327  10.165  19.328  0.00  0.00    +0.000 A 
ATOM     23  O   UNL     1      -0.036  11.006  18.302  0.00  0.00    +0.000 OA
BRANCH  12  26
ATOM     24  C   UNL     1      -0.084  15.778  19.468  0.00  0.00    +0.000 C 
ATOM     25  N   UNL     1      -0.735  14.539  19.133  0.00  0.00    +0.000 N 
ATOM     26  C   UNL     1      -0.016  13.369  19.139  0.00  0.00    +0.000 C 
ATOM     27  O   UNL     1       1.157  13.310  19.520  0.00  0.00    +0.000 OA
ATOM     28  H   UNL     1      -1.578  14.555  18.566  0.00  0.00    +0.000 HD
ENDBRANCH  12  26
ENDBRANCH   1  15
BRANCH   3  29
ATOM     29  C   UNL     1      -6.113  12.916  22.578  0.00  0.00    +0.000 C 
BRANCH  29  30
ATOM     30  C   UNL     1      -6.584  12.788  21.143  0.00  0.00    +0.000 A 
ATOM     31  C   UNL     1      -6.963  13.917  20.401  0.00  0.00    +0.000 A 
ATOM     32  C   UNL     1      -7.403  13.792  19.081  0.00  0.00    +0.000 A 
ATOM     33  C   UNL     1      -7.464  12.535  18.482  0.00  0.00    +0.000 A 
ATOM     34  C   UNL     1      -7.081  11.405  19.202  0.00  0.00    +0.000 A 
ATOM     35  C   UNL     1      -6.648  11.530  20.524  0.00  0.00    +0.000 A 
ENDBRANCH  29  30
ENDBRANCH   3  29
TORSDOF 4
ENDMDL
MODEL 4
REMARK VINA RESULT:      -7.4      6.745     10.785
REMARK  Name = 
REMARK  5 active torsions:
REMARK  status: ('A' for Active; 'I' for Inactive)
REMARK    1  A    between atoms: C_1  and  N_2
REMARK    2  A    between atoms: C_3  and  C_5
REMARK    3  A    between atoms: C_8  and  C_10
REMARK    4  A    between atoms: N_12  and  C_13
REMARK    5  A    between atoms: C_13  and  C_14
REMARK                            x       y       z     vdW  Elec       q    Type
REMARK                         _______ _______ _______ _____ _____    ______ ____
ROOT
ATOM      1  C   UNL     1       3.094   5.354  18.024  0.00  0.00    +0.000 A 
ATOM      2  N   UNL     1       2.923   6.642  18.080  0.00  0.00    +0.000 NA
ATOM      3  N   UNL     1       2.407   7.217  19.218  0.00  0.00    +0.000 N 
ATOM      4  C   UNL     1       1.913   6.494  20.296  0.00  0.00    +0.000 A 
ATOM      5  O   UNL     1       1.437   7.002  21.309  0.00  0.00    +0.000 OA
ATOM      6  C   UNL     1       1.959   5.025  20.174  0.00  0.00    +0.000 A 
ATOM      7  C   UNL     1       1.326   4.234  21.148  0.00  0.00    +0.000 A 
ATOM      8  C   UNL     1       1.324   2.847  21.030  0.00  0.00    +0.000 A 
ATOM      9  C   UNL     1       1.990   2.247  19.965  0.00  0.00    +0.000 A 
ATOM     10  C   UNL     1       2.639   3.035  19.005  0.00  0.00    +0.000 A 
ATOM     11  C   UNL     1       2.596   4.437  19.084  0.00  0.00    +0.000 A 
ENDROOT
BRANCH   1  15
ATOM     12  C   UNL     1       7.020   6.529  16.960  0.00  0.00    +0.000 C 
ATOM     13  C   UNL     1       5.514   6.641  16.817  0.00  0.00    +0.000 C 
ATOM     14  N   UNL     1       4.939   5.398  16.271  0.00  0.00    +0.000 N 
ATOM     15  C   UNL     1       3.759   4.798  16.756  0.00  0.00    +0.000 C 
ATOM     16  O   UNL     1       3.199   3.828  16.248  0.00  0.00    +0.000 OA
ATOM     17  C   UNL     1       5.679   4.901  15.138  0.00  0.00    +0.000 A 
ATOM     18  C   UNL     1       5.170   3.963  14.230  0.00  0.00    +0.000 A 
ATOM     19  C   UNL     1       5.915   3.543  13.119  0.00  0.00    +0.000 A 
ATOM     20  C   UNL     1       7.186   4.057  12.888  0.00  0.00    +0.000 A 
ATOM     21  C   UNL     1       7.719   4.982  13.778  0.00  0.00    +0.000 A 
ATOM     22  C   UNL     1       6.983   5.387  14.898  0.00  0.00    +0.000 A 
ATOM     23  O   UNL     1       7.659   6.261  15.719  0.00  0.00    +0.000 OA
BRANCH  12  26
ATOM     24  C   UNL     1       8.321   5.311  20.314  0.00  0.00    +0.000 C 
ATOM     25  N   UNL     1       7.919   6.133  19.203  0.00  0.00    +0.000 N 
ATOM     26  C   UNL     1       7.340   5.551  18.102  0.00  0.00    +0.000 C 
ATOM     27  O   UNL     1       7.052   4.352  18.056  0.00  0.00    +0.000 OA
ATOM     28  H   UNL     1       8.360   7.037  19.065  0.00  0.00    +0.000 HD
ENDBRANCH  12  26
ENDBRANCH   1  15
BRANCH   3  29
ATOM     29  C   UNL     1       2.401   8.680  19.260  0.00  0.00    +0.000 C 
BRANCH  29  30
ATOM     30  C   UNL     1       1.033   9.288  19.023  0.00  0.00    +0.000 A 
ATOM     31  C   UNL     1       0.438   9.261  17.752  0.00  0.00    +0.000 A 
ATOM     32  C   UNL     1      -0.820   9.829  17.538  0.00  0.00    +0.000 A 
ATOM     33  C   UNL     1      -1.504  10.427  18.594  0.00  0.00    +0.000 A 
ATOM     34  C   UNL     1      -0.931  10.453  19.865  0.00  0.00    +0.000 A 
ATOM     35  C   UNL     1       0.329   9.891  20.077  0.00  0.00    +0.000 A 
ENDBRANCH  29  30
ENDBRANCH   3  29
TORSDOF 4
ENDMDL
MODEL 5
REMARK VINA RESULT:      -7.4      2.511      7.158
REMARK  Name = 
REMARK  5 active torsions:
REMARK  status: ('A' for Active; 'I' for Inactive)
REMARK    1  A    between atoms: C_1  and  N_2
REMARK    2  A    between atoms: C_3  and  C_5
REMARK    3  A    between atoms: C_8  and  C_10
REMARK    4  A    between atoms: N_12  and  C_13
REMARK    5  A    between atoms: C_13  and  C_14
REMARK                            x       y       z     vdW  Elec       q    Type
REMARK                         _______ _______ _______ _____ _____    ______ ____
ROOT
ATOM      1  C   UNL     1       0.019  12.949  20.869  0.00  0.00    +0.000 A 
ATOM      2  N   UNL     1       0.571  14.127  20.859  0.00  0.00    +0.000 NA
ATOM      3  N   UNL     1       1.476  14.452  19.877  0.00  0.00    +0.000 N 
ATOM      4  C   UNL     1       1.965  13.547  18.943  0.00  0.00    +0.000 A 
ATOM      5  O   UNL     1       2.786  13.828  18.071  0.00  0.00    +0.000 OA
ATOM      6  C   UNL     1       1.461  12.166  19.045  0.00  0.00    +0.000 A 
ATOM      7  C   UNL     1       2.034  11.162  18.246  0.00  0.00    +0.000 A 
ATOM      8  C   UNL     1       1.600   9.845  18.357  0.00  0.00    +0.000 A 
ATOM      9  C   UNL     1       0.563   9.534  19.232  0.00  0.00    +0.000 A 
ATOM     10  C   UNL     1      -0.023  10.538  20.015  0.00  0.00    +0.000 A 
ATOM     11  C   UNL     1       0.449  11.860  19.953  0.00  0.00    +0.000 A 
ENDROOT
BRANCH   1  15
ATOM     12  C   UNL     1      -4.068  13.713  20.064  0.00  0.00    +0.000 C 
ATOM     13  C   UNL     1      -2.734  14.113  20.665  0.00  0.00    +0.000 C 
ATOM     14  N   UNL     1      -2.351  13.205  21.762  0.00  0.00    +0.000 N 
ATOM     15  C   UNL     1      -1.049  12.694  21.943  0.00  0.00    +0.000 C 
ATOM     16  O   UNL     1      -0.679  12.029  22.908  0.00  0.00    +0.000 OA
ATOM     17  C   UNL     1      -3.441  12.952  22.672  0.00  0.00    +0.000 A 
ATOM     18  C   UNL     1      -3.269  12.428  23.960  0.00  0.00    +0.000 A 
ATOM     19  C   UNL     1      -4.359  12.240  24.822  0.00  0.00    +0.000 A 
ATOM     20  C   UNL     1      -5.645  12.579  24.418  0.00  0.00    +0.000 A 
ATOM     21  C   UNL     1      -5.844  13.093  23.141  0.00  0.00    +0.000 A 
ATOM     22  C   UNL     1      -4.760  13.262  22.272  0.00  0.00    +0.000 A 
ATOM     23  O   UNL     1      -5.115  13.724  21.026  0.00  0.00    +0.000 OA
BRANCH  12  26
ATOM     24  C   UNL     1      -2.530  11.206  17.660  0.00  0.00    +0.000 C 
ATOM     25  N   UNL     1      -2.774  12.360  18.486  0.00  0.00    +0.000 N 
ATOM     26  C   UNL     1      -3.889  12.398  19.287  0.00  0.00    +0.000 C 
ATOM     27  O   UNL     1      -4.653  11.437  19.412  0.00  0.00    +0.000 OA
ATOM     28  H   UNL     1      -2.362  13.252  18.231  0.00  0.00    +0.000 HD
ENDBRANCH  12  26
ENDBRANCH   1  15
BRANCH   3  29
ATOM     29  C   UNL     1       1.925  15.845  19.841  0.00  0.00    +0.000 C 
BRANCH  29  30
ATOM     30  C   UNL     1       1.191  16.693  18.822  0.00  0.00    +0.000 A 
ATOM     31  C   UNL     1       1.887  17.382  17.816  0.00  0.00    +0.000 A 
ATOM     32  C   UNL     1       1.205  18.168  16.883  0.00  0.00    +0.000 A 
ATOM     33  C   UNL     1      -0.183  18.270  16.939  0.00  0.00    +0.000 A 
ATOM     34  C   UNL     1      -0.890  17.583  17.926  0.00  0.00    +0.000 A 
ATOM     35  C   UNL     1      -0.208  16.804  18.862  0.00  0.00    +0.000 A 
ENDBRANCH  29  30
ENDBRANCH   3  29
TORSDOF 4
ENDMDL
MODEL 6
REMARK VINA RESULT:      -7.3      1.652      2.344
REMARK  Name = 
REMARK  5 active torsions:
REMARK  status: ('A' for Active; 'I' for Inactive)
REMARK    1  A    between atoms: C_1  and  N_2
REMARK    2  A    between atoms: C_3  and  C_5
REMARK    3  A    between atoms: C_8  and  C_10
REMARK    4  A    between atoms: N_12  and  C_13
REMARK    5  A    between atoms: C_13  and  C_14
REMARK                            x       y       z     vdW  Elec       q    Type
REMARK                         _______ _______ _______ _____ _____    ______ ____
ROOT
ATOM      1  C   UNL     1      -1.192  12.453  22.677  0.00  0.00    +0.000 A 
ATOM      2  N   UNL     1      -2.274  12.086  23.299  0.00  0.00    +0.000 NA
ATOM      3  N   UNL     1      -3.109  13.035  23.843  0.00  0.00    +0.000 N 
ATOM      4  C   UNL     1      -2.808  14.390  23.899  0.00  0.00    +0.000 A 
ATOM      5  O   UNL     1      -3.542  15.241  24.397  0.00  0.00    +0.000 OA
ATOM      6  C   UNL     1      -1.508  14.795  23.335  0.00  0.00    +0.000 A 
ATOM      7  C   UNL     1      -1.065  16.118  23.507  0.00  0.00    +0.000 A 
ATOM      8  C   UNL     1       0.177  16.510  23.017  0.00  0.00    +0.000 A 
ATOM      9  C   UNL     1       0.959  15.596  22.316  0.00  0.00    +0.000 A 
ATOM     10  C   UNL     1       0.508  14.283  22.126  0.00  0.00    +0.000 A 
ATOM     11  C   UNL     1      -0.717  13.862  22.668  0.00  0.00    +0.000 A 
ENDROOT
BRANCH   1  15
ATOM     12  C   UNL     1      -1.038  12.090  18.461  0.00  0.00    +0.000 C 
ATOM     13  C   UNL     1      -1.587  11.673  19.812  0.00  0.00    +0.000 C 
ATOM     14  N   UNL     1      -0.536  11.063  20.648  0.00  0.00    +0.000 N 
ATOM     15  C   UNL     1      -0.361  11.341  22.019  0.00  0.00    +0.000 C 
ATOM     16  O   UNL     1       0.431  10.765  22.762  0.00  0.00    +0.000 OA
ATOM     17  C   UNL     1       0.250  10.096  19.923  0.00  0.00    +0.000 A 
ATOM     18  C   UNL     1       1.060   9.135  20.542  0.00  0.00    +0.000 A 
ATOM     19  C   UNL     1       1.774   8.190  19.793  0.00  0.00    +0.000 A 
ATOM     20  C   UNL     1       1.687   8.180  18.405  0.00  0.00    +0.000 A 
ATOM     21  C   UNL     1       0.898   9.128  17.765  0.00  0.00    +0.000 A 
ATOM     22  C   UNL     1       0.201  10.085  18.512  0.00  0.00    +0.000 A 
ATOM     23  O   UNL     1      -0.491  10.992  17.743  0.00  0.00    +0.000 OA
BRANCH  12  26
ATOM     24  C   UNL     1       0.019  15.712  18.896  0.00  0.00    +0.000 C 
ATOM     25  N   UNL     1      -0.750  14.502  18.773  0.00  0.00    +0.000 N 
ATOM     26  C   UNL     1      -0.104  13.296  18.654  0.00  0.00    +0.000 C 
ATOM     27  O   UNL     1       1.121  13.184  18.750  0.00  0.00    +0.000 OA
ATOM     28  H   UNL     1      -1.702  14.548  18.422  0.00  0.00    +0.000 HD
ENDBRANCH  12  26
ENDBRANCH   1  15
BRANCH   3  29
ATOM     29  C   UNL     1      -4.382  12.551  24.379  0.00  0.00    +0.000 C 
BRANCH  29  30
ATOM     30  C   UNL     1      -5.528  12.636  23.390  0.00  0.00    +0.000 A 
ATOM     31  C   UNL     1      -5.290  12.688  22.008  0.00  0.00    +0.000 A 
ATOM     32  C   UNL     1      -6.351  12.774  21.102  0.00  0.00    +0.000 A 
ATOM     33  C   UNL     1      -7.664  12.801  21.566  0.00  0.00    +0.000 A 
ATOM     34  C   UNL     1      -7.916  12.740  22.936  0.00  0.00    +0.000 A 
ATOM     35  C   UNL     1      -6.856  12.662  23.841  0.00  0.00    +0.000 A 
ENDBRANCH  29  30
ENDBRANCH   3  29
TORSDOF 4
ENDMDL
MODEL 7
REMARK VINA RESULT:      -7.2      1.553      1.977
REMARK  Name = 
REMARK  5 active torsions:
REMARK  status: ('A' for Active; 'I' for Inactive)
REMARK    1  A    between atoms: C_1  and  N_2
REMARK    2  A    between atoms: C_3  and  C_5
REMARK    3  A    between atoms: C_8  and  C_10
REMARK    4  A    between atoms: N_12  and  C_13
REMARK    5  A    between atoms: C_13  and  C_14
REMARK                            x       y       z     vdW  Elec       q    Type
REMARK                         _______ _______ _______ _____ _____    ______ ____
ROOT
ATOM      1  C   UNL     1      -4.548  13.308  23.038  0.00  0.00    +0.000 A 
ATOM      2  N   UNL     1      -5.628  12.868  22.461  0.00  0.00    +0.000 NA
ATOM      3  N   UNL     1      -6.689  13.716  22.252  0.00  0.00    +0.000 N 
ATOM      4  C   UNL     1      -6.753  15.014  22.746  0.00  0.00    +0.000 A 
ATOM      5  O   UNL     1      -7.706  15.772  22.576  0.00  0.00    +0.000 OA
ATOM      6  C   UNL     1      -5.596  15.470  23.537  0.00  0.00    +0.000 A 
ATOM      7  C   UNL     1      -5.663  16.703  24.206  0.00  0.00    +0.000 A 
ATOM      8  C   UNL     1      -4.597  17.134  24.991  0.00  0.00    +0.000 A 
ATOM      9  C   UNL     1      -3.447  16.355  25.073  0.00  0.00    +0.000 A 
ATOM     10  C   UNL     1      -3.371  15.134  24.389  0.00  0.00    +0.000 A 
ATOM     11  C   UNL     1      -4.464  14.664  23.643  0.00  0.00    +0.000 A 
ENDROOT
BRANCH   1  15
ATOM     12  C   UNL     1      -1.332  13.467  20.287  0.00  0.00    +0.000 C 
ATOM     13  C   UNL     1      -2.636  12.864  20.775  0.00  0.00    +0.000 C 
ATOM     14  N   UNL     1      -2.460  12.208  22.084  0.00  0.00    +0.000 N 
ATOM     15  C   UNL     1      -3.373  12.325  23.152  0.00  0.00    +0.000 C 
ATOM     16  O   UNL     1      -3.309  11.701  24.209  0.00  0.00    +0.000 OA
ATOM     17  C   UNL     1      -1.284  11.374  22.127  0.00  0.00    +0.000 A 
ATOM     18  C   UNL     1      -1.072  10.384  23.096  0.00  0.00    +0.000 A 
ATOM     19  C   UNL     1       0.070   9.571  23.070  0.00  0.00    +0.000 A 
ATOM     20  C   UNL     1       1.022   9.726  22.069  0.00  0.00    +0.000 A 
ATOM     21  C   UNL     1       0.840  10.706  21.101  0.00  0.00    +0.000 A 
ATOM     22  C   UNL     1      -0.289  11.532  21.138  0.00  0.00    +0.000 A 
ATOM     23  O   UNL     1      -0.307  12.492  20.153  0.00  0.00    +0.000 OA
BRANCH  12  26
ATOM     24  C   UNL     1       0.747  15.785  22.462  0.00  0.00    +0.000 C 
ATOM     25  N   UNL     1       0.318  14.727  21.585  0.00  0.00    +0.000 N 
ATOM     26  C   UNL     1      -0.988  14.683  21.162  0.00  0.00    +0.000 C 
ATOM     27  O   UNL     1      -1.802  15.575  21.419  0.00  0.00    +0.000 OA
ATOM     28  H   UNL     1       0.835  13.853  21.566  0.00  0.00    +0.000 HD
ENDBRANCH  12  26
ENDBRANCH   1  15
BRANCH   3  29
ATOM     29  C   UNL     1      -7.796  13.188  21.454  0.00  0.00    +0.000 C 
BRANCH  29  30
ATOM     30  C   UNL     1      -7.413  12.864  20.024  0.00  0.00    +0.000 A 
ATOM     31  C   UNL     1      -7.309  11.535  19.585  0.00  0.00    +0.000 A 
ATOM     32  C   UNL     1      -6.947  11.242  18.267  0.00  0.00    +0.000 A 
ATOM     33  C   UNL     1      -6.692  12.275  17.368  0.00  0.00    +0.000 A 
ATOM     34  C   UNL     1      -6.801  13.601  17.786  0.00  0.00    +0.000 A 
ATOM     35  C   UNL     1      -7.155  13.893  19.105  0.00  0.00    +0.000 A 
ENDBRANCH  29  30
ENDBRANCH   3  29
TORSDOF 4
ENDMDL
MODEL 8
REMARK VINA RESULT:      -7.2      2.047      6.739
REMARK  Name = 
REMARK  5 active torsions:
REMARK  status: ('A' for Active; 'I' for Inactive)
REMARK    1  A    between atoms: C_1  and  N_2
REMARK    2  A    between atoms: C_3  and  C_5
REMARK    3  A    between atoms: C_8  and  C_10
REMARK    4  A    between atoms: N_12  and  C_13
REMARK    5  A    between atoms: C_13  and  C_14
REMARK                            x       y       z     vdW  Elec       q    Type
REMARK                         _______ _______ _______ _____ _____    ______ ____
ROOT
ATOM      1  C   UNL     1      -1.536  12.753  21.032  0.00  0.00    +0.000 A 
ATOM      2  N   UNL     1      -1.474  11.875  20.074  0.00  0.00    +0.000 NA
ATOM      3  N   UNL     1      -0.400  11.871  19.215  0.00  0.00    +0.000 N 
ATOM      4  C   UNL     1       0.588  12.848  19.207  0.00  0.00    +0.000 A 
ATOM      5  O   UNL     1       1.543  12.859  18.432  0.00  0.00    +0.000 OA
ATOM      6  C   UNL     1       0.440  13.937  20.189  0.00  0.00    +0.000 A 
ATOM      7  C   UNL     1       1.305  15.042  20.127  0.00  0.00    +0.000 A 
ATOM      8  C   UNL     1       1.156  16.100  21.019  0.00  0.00    +0.000 A 
ATOM      9  C   UNL     1       0.174  16.034  22.003  0.00  0.00    +0.000 A 
ATOM     10  C   UNL     1      -0.675  14.922  22.079  0.00  0.00    +0.000 A 
ATOM     11  C   UNL     1      -0.571  13.878  21.146  0.00  0.00    +0.000 A 
ENDROOT
BRANCH   1  15
ATOM     12  C   UNL     1      -5.476  13.622  19.745  0.00  0.00    +0.000 C 
ATOM     13  C   UNL     1      -4.191  14.013  20.450  0.00  0.00    +0.000 C 
ATOM     14  N   UNL     1      -3.968  13.184  21.648  0.00  0.00    +0.000 N 
ATOM     15  C   UNL     1      -2.720  12.634  22.004  0.00  0.00    +0.000 C 
ATOM     16  O   UNL     1      -2.483  12.036  23.052  0.00  0.00    +0.000 OA
ATOM     17  C   UNL     1      -5.156  13.055  22.455  0.00  0.00    +0.000 A 
ATOM     18  C   UNL     1      -5.143  12.633  23.791  0.00  0.00    +0.000 A 
ATOM     19  C   UNL     1      -6.322  12.564  24.546  0.00  0.00    +0.000 A 
ATOM     20  C   UNL     1      -7.541  12.923  23.983  0.00  0.00    +0.000 A 
ATOM     21  C   UNL     1      -7.584  13.337  22.657  0.00  0.00    +0.000 A 
ATOM     22  C   UNL     1      -6.410  13.387  21.896  0.00  0.00    +0.000 A 
ATOM     23  O   UNL     1      -6.613  13.758  20.588  0.00  0.00    +0.000 OA
BRANCH  12  26
ATOM     24  C   UNL     1      -3.912  10.906  17.599  0.00  0.00    +0.000 C 
ATOM     25  N   UNL     1      -4.165  12.131  18.311  0.00  0.00    +0.000 N 
ATOM     26  C   UNL     1      -5.287  12.241  19.095  0.00  0.00    +0.000 C 
ATOM     27  O   UNL     1      -6.049  11.294  19.304  0.00  0.00    +0.000 OA
ATOM     28  H   UNL     1      -3.753  12.997  17.977  0.00  0.00    +0.000 HD
ENDBRANCH  12  26
ENDBRANCH   1  15
BRANCH   3  29
ATOM     29  C   UNL     1      -0.325  10.754  18.273  0.00  0.00    +0.000 C 
BRANCH  29  30
ATOM     30  C   UNL     1       0.587   9.633  18.732  0.00  0.00    +0.000 A 
ATOM     31  C   UNL     1       1.416   8.956  17.826  0.00  0.00    +0.000 A 
ATOM     32  C   UNL     1       2.249   7.918  18.254  0.00  0.00    +0.000 A 
ATOM     33  C   UNL     1       2.268   7.549  19.597  0.00  0.00    +0.000 A 
ATOM     34  C   UNL     1       1.457   8.219  20.512  0.00  0.00    +0.000 A 
ATOM     35  C   UNL     1       0.620   9.250  20.082  0.00  0.00    +0.000 A 
ENDBRANCH  29  30
ENDBRANCH   3  29
TORSDOF 4
ENDMDL
MODEL 9
REMARK VINA RESULT:      -7.2      1.300      1.404
REMARK  Name = 
REMARK  5 active torsions:
REMARK  status: ('A' for Active; 'I' for Inactive)
REMARK    1  A    between atoms: C_1  and  N_2
REMARK    2  A    between atoms: C_3  and  C_5
REMARK    3  A    between atoms: C_8  and  C_10
REMARK    4  A    between atoms: N_12  and  C_13
REMARK    5  A    between atoms: C_13  and  C_14
REMARK                            x       y       z     vdW  Elec       q    Type
REMARK                         _______ _______ _______ _____ _____    ______ ____
ROOT
ATOM      1  C   UNL     1      -2.483  12.670  22.585  0.00  0.00    +0.000 A 
ATOM      2  N   UNL     1      -3.742  12.353  22.657  0.00  0.00    +0.000 NA
ATOM      3  N   UNL     1      -4.692  13.340  22.778  0.00  0.00    +0.000 N 
ATOM      4  C   UNL     1      -4.393  14.683  22.972  0.00  0.00    +0.000 A 
ATOM      5  O   UNL     1      -5.238  15.568  23.096  0.00  0.00    +0.000 OA
ATOM      6  C   UNL     1      -2.963  15.030  23.049  0.00  0.00    +0.000 A 
ATOM      7  C   UNL     1      -2.590  16.336  23.410  0.00  0.00    +0.000 A 
ATOM      8  C   UNL     1      -1.245  16.673  23.528  0.00  0.00    +0.000 A 
ATOM      9  C   UNL     1      -0.271  15.721  23.243  0.00  0.00    +0.000 A 
ATOM     10  C   UNL     1      -0.642  14.425  22.862  0.00  0.00    +0.000 A 
ATOM     11  C   UNL     1      -1.997  14.059  22.798  0.00  0.00    +0.000 A 
ENDROOT
BRANCH   1  15
ATOM     12  C   UNL     1      -0.612  12.148  18.822  0.00  0.00    +0.000 C 
ATOM     13  C   UNL     1      -1.684  11.792  19.835  0.00  0.00    +0.000 C 
ATOM     14  N   UNL     1      -1.093  11.193  21.046  0.00  0.00    +0.000 N 
ATOM     15  C   UNL     1      -1.491  11.519  22.359  0.00  0.00    +0.000 C 
ATOM     16  O   UNL     1      -1.096  10.955  23.377  0.00  0.00    +0.000 OA
ATOM     17  C   UNL     1      -0.109  10.186  20.737  0.00  0.00    +0.000 A 
ATOM     18  C   UNL     1       0.340   9.232  21.660  0.00  0.00    +0.000 A 
ATOM     19  C   UNL     1       1.268   8.246  21.298  0.00  0.00    +0.000 A 
ATOM     20  C   UNL     1       1.762   8.187  20.000  0.00  0.00    +0.000 A 
ATOM     21  C   UNL     1       1.340   9.126  19.066  0.00  0.00    +0.000 A 
ATOM     22  C   UNL     1       0.429  10.124  19.432  0.00  0.00    +0.000 A 
ATOM     23  O   UNL     1       0.147  11.015  18.423  0.00  0.00    +0.000 OA
BRANCH  12  26
ATOM     24  C   UNL     1       2.390  14.109  20.074  0.00  0.00    +0.000 C 
ATOM     25  N   UNL     1       1.537  13.089  19.523  0.00  0.00    +0.000 N 
ATOM     26  C   UNL     1       0.198  13.342  19.354  0.00  0.00    +0.000 C 
ATOM     27  O   UNL     1      -0.301  14.451  19.560  0.00  0.00    +0.000 OA
ATOM     28  H   UNL     1       1.814  12.114  19.594  0.00  0.00    +0.000 HD
ENDBRANCH  12  26
ENDBRANCH   1  15
BRANCH   3  29
ATOM     29  C   UNL     1      -6.089  12.913  22.687  0.00  0.00    +0.000 C 
BRANCH  29  30
ATOM     30  C   UNL     1      -6.606  12.827  21.264  0.00  0.00    +0.000 A 
ATOM     31  C   UNL     1      -6.463  11.652  20.511  0.00  0.00    +0.000 A 
ATOM     32  C   UNL     1      -6.935  11.582  19.197  0.00  0.00    +0.000 A 
ATOM     33  C   UNL     1      -7.563  12.684  18.622  0.00  0.00    +0.000 A 
ATOM     34  C   UNL     1      -7.722  13.856  19.361  0.00  0.00    +0.000 A 
ATOM     35  C   UNL     1      -7.243  13.928  20.671  0.00  0.00    +0.000 A 
ENDBRANCH  29  30
ENDBRANCH   3  29
TORSDOF 4
ENDMDL
