MODEL 1
REMARK VINA RESULT:      -8.2      0.000      0.000
REMARK  Name = 
REMARK  2 active torsions:
REMARK  status: ('A' for Active; 'I' for Inactive)
REMARK    1  A    between atoms: C_2  and  C_4
REMARK    2  A    between atoms: C_8  and  C_9
REMARK                            x       y       z     vdW  Elec       q    Type
REMARK                         _______ _______ _______ _____ _____    ______ ____
ROOT
ATOM      1  C   UNL     1       1.085   9.522  19.414  0.00  0.00    +0.000 C 
ATOM      2  O   UNL     1       0.995  10.383  18.544  0.00  0.00    +0.000 OA
ATOM      3  N   UNL     1       1.830   8.349  19.250  0.00  0.00    +0.000 N 
ATOM      4  C   UNL     1       2.433   8.073  17.930  0.00  0.00    +0.000 C 
ATOM      5  C   UNL     1       3.402   6.892  17.875  0.00  0.00    +0.000 A 
ATOM      6  C   UNL     1       4.120   6.624  16.703  0.00  0.00    +0.000 A 
ATOM      7  C   UNL     1       5.150   5.686  16.714  0.00  0.00    +0.000 A 
ATOM      8  C   UNL     1       5.521   5.062  17.901  0.00  0.00    +0.000 A 
ATOM      9  C   UNL     1       4.703   5.190  19.028  0.00  0.00    +0.000 A 
ATOM     10  C   UNL     1       3.583   6.036  18.989  0.00  0.00    +0.000 A 
ATOM     11  C   UNL     1       2.470   6.084  20.030  0.00  0.00    +0.000 C 
ATOM     12  C   UNL     1       1.191   5.495  19.352  0.00  0.00    +0.000 C 
ATOM     13  C   UNL     1       0.879   4.156  20.014  0.00  0.00    +0.000 C 
ATOM     14  C   UNL     1       1.993   3.898  21.009  0.00  0.00    +0.000 C 
ATOM     15  C   UNL     1       2.573   5.267  21.328  0.00  0.00    +0.000 C 
ATOM     16  C   UNL     1       2.340   7.575  20.379  0.00  0.00    +0.000 C 
ATOM     17  O   UNL     1       6.650   4.305  18.029  0.00  0.00    +0.000 OA
ATOM     18  C   UNL     1       7.469   4.224  16.858  0.00  0.00    +0.000 C 
ATOM     19  C   UNL     1       7.145   5.182  15.716  0.00  0.00    +0.000 C 
ATOM     20  O   UNL     1       5.751   5.401  15.520  0.00  0.00    +0.000 OA
ENDROOT
BRANCH   1  25
ATOM     21  C   UNL     1      -0.709  11.246  22.312  0.00  0.00    +0.000 A 
ATOM     22  C   UNL     1      -1.064  10.143  23.098  0.00  0.00    +0.000 A 
ATOM     23  C   UNL     1      -0.685   8.856  22.703  0.00  0.00    +0.000 A 
ATOM     24  C   UNL     1       0.018   8.660  21.509  0.00  0.00    +0.000 A 
ATOM     25  C   UNL     1       0.347   9.752  20.698  0.00  0.00    +0.000 A 
ATOM     26  C   UNL     1       0.015  11.047  21.125  0.00  0.00    +0.000 A 
BRANCH  21  28
ATOM     27  N   UNL     1      -2.260  13.114  22.041  0.00  0.00    +0.000 N 
ATOM     28  C   UNL     1      -1.131  12.629  22.642  0.00  0.00    +0.000 C 
ATOM     29  O   UNL     1      -0.500  13.320  23.435  0.00  0.00    +0.000 OA
ATOM     30  H   UNL     1      -2.576  14.028  22.355  0.00  0.00    +0.000 HD
ATOM     31  H   UNL     1      -2.929  12.531  21.564  0.00  0.00    +0.000 HD
ENDBRANCH  21  28
ENDBRANCH   1  25
TORSDOF 2
ENDMDL
MODEL 2
REMARK VINA RESULT:      -8.0      2.644      9.699
REMARK  Name = 
REMARK  2 active torsions:
REMARK  status: ('A' for Active; 'I' for Inactive)
REMARK    1  A    between atoms: C_2  and  C_4
REMARK    2  A    between atoms: C_8  and  C_9
REMARK                            x       y       z     vdW  Elec       q    Type
REMARK                         _______ _______ _______ _____ _____    ______ ____
ROOT
ATOM      1  C   UNL     1       0.137   9.288  21.045  0.00  0.00    +0.000 C 
ATOM      2  O   UNL     1      -0.517   8.475  21.692  0.00  0.00    +0.000 OA
ATOM      3  N   UNL     1       0.042  10.671  21.240  0.00  0.00    +0.000 N 
ATOM      4  C   UNL     1      -0.978  11.184  22.176  0.00  0.00    +0.000 C 
ATOM      5  C   UNL     1      -0.892  12.675  22.503  0.00  0.00    +0.000 A 
ATOM      6  C   UNL     1      -1.733  13.233  23.472  0.00  0.00    +0.000 A 
ATOM      7  C   UNL     1      -1.517  14.536  23.919  0.00  0.00    +0.000 A 
ATOM      8  C   UNL     1      -0.424  15.263  23.461  0.00  0.00    +0.000 A 
ATOM      9  C   UNL     1       0.312  14.784  22.373  0.00  0.00    +0.000 A 
ATOM     10  C   UNL     1       0.018  13.525  21.828  0.00  0.00    +0.000 A 
ATOM     11  C   UNL     1       0.550  12.983  20.504  0.00  0.00    +0.000 C 
ATOM     12  C   UNL     1      -0.662  12.930  19.519  0.00  0.00    +0.000 C 
ATOM     13  C   UNL     1      -0.440  13.988  18.440  0.00  0.00    +0.000 C 
ATOM     14  C   UNL     1       0.831  14.723  18.814  0.00  0.00    +0.000 C 
ATOM     15  C   UNL     1       1.605  13.764  19.704  0.00  0.00    +0.000 C 
ATOM     16  C   UNL     1       1.107  11.595  20.858  0.00  0.00    +0.000 C 
ATOM     17  O   UNL     1      -0.028  16.449  24.011  0.00  0.00    +0.000 OA
ATOM     18  C   UNL     1      -0.795  16.886  25.139  0.00  0.00    +0.000 C 
ATOM     19  C   UNL     1      -1.765  15.881  25.751  0.00  0.00    +0.000 C 
ATOM     20  O   UNL     1      -2.426  15.056  24.796  0.00  0.00    +0.000 OA
ENDROOT
BRANCH   1  25
ATOM     21  C   UNL     1       2.681   7.099  19.222  0.00  0.00    +0.000 A 
ATOM     22  C   UNL     1       2.773   7.766  17.994  0.00  0.00    +0.000 A 
ATOM     23  C   UNL     1       2.042   8.939  17.782  0.00  0.00    +0.000 A 
ATOM     24  C   UNL     1       1.192   9.434  18.779  0.00  0.00    +0.000 A 
ATOM     25  C   UNL     1       1.065   8.754  19.996  0.00  0.00    +0.000 A 
ATOM     26  C   UNL     1       1.843   7.609  20.226  0.00  0.00    +0.000 A 
BRANCH  21  28
ATOM     27  N   UNL     1       2.947   5.058  20.538  0.00  0.00    +0.000 N 
ATOM     28  C   UNL     1       3.382   5.820  19.489  0.00  0.00    +0.000 C 
ATOM     29  O   UNL     1       4.318   5.443  18.790  0.00  0.00    +0.000 OA
ATOM     30  H   UNL     1       3.384   4.145  20.641  0.00  0.00    +0.000 HD
ATOM     31  H   UNL     1       2.062   5.203  20.999  0.00  0.00    +0.000 HD
ENDBRANCH  21  28
ENDBRANCH   1  25
TORSDOF 2
ENDMDL
MODEL 3
REMARK VINA RESULT:      -7.4      6.063      8.722
REMARK  Name = 
REMARK  2 active torsions:
REMARK  status: ('A' for Active; 'I' for Inactive)
REMARK    1  A    between atoms: C_2  and  C_4
REMARK    2  A    between atoms: C_8  and  C_9
REMARK                            x       y       z     vdW  Elec       q    Type
REMARK                         _______ _______ _______ _____ _____    ______ ____
ROOT
ATOM      1  C   UNL     1      -0.146  11.149  19.306  0.00  0.00    +0.000 C 
ATOM      2  O   UNL     1       0.363  10.147  19.799  0.00  0.00    +0.000 OA
ATOM      3  N   UNL     1       0.422  12.424  19.413  0.00  0.00    +0.000 N 
ATOM      4  C   UNL     1       1.620  12.596  20.260  0.00  0.00    +0.000 C 
ATOM      5  C   UNL     1       2.311  13.956  20.168  0.00  0.00    +0.000 A 
ATOM      6  C   UNL     1       3.522  14.177  20.834  0.00  0.00    +0.000 A 
ATOM      7  C   UNL     1       4.255  15.336  20.585  0.00  0.00    +0.000 A 
ATOM      8  C   UNL     1       3.827  16.246  19.623  0.00  0.00    +0.000 A 
ATOM      9  C   UNL     1       2.542  16.122  19.085  0.00  0.00    +0.000 A 
ATOM     10  C   UNL     1       1.741  15.022  19.430  0.00  0.00    +0.000 A 
ATOM     11  C   UNL     1       0.251  14.882  19.134  0.00  0.00    +0.000 C 
ATOM     12  C   UNL     1      -0.492  14.981  20.505  0.00  0.00    +0.000 C 
ATOM     13  C   UNL     1      -1.273  16.292  20.526  0.00  0.00    +0.000 C 
ATOM     14  C   UNL     1      -0.939  17.011  19.235  0.00  0.00    +0.000 C 
ATOM     15  C   UNL     1      -0.480  15.926  18.275  0.00  0.00    +0.000 C 
ATOM     16  C   UNL     1       0.124  13.501  18.472  0.00  0.00    +0.000 C 
ATOM     17  O   UNL     1       4.597  17.280  19.175  0.00  0.00    +0.000 OA
ATOM     18  C   UNL     1       5.914  17.351  19.734  0.00  0.00    +0.000 C 
ATOM     19  C   UNL     1       6.392  16.146  20.537  0.00  0.00    +0.000 C 
ATOM     20  O   UNL     1       5.379  15.540  21.334  0.00  0.00    +0.000 OA
ENDROOT
BRANCH   1  25
ATOM     21  C   UNL     1      -3.819  11.452  18.304  0.00  0.00    +0.000 A 
ATOM     22  C   UNL     1      -3.845  10.661  17.149  0.00  0.00    +0.000 A 
ATOM     23  C   UNL     1      -2.683  10.006  16.727  0.00  0.00    +0.000 A 
ATOM     24  C   UNL     1      -1.486  10.162  17.435  0.00  0.00    +0.000 A 
ATOM     25  C   UNL     1      -1.440  10.979  18.571  0.00  0.00    +0.000 A 
ATOM     26  C   UNL     1      -2.620  11.589  19.023  0.00  0.00    +0.000 A 
BRANCH  21  28
ATOM     27  N   UNL     1      -5.686  12.960  17.849  0.00  0.00    +0.000 N 
ATOM     28  C   UNL     1      -4.999  12.220  18.771  0.00  0.00    +0.000 C 
ATOM     29  O   UNL     1      -5.361  12.190  19.943  0.00  0.00    +0.000 OA
ATOM     30  H   UNL     1      -6.542  13.401  18.176  0.00  0.00    +0.000 HD
ATOM     31  H   UNL     1      -5.573  12.849  16.853  0.00  0.00    +0.000 HD
ENDBRANCH  21  28
ENDBRANCH   1  25
TORSDOF 2
ENDMDL
MODEL 4
REMARK VINA RESULT:      -7.4      6.393      8.210
REMARK  Name = 
REMARK  2 active torsions:
REMARK  status: ('A' for Active; 'I' for Inactive)
REMARK    1  A    between atoms: C_2  and  C_4
REMARK    2  A    between atoms: C_8  and  C_9
REMARK                            x       y       z     vdW  Elec       q    Type
REMARK                         _______ _______ _______ _____ _____    ______ ____
ROOT
ATOM      1  C   UNL     1      -3.685  11.587  17.932  0.00  0.00    +0.000 C 
ATOM      2  O   UNL     1      -3.572  11.071  16.824  0.00  0.00    +0.000 OA
ATOM      3  N   UNL     1      -2.597  12.096  18.650  0.00  0.00    +0.000 N 
ATOM      4  C   UNL     1      -1.237  11.894  18.111  0.00  0.00    +0.000 C 
ATOM      5  C   UNL     1      -0.118  12.650  18.826  0.00  0.00    +0.000 A 
ATOM      6  C   UNL     1       1.186  12.624  18.318  0.00  0.00    +0.000 A 
ATOM      7  C   UNL     1       2.157  13.474  18.843  0.00  0.00    +0.000 A 
ATOM      8  C   UNL     1       1.824  14.403  19.823  0.00  0.00    +0.000 A 
ATOM      9  C   UNL     1       0.579  14.317  20.455  0.00  0.00    +0.000 A 
ATOM     10  C   UNL     1      -0.364  13.373  20.019  0.00  0.00    +0.000 A 
ATOM     11  C   UNL     1      -1.643  12.989  20.757  0.00  0.00    +0.000 C 
ATOM     12  C   UNL     1      -1.442  11.529  21.278  0.00  0.00    +0.000 C 
ATOM     13  C   UNL     1      -1.340  11.582  22.800  0.00  0.00    +0.000 C 
ATOM     14  C   UNL     1      -1.389  13.046  23.184  0.00  0.00    +0.000 C 
ATOM     15  C   UNL     1      -2.076  13.746  22.023  0.00  0.00    +0.000 C 
ATOM     16  C   UNL     1      -2.745  13.108  19.693  0.00  0.00    +0.000 C 
ATOM     17  O   UNL     1       2.661  15.404  20.223  0.00  0.00    +0.000 OA
ATOM     18  C   UNL     1       3.913  15.470  19.530  0.00  0.00    +0.000 C 
ATOM     19  C   UNL     1       4.058  14.613  18.277  0.00  0.00    +0.000 C 
ATOM     20  O   UNL     1       3.432  13.337  18.370  0.00  0.00    +0.000 OA
ENDROOT
BRANCH   1  25
ATOM     21  C   UNL     1      -6.924  10.613  19.707  0.00  0.00    +0.000 A 
ATOM     22  C   UNL     1      -7.624  11.825  19.666  0.00  0.00    +0.000 A 
ATOM     23  C   UNL     1      -7.058  12.935  19.029  0.00  0.00    +0.000 A 
ATOM     24  C   UNL     1      -5.781  12.851  18.462  0.00  0.00    +0.000 A 
ATOM     25  C   UNL     1      -5.058  11.654  18.529  0.00  0.00    +0.000 A 
ATOM     26  C   UNL     1      -5.652  10.527  19.118  0.00  0.00    +0.000 A 
BRANCH  21  28
ATOM     27  N   UNL     1      -7.669   8.287  19.683  0.00  0.00    +0.000 N 
ATOM     28  C   UNL     1      -7.441   9.418  20.417  0.00  0.00    +0.000 C 
ATOM     29  O   UNL     1      -7.652   9.431  21.625  0.00  0.00    +0.000 OA
ATOM     30  H   UNL     1      -7.934   7.457  20.209  0.00  0.00    +0.000 HD
ATOM     31  H   UNL     1      -7.311   8.149  18.750  0.00  0.00    +0.000 HD
ENDBRANCH  21  28
ENDBRANCH   1  25
TORSDOF 2
ENDMDL
MODEL 5
REMARK VINA RESULT:      -7.4      6.274      9.925
REMARK  Name = 
REMARK  2 active torsions:
REMARK  status: ('A' for Active; 'I' for Inactive)
REMARK    1  A    between atoms: C_2  and  C_4
REMARK    2  A    between atoms: C_8  and  C_9
REMARK                            x       y       z     vdW  Elec       q    Type
REMARK                         _______ _______ _______ _____ _____    ______ ____
ROOT
ATOM      1  C   UNL     1       1.678  14.443  21.347  0.00  0.00    +0.000 C 
ATOM      2  O   UNL     1       2.039  14.835  22.452  0.00  0.00    +0.000 OA
ATOM      3  N   UNL     1       0.438  13.833  21.123  0.00  0.00    +0.000 N 
ATOM      4  C   UNL     1      -0.423  13.534  22.285  0.00  0.00    +0.000 C 
ATOM      5  C   UNL     1      -1.841  13.065  21.960  0.00  0.00    +0.000 A 
ATOM      6  C   UNL     1      -2.773  12.876  22.986  0.00  0.00    +0.000 A 
ATOM      7  C   UNL     1      -4.115  12.653  22.680  0.00  0.00    +0.000 A 
ATOM      8  C   UNL     1      -4.550  12.689  21.360  0.00  0.00    +0.000 A 
ATOM      9  C   UNL     1      -3.607  12.702  20.327  0.00  0.00    +0.000 A 
ATOM     10  C   UNL     1      -2.240  12.795  20.627  0.00  0.00    +0.000 A 
ATOM     11  C   UNL     1      -1.096  12.566  19.643  0.00  0.00    +0.000 C 
ATOM     12  C   UNL     1      -0.397  11.235  20.066  0.00  0.00    +0.000 C 
ATOM     13  C   UNL     1      -0.681  10.190  18.991  0.00  0.00    +0.000 C 
ATOM     14  C   UNL     1      -1.604  10.847  17.985  0.00  0.00    +0.000 C 
ATOM     15  C   UNL     1      -1.380  12.342  18.149  0.00  0.00    +0.000 C 
ATOM     16  C   UNL     1      -0.200  13.803  19.809  0.00  0.00    +0.000 C 
ATOM     17  O   UNL     1      -5.868  12.698  21.005  0.00  0.00    +0.000 OA
ATOM     18  C   UNL     1      -6.796  12.711  22.096  0.00  0.00    +0.000 C 
ATOM     19  C   UNL     1      -6.229  12.981  23.486  0.00  0.00    +0.000 C 
ATOM     20  O   UNL     1      -4.958  12.382  23.721  0.00  0.00    +0.000 OA
ENDROOT
BRANCH   1  25
ATOM     21  C   UNL     1       4.420  15.852  19.092  0.00  0.00    +0.000 A 
ATOM     22  C   UNL     1       4.413  14.917  18.049  0.00  0.00    +0.000 A 
ATOM     23  C   UNL     1       3.494  13.862  18.066  0.00  0.00    +0.000 A 
ATOM     24  C   UNL     1       2.603  13.716  19.136  0.00  0.00    +0.000 A 
ATOM     25  C   UNL     1       2.627  14.624  20.201  0.00  0.00    +0.000 A 
ATOM     26  C   UNL     1       3.510  15.713  20.154  0.00  0.00    +0.000 A 
BRANCH  21  28
ATOM     27  N   UNL     1       6.667  16.721  18.691  0.00  0.00    +0.000 N 
ATOM     28  C   UNL     1       5.406  16.957  19.165  0.00  0.00    +0.000 C 
ATOM     29  O   UNL     1       5.107  18.054  19.624  0.00  0.00    +0.000 OA
ATOM     30  H   UNL     1       7.294  17.522  18.668  0.00  0.00    +0.000 HD
ATOM     31  H   UNL     1       6.903  15.931  18.111  0.00  0.00    +0.000 HD
ENDBRANCH  21  28
ENDBRANCH   1  25
TORSDOF 2
ENDMDL
MODEL 6
REMARK VINA RESULT:      -7.4      3.064      6.177
REMARK  Name = 
REMARK  2 active torsions:
REMARK  status: ('A' for Active; 'I' for Inactive)
REMARK    1  A    between atoms: C_2  and  C_4
REMARK    2  A    between atoms: C_8  and  C_9
REMARK                            x       y       z     vdW  Elec       q    Type
REMARK                         _______ _______ _______ _____ _____    ______ ____
ROOT
ATOM      1  C   UNL     1      -2.174  12.000  22.459  0.00  0.00    +0.000 C 
ATOM      2  O   UNL     1      -2.563  11.391  23.450  0.00  0.00    +0.000 OA
ATOM      3  N   UNL     1      -1.159  11.523  21.620  0.00  0.00    +0.000 N 
ATOM      4  C   UNL     1      -0.438  10.296  22.011  0.00  0.00    +0.000 C 
ATOM      5  C   UNL     1       0.505   9.714  20.959  0.00  0.00    +0.000 A 
ATOM      6  C   UNL     1       1.140   8.487  21.183  0.00  0.00    +0.000 A 
ATOM      7  C   UNL     1       1.830   7.857  20.148  0.00  0.00    +0.000 A 
ATOM      8  C   UNL     1       1.833   8.406  18.870  0.00  0.00    +0.000 A 
ATOM      9  C   UNL     1       1.356   9.707  18.680  0.00  0.00    +0.000 A 
ATOM     10  C   UNL     1       0.774  10.403  19.751  0.00  0.00    +0.000 A 
ATOM     11  C   UNL     1       0.447  11.893  19.768  0.00  0.00    +0.000 C 
ATOM     12  C   UNL     1       1.441  12.562  20.770  0.00  0.00    +0.000 C 
ATOM     13  C   UNL     1       2.403  13.436  19.969  0.00  0.00    +0.000 C 
ATOM     14  C   UNL     1       2.055  13.231  18.509  0.00  0.00    +0.000 C 
ATOM     15  C   UNL     1       0.613  12.748  18.501  0.00  0.00    +0.000 C 
ATOM     16  C   UNL     1      -1.017  11.954  20.232  0.00  0.00    +0.000 C 
ATOM     17  O   UNL     1       2.297   7.742  17.771  0.00  0.00    +0.000 OA
ATOM     18  C   UNL     1       2.751   6.405  18.009  0.00  0.00    +0.000 C 
ATOM     19  C   UNL     1       2.423   5.792  19.367  0.00  0.00    +0.000 C 
ATOM     20  O   UNL     1       2.506   6.710  20.453  0.00  0.00    +0.000 OA
ENDROOT
BRANCH   1  25
ATOM     21  C   UNL     1      -4.629  14.633  21.182  0.00  0.00    +0.000 A 
ATOM     22  C   UNL     1      -4.017  15.809  21.634  0.00  0.00    +0.000 A 
ATOM     23  C   UNL     1      -2.796  15.741  22.313  0.00  0.00    +0.000 A 
ATOM     24  C   UNL     1      -2.198  14.502  22.573  0.00  0.00    +0.000 A 
ATOM     25  C   UNL     1      -2.820  13.319  22.157  0.00  0.00    +0.000 A 
ATOM     26  C   UNL     1      -4.015  13.393  21.427  0.00  0.00    +0.000 A 
BRANCH  21  28
ATOM     27  N   UNL     1      -6.000  15.002  19.194  0.00  0.00    +0.000 N 
ATOM     28  C   UNL     1      -5.951  14.631  20.510  0.00  0.00    +0.000 C 
ATOM     29  O   UNL     1      -6.972  14.300  21.103  0.00  0.00    +0.000 OA
ATOM     30  H   UNL     1      -6.902  14.903  18.734  0.00  0.00    +0.000 HD
ATOM     31  H   UNL     1      -5.185  15.068  18.606  0.00  0.00    +0.000 HD
ENDBRANCH  21  28
ENDBRANCH   1  25
TORSDOF 2
ENDMDL
MODEL 7
REMARK VINA RESULT:      -7.4      6.404      9.113
REMARK  Name = 
REMARK  2 active torsions:
REMARK  status: ('A' for Active; 'I' for Inactive)
REMARK    1  A    between atoms: C_2  and  C_4
REMARK    2  A    between atoms: C_8  and  C_9
REMARK                            x       y       z     vdW  Elec       q    Type
REMARK                         _______ _______ _______ _____ _____    ______ ____
ROOT
ATOM      1  C   UNL     1      -0.545  11.427  18.990  0.00  0.00    +0.000 C 
ATOM      2  O   UNL     1      -0.077  10.360  19.374  0.00  0.00    +0.000 OA
ATOM      3  N   UNL     1       0.104  12.654  19.172  0.00  0.00    +0.000 N 
ATOM      4  C   UNL     1       1.346  12.686  19.971  0.00  0.00    +0.000 C 
ATOM      5  C   UNL     1       2.114  14.007  19.956  0.00  0.00    +0.000 A 
ATOM      6  C   UNL     1       3.364  14.102  20.578  0.00  0.00    +0.000 A 
ATOM      7  C   UNL     1       4.154  15.234  20.389  0.00  0.00    +0.000 A 
ATOM      8  C   UNL     1       3.741  16.243  19.526  0.00  0.00    +0.000 A 
ATOM      9  C   UNL     1       2.429  16.239  19.043  0.00  0.00    +0.000 A 
ATOM     10  C   UNL     1       1.578  15.162  19.336  0.00  0.00    +0.000 A 
ATOM     11  C   UNL     1       0.071  15.132  19.102  0.00  0.00    +0.000 C 
ATOM     12  C   UNL     1      -0.604  15.158  20.511  0.00  0.00    +0.000 C 
ATOM     13  C   UNL     1      -1.302  16.506  20.676  0.00  0.00    +0.000 C 
ATOM     14  C   UNL     1      -0.982  17.310  19.433  0.00  0.00    +0.000 C 
ATOM     15  C   UNL     1      -0.632  16.285  18.367  0.00  0.00    +0.000 C 
ATOM     16  C   UNL     1      -0.169  13.821  18.337  0.00  0.00    +0.000 C 
ATOM     17  O   UNL     1       4.553  17.266  19.126  0.00  0.00    +0.000 OA
ATOM     18  C   UNL     1       5.894  17.215  19.625  0.00  0.00    +0.000 C 
ATOM     19  C   UNL     1       6.333  15.921  20.303  0.00  0.00    +0.000 C 
ATOM     20  O   UNL     1       5.321  15.309  21.096  0.00  0.00    +0.000 OA
ENDROOT
BRANCH   1  25
ATOM     21  C   UNL     1      -3.268  10.891  16.365  0.00  0.00    +0.000 A 
ATOM     22  C   UNL     1      -4.401  11.319  17.068  0.00  0.00    +0.000 A 
ATOM     23  C   UNL     1      -4.269  11.813  18.369  0.00  0.00    +0.000 A 
ATOM     24  C   UNL     1      -3.013  11.853  18.987  0.00  0.00    +0.000 A 
ATOM     25  C   UNL     1      -1.879  11.394  18.307  0.00  0.00    +0.000 A 
ATOM     26  C   UNL     1      -2.007  10.952  16.982  0.00  0.00    +0.000 A 
BRANCH  21  28
ATOM     27  N   UNL     1      -4.589  10.051  14.490  0.00  0.00    +0.000 N 
ATOM     28  C   UNL     1      -3.347  10.302  15.007  0.00  0.00    +0.000 C 
ATOM     29  O   UNL     1      -2.338  10.052  14.356  0.00  0.00    +0.000 OA
ATOM     30  H   UNL     1      -4.616   9.735  13.524  0.00  0.00    +0.000 HD
ATOM     31  H   UNL     1      -5.438  10.433  14.877  0.00  0.00    +0.000 HD
ENDBRANCH  21  28
ENDBRANCH   1  25
TORSDOF 2
ENDMDL
MODEL 8
REMARK VINA RESULT:      -7.3      6.699      8.750
REMARK  Name = 
REMARK  2 active torsions:
REMARK  status: ('A' for Active; 'I' for Inactive)
REMARK    1  A    between atoms: C_2  and  C_4
REMARK    2  A    between atoms: C_8  and  C_9
REMARK                            x       y       z     vdW  Elec       q    Type
REMARK                         _______ _______ _______ _____ _____    ______ ____
ROOT
ATOM      1  C   UNL     1      -2.872  11.503  18.195  0.00  0.00    +0.000 C 
ATOM      2  O   UNL     1      -2.302  10.918  17.279  0.00  0.00    +0.000 OA
ATOM      3  N   UNL     1      -2.187  12.118  19.249  0.00  0.00    +0.000 N 
ATOM      4  C   UNL     1      -0.722  11.952  19.333  0.00  0.00    +0.000 C 
ATOM      5  C   UNL     1      -0.012  12.814  20.376  0.00  0.00    +0.000 A 
ATOM      6  C   UNL     1       1.386  12.822  20.451  0.00  0.00    +0.000 A 
ATOM      7  C   UNL     1       2.037  13.757  21.253  0.00  0.00    +0.000 A 
ATOM      8  C   UNL     1       1.311  14.733  21.928  0.00  0.00    +0.000 A 
ATOM      9  C   UNL     1      -0.082  14.625  21.999  0.00  0.00    +0.000 A 
ATOM     10  C   UNL     1      -0.742  13.604  21.298  0.00  0.00    +0.000 A 
ATOM     11  C   UNL     1      -2.204  13.205  21.478  0.00  0.00    +0.000 C 
ATOM     12  C   UNL     1      -2.207  11.798  22.158  0.00  0.00    +0.000 C 
ATOM     13  C   UNL     1      -2.743  11.962  23.578  0.00  0.00    +0.000 C 
ATOM     14  C   UNL     1      -2.974  13.445  23.782  0.00  0.00    +0.000 C 
ATOM     15  C   UNL     1      -3.135  14.024  22.386  0.00  0.00    +0.000 C 
ATOM     16  C   UNL     1      -2.772  13.191  20.050  0.00  0.00    +0.000 C 
ATOM     17  O   UNL     1       1.889  15.803  22.548  0.00  0.00    +0.000 OA
ATOM     18  C   UNL     1       3.313  15.886  22.426  0.00  0.00    +0.000 C 
ATOM     19  C   UNL     1       3.979  14.953  21.419  0.00  0.00    +0.000 C 
ATOM     20  O   UNL     1       3.396  13.655  21.357  0.00  0.00    +0.000 OA
ENDROOT
BRANCH   1  25
ATOM     21  C   UNL     1      -6.535  10.793  19.013  0.00  0.00    +0.000 A 
ATOM     22  C   UNL     1      -7.179  11.654  18.115  0.00  0.00    +0.000 A 
ATOM     23  C   UNL     1      -6.423  12.427  17.227  0.00  0.00    +0.000 A 
ATOM     24  C   UNL     1      -5.025  12.369  17.252  0.00  0.00    +0.000 A 
ATOM     25  C   UNL     1      -4.370  11.539  18.170  0.00  0.00    +0.000 A 
ATOM     26  C   UNL     1      -5.132  10.724  19.021  0.00  0.00    +0.000 A 
BRANCH  21  28
ATOM     27  N   UNL     1      -7.693   8.742  19.659  0.00  0.00    +0.000 N 
ATOM     28  C   UNL     1      -7.274   9.993  20.020  0.00  0.00    +0.000 C 
ATOM     29  O   UNL     1      -7.499  10.427  21.144  0.00  0.00    +0.000 OA
ATOM     30  H   UNL     1      -8.115   8.182  20.397  0.00  0.00    +0.000 HD
ATOM     31  H   UNL     1      -7.352   8.256  18.845  0.00  0.00    +0.000 HD
ENDBRANCH  21  28
ENDBRANCH   1  25
TORSDOF 2
ENDMDL
MODEL 9
REMARK VINA RESULT:      -7.3      6.509     10.092
REMARK  Name = 
REMARK  2 active torsions:
REMARK  status: ('A' for Active; 'I' for Inactive)
REMARK    1  A    between atoms: C_2  and  C_4
REMARK    2  A    between atoms: C_8  and  C_9
REMARK                            x       y       z     vdW  Elec       q    Type
REMARK                         _______ _______ _______ _____ _____    ______ ____
ROOT
ATOM      1  C   UNL     1       1.148  14.849  21.633  0.00  0.00    +0.000 C 
ATOM      2  O   UNL     1       1.506  15.312  22.712  0.00  0.00    +0.000 OA
ATOM      3  N   UNL     1      -0.043  14.131  21.470  0.00  0.00    +0.000 N 
ATOM      4  C   UNL     1      -0.843  13.806  22.667  0.00  0.00    +0.000 C 
ATOM      5  C   UNL     1      -2.225  13.210  22.404  0.00  0.00    +0.000 A 
ATOM      6  C   UNL     1      -3.109  12.983  23.465  0.00  0.00    +0.000 A 
ATOM      7  C   UNL     1      -4.435  12.639  23.209  0.00  0.00    +0.000 A 
ATOM      8  C   UNL     1      -4.908  12.589  21.902  0.00  0.00    +0.000 A 
ATOM      9  C   UNL     1      -4.000  12.640  20.840  0.00  0.00    +0.000 A 
ATOM     10  C   UNL     1      -2.637  12.858  21.095  0.00  0.00    +0.000 A 
ATOM     11  C   UNL     1      -1.506  12.687  20.084  0.00  0.00    +0.000 C 
ATOM     12  C   UNL     1      -0.686  11.434  20.532  0.00  0.00    +0.000 C 
ATOM     13  C   UNL     1      -0.912  10.330  19.504  0.00  0.00    +0.000 C 
ATOM     14  C   UNL     1      -1.915  10.870  18.505  0.00  0.00    +0.000 C 
ATOM     15  C   UNL     1      -1.812  12.383  18.609  0.00  0.00    +0.000 C 
ATOM     16  C   UNL     1      -0.712  13.999  20.178  0.00  0.00    +0.000 C 
ATOM     17  O   UNL     1      -6.232  12.476  21.589  0.00  0.00    +0.000 OA
ATOM     18  C   UNL     1      -7.127  12.453  22.707  0.00  0.00    +0.000 C 
ATOM     19  C   UNL     1      -6.546  12.821  24.068  0.00  0.00    +0.000 C 
ATOM     20  O   UNL     1      -5.223  12.339  24.284  0.00  0.00    +0.000 OA
ENDROOT
BRANCH   1  25
ATOM     21  C   UNL     1       2.589  16.211  18.369  0.00  0.00    +0.000 A 
ATOM     22  C   UNL     1       3.769  15.464  18.267  0.00  0.00    +0.000 A 
ATOM     23  C   UNL     1       4.067  14.499  19.235  0.00  0.00    +0.000 A 
ATOM     24  C   UNL     1       3.209  14.298  20.323  0.00  0.00    +0.000 A 
ATOM     25  C   UNL     1       2.045  15.065  20.453  0.00  0.00    +0.000 A 
ATOM     26  C   UNL     1       1.721  15.992  19.451  0.00  0.00    +0.000 A 
BRANCH  21  28
ATOM     27  N   UNL     1       1.183  18.098  17.713  0.00  0.00    +0.000 N 
ATOM     28  C   UNL     1       2.243  17.289  17.411  0.00  0.00    +0.000 C 
ATOM     29  O   UNL     1       2.888  17.464  16.382  0.00  0.00    +0.000 OA
ATOM     30  H   UNL     1       1.026  18.885  17.087  0.00  0.00    +0.000 HD
ATOM     31  H   UNL     1       0.764  18.145  18.629  0.00  0.00    +0.000 HD
ENDBRANCH  21  28
ENDBRANCH   1  25
TORSDOF 2
ENDMDL
