MODEL 1
REMARK VINA RESULT:      -8.5      0.000      0.000
REMARK  Name = 
REMARK  7 active torsions:
REMARK  status: ('A' for Active; 'I' for Inactive)
REMARK    1  A    between atoms: C_1  and  C_2
REMARK    2  A    between atoms: C_4  and  C_5
REMARK    3  A    between atoms: C_9  and  C_10
REMARK    4  A    between atoms: N_12  and  C_13
REMARK    5  A    between atoms: C_17  and  C_18
REMARK    6  A    between atoms: N_20  and  C_21
REMARK    7  A    between atoms: N_20  and  C_22
REMARK                            x       y       z     vdW  Elec       q    Type
REMARK                         _______ _______ _______ _____ _____    ______ ____
ROOT
ATOM      1  C   UNL     1       1.625   8.176  19.943  0.00  0.00    +0.000 C 
ATOM      2  O   UNL     1       1.354   8.635  21.046  0.00  0.00    +0.000 OA
ATOM      3  N   UNL     1       1.406   8.798  18.716  0.00  0.00    +0.000 N 
ATOM      4  H   UNL     1       1.447   8.221  17.885  0.00  0.00    +0.000 HD
ENDROOT
BRANCH   1   9
ATOM      5  C   UNL     1       3.854   5.196  19.194  0.00  0.00    +0.000 A 
ATOM      6  C   UNL     1       3.252   4.224  20.008  0.00  0.00    +0.000 A 
ATOM      7  C   UNL     1       2.129   4.535  20.775  0.00  0.00    +0.000 A 
ATOM      8  C   UNL     1       1.596   5.823  20.728  0.00  0.00    +0.000 A 
ATOM      9  C   UNL     1       2.179   6.799  19.907  0.00  0.00    +0.000 A 
ATOM     10  C   UNL     1       3.306   6.487  19.146  0.00  0.00    +0.000 A 
BRANCH   5  14
ATOM     11  C   UNL     1       6.984   4.522  15.444  0.00  0.00    +0.000 C 
ATOM     12  C   UNL     1       6.345   4.615  16.771  0.00  0.00    +0.000 A 
ATOM     13  N   UNL     1       5.126   5.006  17.063  0.00  0.00    +0.000 NA
ATOM     14  C   UNL     1       5.059   4.890  18.433  0.00  0.00    +0.000 A 
ATOM     15  N   UNL     1       6.201   4.455  18.994  0.00  0.00    +0.000 NA
ATOM     16  N   UNL     1       6.986   4.280  17.927  0.00  0.00    +0.000 N 
ATOM     17  H   UNL     1       7.931   3.931  18.054  0.00  0.00    +0.000 HD
ENDBRANCH   5  14
ENDBRANCH   1   9
BRANCH   3  18
ATOM     18  C   UNL     1       0.872  10.100  18.558  0.00  0.00    +0.000 A 
ATOM     19  C   UNL     1       1.679  11.237  18.550  0.00  0.00    +0.000 A 
ATOM     20  C   UNL     1       1.117  12.509  18.597  0.00  0.00    +0.000 A 
ATOM     21  C   UNL     1      -0.264  12.659  18.594  0.00  0.00    +0.000 A 
ATOM     22  C   UNL     1      -1.094  11.550  18.410  0.00  0.00    +0.000 A 
ATOM     23  C   UNL     1      -0.515  10.261  18.427  0.00  0.00    +0.000 A 
BRANCH  22  24
ATOM     24  C   UNL     1      -2.582  11.658  18.282  0.00  0.00    +0.000 C 
ATOM     25  O   UNL     1      -3.190  12.006  19.298  0.00  0.00    +0.000 OA
ATOM     26  N   UNL     1      -3.253  11.349  17.089  0.00  0.00    +0.000 N 
ATOM     27  C   UNL     1      -2.659  10.912  15.834  0.00  0.00    +0.000 C 
ATOM     28  C   UNL     1      -4.692  11.558  17.038  0.00  0.00    +0.000 C 
ENDBRANCH  22  24
ENDBRANCH   3  18
TORSDOF 4
ENDMDL
MODEL 2
REMARK VINA RESULT:      -8.2      1.253      1.355
REMARK  Name = 
REMARK  7 active torsions:
REMARK  status: ('A' for Active; 'I' for Inactive)
REMARK    1  A    between atoms: C_1  and  C_2
REMARK    2  A    between atoms: C_4  and  C_5
REMARK    3  A    between atoms: C_9  and  C_10
REMARK    4  A    between atoms: N_12  and  C_13
REMARK    5  A    between atoms: C_17  and  C_18
REMARK    6  A    between atoms: N_20  and  C_21
REMARK    7  A    between atoms: N_20  and  C_22
REMARK                            x       y       z     vdW  Elec       q    Type
REMARK                         _______ _______ _______ _____ _____    ______ ____
ROOT
ATOM      1  C   UNL     1       1.863   8.814  18.348  0.00  0.00    +0.000 C 
ATOM      2  O   UNL     1       2.150   9.336  17.277  0.00  0.00    +0.000 OA
ATOM      3  N   UNL     1       1.050   9.360  19.338  0.00  0.00    +0.000 N 
ATOM      4  H   UNL     1       1.091   8.944  20.260  0.00  0.00    +0.000 HD
ENDROOT
BRANCH   1   9
ATOM      5  C   UNL     1       4.114   5.763  18.168  0.00  0.00    +0.000 A 
ATOM      6  C   UNL     1       3.742   5.108  19.352  0.00  0.00    +0.000 A 
ATOM      7  C   UNL     1       2.763   5.649  20.186  0.00  0.00    +0.000 A 
ATOM      8  C   UNL     1       2.143   6.848  19.834  0.00  0.00    +0.000 A 
ATOM      9  C   UNL     1       2.494   7.504  18.646  0.00  0.00    +0.000 A 
ATOM     10  C   UNL     1       3.478   6.965  17.818  0.00  0.00    +0.000 A 
BRANCH   5  14
ATOM     11  C   UNL     1       6.881   4.709  14.224  0.00  0.00    +0.000 C 
ATOM     12  C   UNL     1       6.311   4.813  15.582  0.00  0.00    +0.000 A 
ATOM     13  N   UNL     1       5.254   5.488  15.972  0.00  0.00    +0.000 NA
ATOM     14  C   UNL     1       5.175   5.230  17.322  0.00  0.00    +0.000 A 
ATOM     15  N   UNL     1       6.156   4.431  17.777  0.00  0.00    +0.000 NA
ATOM     16  N   UNL     1       6.847   4.177  16.662  0.00  0.00    +0.000 N 
ATOM     17  H   UNL     1       7.658   3.566  16.705  0.00  0.00    +0.000 HD
ENDBRANCH   5  14
ENDBRANCH   1   9
BRANCH   3  18
ATOM     18  C   UNL     1       0.380  10.604  19.234  0.00  0.00    +0.000 A 
ATOM     19  C   UNL     1       1.016  11.814  19.508  0.00  0.00    +0.000 A 
ATOM     20  C   UNL     1       0.289  12.997  19.596  0.00  0.00    +0.000 A 
ATOM     21  C   UNL     1      -1.079  12.990  19.353  0.00  0.00    +0.000 A 
ATOM     22  C   UNL     1      -1.709  11.832  18.891  0.00  0.00    +0.000 A 
ATOM     23  C   UNL     1      -0.973  10.626  18.867  0.00  0.00    +0.000 A 
BRANCH  22  24
ATOM     24  C   UNL     1      -3.153  11.790  18.501  0.00  0.00    +0.000 C 
ATOM     25  O   UNL     1      -3.964  12.066  19.390  0.00  0.00    +0.000 OA
ATOM     26  N   UNL     1      -3.568  11.424  17.211  0.00  0.00    +0.000 N 
ATOM     27  C   UNL     1      -2.721  11.059  16.085  0.00  0.00    +0.000 C 
ATOM     28  C   UNL     1      -4.990  11.487  16.905  0.00  0.00    +0.000 C 
ENDBRANCH  22  24
ENDBRANCH   3  18
TORSDOF 4
ENDMDL
MODEL 3
REMARK VINA RESULT:      -8.2      1.198      1.377
REMARK  Name = 
REMARK  7 active torsions:
REMARK  status: ('A' for Active; 'I' for Inactive)
REMARK    1  A    between atoms: C_1  and  C_2
REMARK    2  A    between atoms: C_4  and  C_5
REMARK    3  A    between atoms: C_9  and  C_10
REMARK    4  A    between atoms: N_12  and  C_13
REMARK    5  A    between atoms: C_17  and  C_18
REMARK    6  A    between atoms: N_20  and  C_21
REMARK    7  A    between atoms: N_20  and  C_22
REMARK                            x       y       z     vdW  Elec       q    Type
REMARK                         _______ _______ _______ _____ _____    ______ ____
ROOT
ATOM      1  C   UNL     1       1.807   8.326  19.356  0.00  0.00    +0.000 C 
ATOM      2  O   UNL     1       1.509   8.541  20.525  0.00  0.00    +0.000 OA
ATOM      3  N   UNL     1       1.505   9.138  18.266  0.00  0.00    +0.000 N 
ATOM      4  H   UNL     1       1.589   8.733  17.342  0.00  0.00    +0.000 HD
ENDROOT
BRANCH   1   9
ATOM      5  C   UNL     1       4.001   5.690  17.728  0.00  0.00    +0.000 A 
ATOM      6  C   UNL     1       3.881   4.652  18.665  0.00  0.00    +0.000 A 
ATOM      7  C   UNL     1       3.085   4.808  19.800  0.00  0.00    +0.000 A 
ATOM      8  C   UNL     1       2.397   6.005  20.002  0.00  0.00    +0.000 A 
ATOM      9  C   UNL     1       2.496   7.043  19.065  0.00  0.00    +0.000 A 
ATOM     10  C   UNL     1       3.298   6.887  17.934  0.00  0.00    +0.000 A 
BRANCH   5  14
ATOM     11  C   UNL     1       6.269   3.827  13.765  0.00  0.00    +0.000 C 
ATOM     12  C   UNL     1       5.811   4.682  14.878  0.00  0.00    +0.000 A 
ATOM     13  N   UNL     1       4.885   4.427  15.774  0.00  0.00    +0.000 NA
ATOM     14  C   UNL     1       4.874   5.551  16.569  0.00  0.00    +0.000 A 
ATOM     15  N   UNL     1       5.751   6.493  16.183  0.00  0.00    +0.000 NA
ATOM     16  N   UNL     1       6.333   5.916  15.127  0.00  0.00    +0.000 N 
ATOM     17  H   UNL     1       7.071   6.408  14.632  0.00  0.00    +0.000 HD
ENDBRANCH   5  14
ENDBRANCH   1   9
BRANCH   3  18
ATOM     18  C   UNL     1       0.839  10.386  18.352  0.00  0.00    +0.000 A 
ATOM     19  C   UNL     1       1.523  11.576  18.596  0.00  0.00    +0.000 A 
ATOM     20  C   UNL     1       0.831  12.750  18.876  0.00  0.00    +0.000 A 
ATOM     21  C   UNL     1      -0.558  12.758  18.858  0.00  0.00    +0.000 A 
ATOM     22  C   UNL     1      -1.265  11.632  18.431  0.00  0.00    +0.000 A 
ATOM     23  C   UNL     1      -0.555  10.430  18.211  0.00  0.00    +0.000 A 
BRANCH  22  24
ATOM     24  C   UNL     1      -2.754  11.613  18.279  0.00  0.00    +0.000 C 
ATOM     25  O   UNL     1      -3.407  11.866  19.296  0.00  0.00    +0.000 OA
ATOM     26  N   UNL     1      -3.377  11.294  17.063  0.00  0.00    +0.000 N 
ATOM     27  C   UNL     1      -2.728  10.961  15.803  0.00  0.00    +0.000 C 
ATOM     28  C   UNL     1      -4.828  11.378  16.993  0.00  0.00    +0.000 C 
ENDBRANCH  22  24
ENDBRANCH   3  18
TORSDOF 4
ENDMDL
MODEL 4
REMARK VINA RESULT:      -8.2      1.778      2.164
REMARK  Name = 
REMARK  7 active torsions:
REMARK  status: ('A' for Active; 'I' for Inactive)
REMARK    1  A    between atoms: C_1  and  C_2
REMARK    2  A    between atoms: C_4  and  C_5
REMARK    3  A    between atoms: C_9  and  C_10
REMARK    4  A    between atoms: N_12  and  C_13
REMARK    5  A    between atoms: C_17  and  C_18
REMARK    6  A    between atoms: N_20  and  C_21
REMARK    7  A    between atoms: N_20  and  C_22
REMARK                            x       y       z     vdW  Elec       q    Type
REMARK                         _______ _______ _______ _____ _____    ______ ____
ROOT
ATOM      1  C   UNL     1       1.941   8.756  18.275  0.00  0.00    +0.000 C 
ATOM      2  O   UNL     1       2.121   9.473  17.298  0.00  0.00    +0.000 OA
ATOM      3  N   UNL     1       1.095   9.023  19.348  0.00  0.00    +0.000 N 
ATOM      4  H   UNL     1       1.221   8.477  20.191  0.00  0.00    +0.000 HD
ENDROOT
BRANCH   1   9
ATOM      5  C   UNL     1       4.486   6.047  17.504  0.00  0.00    +0.000 A 
ATOM      6  C   UNL     1       4.343   5.239  18.643  0.00  0.00    +0.000 A 
ATOM      7  C   UNL     1       3.420   5.568  19.637  0.00  0.00    +0.000 A 
ATOM      8  C   UNL     1       2.628   6.707  19.493  0.00  0.00    +0.000 A 
ATOM      9  C   UNL     1       2.750   7.514  18.353  0.00  0.00    +0.000 A 
ATOM     10  C   UNL     1       3.678   7.186  17.364  0.00  0.00    +0.000 A 
BRANCH   5  14
ATOM     11  C   UNL     1       6.714   4.098  13.561  0.00  0.00    +0.000 C 
ATOM     12  C   UNL     1       6.380   4.854  14.784  0.00  0.00    +0.000 A 
ATOM     13  N   UNL     1       5.239   4.891  15.433  0.00  0.00    +0.000 NA
ATOM     14  C   UNL     1       5.487   5.736  16.491  0.00  0.00    +0.000 A 
ATOM     15  N   UNL     1       6.736   6.231  16.506  0.00  0.00    +0.000 NA
ATOM     16  N   UNL     1       7.278   5.651  15.430  0.00  0.00    +0.000 N 
ATOM     17  H   UNL     1       8.249   5.835  15.199  0.00  0.00    +0.000 HD
ENDBRANCH   5  14
ENDBRANCH   1   9
BRANCH   3  18
ATOM     18  C   UNL     1       0.263  10.165  19.452  0.00  0.00    +0.000 A 
ATOM     19  C   UNL     1       0.445  11.129  20.444  0.00  0.00    +0.000 A 
ATOM     20  C   UNL     1      -0.501  12.127  20.649  0.00  0.00    +0.000 A 
ATOM     21  C   UNL     1      -1.617  12.206  19.824  0.00  0.00    +0.000 A 
ATOM     22  C   UNL     1      -1.729  11.375  18.707  0.00  0.00    +0.000 A 
ATOM     23  C   UNL     1      -0.796  10.326  18.547  0.00  0.00    +0.000 A 
BRANCH  22  24
ATOM     24  C   UNL     1      -2.846  11.488  17.716  0.00  0.00    +0.000 C 
ATOM     25  O   UNL     1      -2.546  11.299  16.535  0.00  0.00    +0.000 OA
ATOM     26  N   UNL     1      -4.154  11.823  18.101  0.00  0.00    +0.000 N 
ATOM     27  C   UNL     1      -4.634  12.088  19.449  0.00  0.00    +0.000 C 
ATOM     28  C   UNL     1      -5.188  11.833  17.077  0.00  0.00    +0.000 C 
ENDBRANCH  22  24
ENDBRANCH   3  18
TORSDOF 4
ENDMDL
MODEL 5
REMARK VINA RESULT:      -8.2      2.386      3.321
REMARK  Name = 
REMARK  7 active torsions:
REMARK  status: ('A' for Active; 'I' for Inactive)
REMARK    1  A    between atoms: C_1  and  C_2
REMARK    2  A    between atoms: C_4  and  C_5
REMARK    3  A    between atoms: C_9  and  C_10
REMARK    4  A    between atoms: N_12  and  C_13
REMARK    5  A    between atoms: C_17  and  C_18
REMARK    6  A    between atoms: N_20  and  C_21
REMARK    7  A    between atoms: N_20  and  C_22
REMARK                            x       y       z     vdW  Elec       q    Type
REMARK                         _______ _______ _______ _____ _____    ______ ____
ROOT
ATOM      1  C   UNL     1       2.597   7.329  18.742  0.00  0.00    +0.000 C 
ATOM      2  O   UNL     1       2.539   8.249  17.934  0.00  0.00    +0.000 OA
ATOM      3  N   UNL     1       2.111   7.347  20.046  0.00  0.00    +0.000 N 
ATOM      4  H   UNL     1       2.435   6.624  20.677  0.00  0.00    +0.000 HD
ENDROOT
BRANCH   1   9
ATOM      5  C   UNL     1       4.901   4.956  16.880  0.00  0.00    +0.000 A 
ATOM      6  C   UNL     1       4.734   3.793  17.647  0.00  0.00    +0.000 A 
ATOM      7  C   UNL     1       3.872   3.783  18.744  0.00  0.00    +0.000 A 
ATOM      8  C   UNL     1       3.165   4.938  19.077  0.00  0.00    +0.000 A 
ATOM      9  C   UNL     1       3.311   6.102  18.309  0.00  0.00    +0.000 A 
ATOM     10  C   UNL     1       4.178   6.111  17.216  0.00  0.00    +0.000 A 
BRANCH   5  14
ATOM     11  C   UNL     1       6.990   4.148  12.486  0.00  0.00    +0.000 C 
ATOM     12  C   UNL     1       6.679   4.589  13.860  0.00  0.00    +0.000 A 
ATOM     13  N   UNL     1       5.599   4.352  14.568  0.00  0.00    +0.000 NA
ATOM     14  C   UNL     1       5.841   4.986  15.766  0.00  0.00    +0.000 A 
ATOM     15  N   UNL     1       7.027   5.617  15.812  0.00  0.00    +0.000 NA
ATOM     16  N   UNL     1       7.536   5.342  14.607  0.00  0.00    +0.000 N 
ATOM     17  H   UNL     1       8.459   5.687  14.365  0.00  0.00    +0.000 HD
ENDBRANCH   5  14
ENDBRANCH   1   9
BRANCH   3  18
ATOM     18  C   UNL     1       1.420   8.435  20.633  0.00  0.00    +0.000 A 
ATOM     19  C   UNL     1       1.172   8.504  22.004  0.00  0.00    +0.000 A 
ATOM     20  C   UNL     1       0.322   9.474  22.526  0.00  0.00    +0.000 A 
ATOM     21  C   UNL     1      -0.248  10.423  21.686  0.00  0.00    +0.000 A 
ATOM     22  C   UNL     1       0.132  10.496  20.343  0.00  0.00    +0.000 A 
ATOM     23  C   UNL     1       0.945   9.469  19.813  0.00  0.00    +0.000 A 
BRANCH  22  24
ATOM     24  C   UNL     1      -0.356  11.564  19.415  0.00  0.00    +0.000 C 
ATOM     25  O   UNL     1      -1.351  11.286  18.741  0.00  0.00    +0.000 OA
ATOM     26  N   UNL     1       0.298  12.800  19.290  0.00  0.00    +0.000 N 
ATOM     27  C   UNL     1       1.484  13.244  20.009  0.00  0.00    +0.000 C 
ATOM     28  C   UNL     1      -0.295  13.805  18.421  0.00  0.00    +0.000 C 
ENDBRANCH  22  24
ENDBRANCH   3  18
TORSDOF 4
ENDMDL
MODEL 6
REMARK VINA RESULT:      -8.1      2.677      3.382
REMARK  Name = 
REMARK  7 active torsions:
REMARK  status: ('A' for Active; 'I' for Inactive)
REMARK    1  A    between atoms: C_1  and  C_2
REMARK    2  A    between atoms: C_4  and  C_5
REMARK    3  A    between atoms: C_9  and  C_10
REMARK    4  A    between atoms: N_12  and  C_13
REMARK    5  A    between atoms: C_17  and  C_18
REMARK    6  A    between atoms: N_20  and  C_21
REMARK    7  A    between atoms: N_20  and  C_22
REMARK                            x       y       z     vdW  Elec       q    Type
REMARK                         _______ _______ _______ _____ _____    ______ ____
ROOT
ATOM      1  C   UNL     1       1.855   8.896  18.322  0.00  0.00    +0.000 C 
ATOM      2  O   UNL     1       2.160   9.690  17.440  0.00  0.00    +0.000 OA
ATOM      3  N   UNL     1       0.875   9.080  19.294  0.00  0.00    +0.000 N 
ATOM      4  H   UNL     1       0.892   8.466  20.098  0.00  0.00    +0.000 HD
ENDROOT
BRANCH   1   9
ATOM      5  C   UNL     1       4.394   6.174  17.575  0.00  0.00    +0.000 A 
ATOM      6  C   UNL     1       4.221   5.355  18.702  0.00  0.00    +0.000 A 
ATOM      7  C   UNL     1       3.281   5.682  19.680  0.00  0.00    +0.000 A 
ATOM      8  C   UNL     1       2.501   6.829  19.532  0.00  0.00    +0.000 A 
ATOM      9  C   UNL     1       2.653   7.646  18.403  0.00  0.00    +0.000 A 
ATOM     10  C   UNL     1       3.598   7.321  17.430  0.00  0.00    +0.000 A 
BRANCH   5  14
ATOM     11  C   UNL     1       6.716   4.182  13.707  0.00  0.00    +0.000 C 
ATOM     12  C   UNL     1       6.348   4.962  14.905  0.00  0.00    +0.000 A 
ATOM     13  N   UNL     1       5.201   4.983  15.543  0.00  0.00    +0.000 NA
ATOM     14  C   UNL     1       5.413   5.866  16.579  0.00  0.00    +0.000 A 
ATOM     15  N   UNL     1       6.646   6.399  16.589  0.00  0.00    +0.000 NA
ATOM     16  N   UNL     1       7.215   5.806  15.534  0.00  0.00    +0.000 N 
ATOM     17  H   UNL     1       8.182   6.014  15.306  0.00  0.00    +0.000 HD
ENDBRANCH   5  14
ENDBRANCH   1   9
BRANCH   3  18
ATOM     18  C   UNL     1       0.031  10.215  19.381  0.00  0.00    +0.000 A 
ATOM     19  C   UNL     1      -0.878  10.542  18.375  0.00  0.00    +0.000 A 
ATOM     20  C   UNL     1      -1.546  11.762  18.389  0.00  0.00    +0.000 A 
ATOM     21  C   UNL     1      -1.352  12.647  19.442  0.00  0.00    +0.000 A 
ATOM     22  C   UNL     1      -0.598  12.267  20.554  0.00  0.00    +0.000 A 
ATOM     23  C   UNL     1       0.125  11.054  20.500  0.00  0.00    +0.000 A 
BRANCH  22  24
ATOM     24  C   UNL     1      -0.447  13.129  21.770  0.00  0.00    +0.000 C 
ATOM     25  O   UNL     1       0.642  13.694  21.903  0.00  0.00    +0.000 OA
ATOM     26  N   UNL     1      -1.469  13.260  22.722  0.00  0.00    +0.000 N 
ATOM     27  C   UNL     1      -2.784  12.637  22.694  0.00  0.00    +0.000 C 
ATOM     28  C   UNL     1      -1.259  14.181  23.830  0.00  0.00    +0.000 C 
ENDBRANCH  22  24
ENDBRANCH   3  18
TORSDOF 4
ENDMDL
MODEL 7
REMARK VINA RESULT:      -8.1      2.605      9.032
REMARK  Name = 
REMARK  7 active torsions:
REMARK  status: ('A' for Active; 'I' for Inactive)
REMARK    1  A    between atoms: C_1  and  C_2
REMARK    2  A    between atoms: C_4  and  C_5
REMARK    3  A    between atoms: C_9  and  C_10
REMARK    4  A    between atoms: N_12  and  C_13
REMARK    5  A    between atoms: C_17  and  C_18
REMARK    6  A    between atoms: N_20  and  C_21
REMARK    7  A    between atoms: N_20  and  C_22
REMARK                            x       y       z     vdW  Elec       q    Type
REMARK                         _______ _______ _______ _____ _____    ______ ____
ROOT
ATOM      1  C   UNL     1       1.708   7.868  19.979  0.00  0.00    +0.000 C 
ATOM      2  O   UNL     1       2.067   8.004  18.815  0.00  0.00    +0.000 OA
ATOM      3  N   UNL     1       1.824   6.713  20.748  0.00  0.00    +0.000 N 
ATOM      4  H   UNL     1       1.276   6.658  21.597  0.00  0.00    +0.000 HD
ENDROOT
BRANCH   1   9
ATOM      5  C   UNL     1       0.058  11.248  20.494  0.00  0.00    +0.000 A 
ATOM      6  C   UNL     1      -0.403  11.103  21.812  0.00  0.00    +0.000 A 
ATOM      7  C   UNL     1      -0.165   9.925  22.522  0.00  0.00    +0.000 A 
ATOM      8  C   UNL     1       0.544   8.886  21.918  0.00  0.00    +0.000 A 
ATOM      9  C   UNL     1       1.023   9.025  20.608  0.00  0.00    +0.000 A 
ATOM     10  C   UNL     1       0.778  10.201  19.898  0.00  0.00    +0.000 A 
BRANCH   5  14
ATOM     11  C   UNL     1      -0.487  15.987  19.245  0.00  0.00    +0.000 C 
ATOM     12  C   UNL     1      -0.451  14.512  19.268  0.00  0.00    +0.000 A 
ATOM     13  N   UNL     1      -0.046  13.721  20.236  0.00  0.00    +0.000 NA
ATOM     14  C   UNL     1      -0.235  12.454  19.731  0.00  0.00    +0.000 A 
ATOM     15  N   UNL     1      -0.728  12.440  18.480  0.00  0.00    +0.000 NA
ATOM     16  N   UNL     1      -0.863  13.744  18.220  0.00  0.00    +0.000 N 
ATOM     17  H   UNL     1      -1.242  14.038  17.325  0.00  0.00    +0.000 HD
ENDBRANCH   5  14
ENDBRANCH   1   9
BRANCH   3  18
ATOM     18  C   UNL     1       2.432   5.511  20.307  0.00  0.00    +0.000 A 
ATOM     19  C   UNL     1       1.843   4.264  20.512  0.00  0.00    +0.000 A 
ATOM     20  C   UNL     1       2.549   3.093  20.254  0.00  0.00    +0.000 A 
ATOM     21  C   UNL     1       3.836   3.158  19.734  0.00  0.00    +0.000 A 
ATOM     22  C   UNL     1       4.377   4.384  19.341  0.00  0.00    +0.000 A 
ATOM     23  C   UNL     1       3.678   5.568  19.665  0.00  0.00    +0.000 A 
BRANCH  22  24
ATOM     24  C   UNL     1       5.709   4.508  18.668  0.00  0.00    +0.000 C 
ATOM     25  O   UNL     1       6.674   4.716  19.408  0.00  0.00    +0.000 OA
ATOM     26  N   UNL     1       5.851   4.429  17.274  0.00  0.00    +0.000 N 
ATOM     27  C   UNL     1       4.798   4.208  16.293  0.00  0.00    +0.000 C 
ATOM     28  C   UNL     1       7.195   4.484  16.718  0.00  0.00    +0.000 C 
ENDBRANCH  22  24
ENDBRANCH   3  18
TORSDOF 4
ENDMDL
MODEL 8
REMARK VINA RESULT:      -8.1      2.445      3.575
REMARK  Name = 
REMARK  7 active torsions:
REMARK  status: ('A' for Active; 'I' for Inactive)
REMARK    1  A    between atoms: C_1  and  C_2
REMARK    2  A    between atoms: C_4  and  C_5
REMARK    3  A    between atoms: C_9  and  C_10
REMARK    4  A    between atoms: N_12  and  C_13
REMARK    5  A    between atoms: C_17  and  C_18
REMARK    6  A    between atoms: N_20  and  C_21
REMARK    7  A    between atoms: N_20  and  C_22
REMARK                            x       y       z     vdW  Elec       q    Type
REMARK                         _______ _______ _______ _____ _____    ______ ____
ROOT
ATOM      1  C   UNL     1       2.048   8.680  18.357  0.00  0.00    +0.000 C 
ATOM      2  O   UNL     1       2.164   9.392  17.366  0.00  0.00    +0.000 OA
ATOM      3  N   UNL     1       1.281   8.957  19.485  0.00  0.00    +0.000 N 
ATOM      4  H   UNL     1       1.463   8.414  20.321  0.00  0.00    +0.000 HD
ENDROOT
BRANCH   1   9
ATOM      5  C   UNL     1       4.578   5.992  17.470  0.00  0.00    +0.000 A 
ATOM      6  C   UNL     1       4.444   5.146  18.582  0.00  0.00    +0.000 A 
ATOM      7  C   UNL     1       3.532   5.444  19.595  0.00  0.00    +0.000 A 
ATOM      8  C   UNL     1       2.742   6.590  19.498  0.00  0.00    +0.000 A 
ATOM      9  C   UNL     1       2.855   7.434  18.384  0.00  0.00    +0.000 A 
ATOM     10  C   UNL     1       3.772   7.138  17.376  0.00  0.00    +0.000 A 
BRANCH   5  14
ATOM     11  C   UNL     1       6.752   4.195  13.425  0.00  0.00    +0.000 C 
ATOM     12  C   UNL     1       6.437   4.898  14.684  0.00  0.00    +0.000 A 
ATOM     13  N   UNL     1       5.300   4.923  15.341  0.00  0.00    +0.000 NA
ATOM     14  C   UNL     1       5.568   5.714  16.436  0.00  0.00    +0.000 A 
ATOM     15  N   UNL     1       6.825   6.187  16.466  0.00  0.00    +0.000 NA
ATOM     16  N   UNL     1       7.351   5.650  15.360  0.00  0.00    +0.000 N 
ATOM     17  H   UNL     1       8.324   5.830  15.132  0.00  0.00    +0.000 HD
ENDBRANCH   5  14
ENDBRANCH   1   9
BRANCH   3  18
ATOM     18  C   UNL     1       0.464  10.104  19.641  0.00  0.00    +0.000 A 
ATOM     19  C   UNL     1      -0.820  10.179  19.100  0.00  0.00    +0.000 A 
ATOM     20  C   UNL     1      -1.519  11.381  19.092  0.00  0.00    +0.000 A 
ATOM     21  C   UNL     1      -0.963  12.512  19.678  0.00  0.00    +0.000 A 
ATOM     22  C   UNL     1       0.233  12.421  20.394  0.00  0.00    +0.000 A 
ATOM     23  C   UNL     1       0.963  11.212  20.340  0.00  0.00    +0.000 A 
BRANCH  22  24
ATOM     24  C   UNL     1       0.823  13.574  21.144  0.00  0.00    +0.000 C 
ATOM     25  O   UNL     1       0.538  13.646  22.342  0.00  0.00    +0.000 OA
ATOM     26  N   UNL     1       1.628  14.538  20.518  0.00  0.00    +0.000 N 
ATOM     27  C   UNL     1       2.022  14.580  19.117  0.00  0.00    +0.000 C 
ATOM     28  C   UNL     1       2.220  15.579  21.345  0.00  0.00    +0.000 C 
ENDBRANCH  22  24
ENDBRANCH   3  18
TORSDOF 4
ENDMDL
MODEL 9
REMARK VINA RESULT:      -8.1      0.968      1.310
REMARK  Name = 
REMARK  7 active torsions:
REMARK  status: ('A' for Active; 'I' for Inactive)
REMARK    1  A    between atoms: C_1  and  C_2
REMARK    2  A    between atoms: C_4  and  C_5
REMARK    3  A    between atoms: C_9  and  C_10
REMARK    4  A    between atoms: N_12  and  C_13
REMARK    5  A    between atoms: C_17  and  C_18
REMARK    6  A    between atoms: N_20  and  C_21
REMARK    7  A    between atoms: N_20  and  C_22
REMARK                            x       y       z     vdW  Elec       q    Type
REMARK                         _______ _______ _______ _____ _____    ______ ____
ROOT
ATOM      1  C   UNL     1       1.653   8.170  19.971  0.00  0.00    +0.000 C 
ATOM      2  O   UNL     1       1.313   8.597  21.068  0.00  0.00    +0.000 OA
ATOM      3  N   UNL     1       1.524   8.833  18.753  0.00  0.00    +0.000 N 
ATOM      4  H   UNL     1       1.615   8.282  17.908  0.00  0.00    +0.000 HD
ENDROOT
BRANCH   1   9
ATOM      5  C   UNL     1       3.853   5.173  19.206  0.00  0.00    +0.000 A 
ATOM      6  C   UNL     1       3.242   4.202  20.015  0.00  0.00    +0.000 A 
ATOM      7  C   UNL     1       2.123   4.520  20.785  0.00  0.00    +0.000 A 
ATOM      8  C   UNL     1       1.602   5.814  20.744  0.00  0.00    +0.000 A 
ATOM      9  C   UNL     1       2.194   6.788  19.928  0.00  0.00    +0.000 A 
ATOM     10  C   UNL     1       3.317   6.469  19.165  0.00  0.00    +0.000 A 
BRANCH   5  14
ATOM     11  C   UNL     1       6.975   4.491  15.451  0.00  0.00    +0.000 C 
ATOM     12  C   UNL     1       6.337   4.582  16.779  0.00  0.00    +0.000 A 
ATOM     13  N   UNL     1       5.122   4.984  17.074  0.00  0.00    +0.000 NA
ATOM     14  C   UNL     1       5.054   4.858  18.443  0.00  0.00    +0.000 A 
ATOM     15  N   UNL     1       6.191   4.406  19.000  0.00  0.00    +0.000 NA
ATOM     16  N   UNL     1       6.974   4.231  17.932  0.00  0.00    +0.000 N 
ATOM     17  H   UNL     1       7.915   3.869  18.056  0.00  0.00    +0.000 HD
ENDBRANCH   5  14
ENDBRANCH   1   9
BRANCH   3  18
ATOM     18  C   UNL     1       1.015  10.146  18.602  0.00  0.00    +0.000 A 
ATOM     19  C   UNL     1       1.848  11.265  18.565  0.00  0.00    +0.000 A 
ATOM     20  C   UNL     1       1.317  12.549  18.619  0.00  0.00    +0.000 A 
ATOM     21  C   UNL     1      -0.061  12.730  18.654  0.00  0.00    +0.000 A 
ATOM     22  C   UNL     1      -0.920  11.640  18.499  0.00  0.00    +0.000 A 
ATOM     23  C   UNL     1      -0.371  10.339  18.508  0.00  0.00    +0.000 A 
BRANCH  22  24
ATOM     24  C   UNL     1      -2.408  11.782  18.411  0.00  0.00    +0.000 C 
ATOM     25  O   UNL     1      -2.915  11.516  17.319  0.00  0.00    +0.000 OA
ATOM     26  N   UNL     1      -3.180  12.224  19.496  0.00  0.00    +0.000 N 
ATOM     27  C   UNL     1      -2.706  12.585  20.825  0.00  0.00    +0.000 C 
ATOM     28  C   UNL     1      -4.627  12.255  19.340  0.00  0.00    +0.000 C 
ENDBRANCH  22  24
ENDBRANCH   3  18
TORSDOF 4
ENDMDL
