MODEL 1
REMARK VINA RESULT:      -8.9      0.000      0.000
REMARK  Name = 
REMARK  5 active torsions:
REMARK  status: ('A' for Active; 'I' for Inactive)
REMARK    1  A    between atoms: C_2  and  C_15
REMARK    2  A    between atoms: N_3  and  C_4
REMARK    3  A    between atoms: C_8  and  N_9
REMARK    4  A    between atoms: C_19  and  S_20
REMARK    5  A    between atoms: S_20  and  N_23
REMARK                            x       y       z     vdW  Elec       q    Type
REMARK                         _______ _______ _______ _____ _____    ______ ____
ROOT
ATOM      1  O   UNL     1       1.965   9.611  17.378  0.00  0.00    +0.000 OA
ATOM      2  C   UNL     1       1.839   8.899  18.371  0.00  0.00    +0.000 C 
ATOM      3  N   UNL     1       1.078   9.206  19.490  0.00  0.00    +0.000 N 
ATOM      4  H   UNL     1       1.235   8.668  20.334  0.00  0.00    +0.000 HD
ENDROOT
BRANCH   3   5
ATOM      5  C   UNL     1       0.225  10.335  19.588  0.00  0.00    +0.000 A 
ATOM      6  C   UNL     1       0.530  11.443  20.387  0.00  0.00    +0.000 A 
ATOM      7  C   UNL     1      -0.337  12.531  20.479  0.00  0.00    +0.000 A 
ATOM      8  C   UNL     1      -1.518  12.543  19.751  0.00  0.00    +0.000 A 
ATOM      9  C   UNL     1      -1.829  11.461  18.916  0.00  0.00    +0.000 A 
ATOM     10  C   UNL     1      -0.958  10.354  18.841  0.00  0.00    +0.000 A 
BRANCH   9  11
ATOM     11  N   UNL     1      -3.010  11.484  18.139  0.00  0.00    +0.000 N 
ATOM     12  C   UNL     1      -4.303  11.730  18.527  0.00  0.00    +0.000 A 
ATOM     13  N   UNL     1      -5.093  11.669  17.479  0.00  0.00    +0.000 NA
ATOM     14  N   UNL     1      -4.276  11.383  16.418  0.00  0.00    +0.000 NA
ATOM     15  N   UNL     1      -3.012  11.273  16.802  0.00  0.00    +0.000 NA
ENDBRANCH   9  11
ENDBRANCH   3   5
BRANCH   2  16
ATOM     16  C   UNL     1       2.603   7.627  18.370  0.00  0.00    +0.000 A 
ATOM     17  C   UNL     1       2.413   6.790  19.486  0.00  0.00    +0.000 A 
ATOM     18  C   UNL     1       3.211   5.666  19.678  0.00  0.00    +0.000 A 
ATOM     19  C   UNL     1       4.192   5.350  18.742  0.00  0.00    +0.000 A 
ATOM     20  C   UNL     1       4.354   6.150  17.602  0.00  0.00    +0.000 A 
ATOM     21  C   UNL     1       3.560   7.294  17.405  0.00  0.00    +0.000 A 
BRANCH  20  22
ATOM     22  S   UNL     1       5.431   5.568  16.295  0.00  0.00    +0.000 S 
ATOM     23  O   UNL     1       5.206   4.144  16.167  0.00  0.00    +0.000 OA
ATOM     24  O   UNL     1       5.225   6.459  15.172  0.00  0.00    +0.000 OA
BRANCH  22  25
ATOM     25  N   UNL     1       6.996   5.799  16.862  0.00  0.00    +0.000 NA
ATOM     26  C   UNL     1       7.614   4.820  17.766  0.00  0.00    +0.000 C 
ATOM     27  C   UNL     1       7.739   5.575  19.076  0.00  0.00    +0.000 C 
ATOM     28  C   UNL     1       8.021   7.007  18.653  0.00  0.00    +0.000 C 
ATOM     29  C   UNL     1       7.443   7.149  17.247  0.00  0.00    +0.000 C 
ENDBRANCH  22  25
ENDBRANCH  20  22
ENDBRANCH   2  16
TORSDOF 5
ENDMDL
MODEL 2
REMARK VINA RESULT:      -8.7      1.277      1.462
REMARK  Name = 
REMARK  5 active torsions:
REMARK  status: ('A' for Active; 'I' for Inactive)
REMARK    1  A    between atoms: C_2  and  C_15
REMARK    2  A    between atoms: N_3  and  C_4
REMARK    3  A    between atoms: C_8  and  N_9
REMARK    4  A    between atoms: C_19  and  S_20
REMARK    5  A    between atoms: S_20  and  N_23
REMARK                            x       y       z     vdW  Elec       q    Type
REMARK                         _______ _______ _______ _____ _____    ______ ____
ROOT
ATOM      1  O   UNL     1       1.881   8.140  20.175  0.00  0.00    +0.000 OA
ATOM      2  C   UNL     1       2.020   8.028  18.960  0.00  0.00    +0.000 C 
ATOM      3  N   UNL     1       1.572   8.935  18.012  0.00  0.00    +0.000 N 
ATOM      4  H   UNL     1       1.529   8.631  17.046  0.00  0.00    +0.000 HD
ENDROOT
BRANCH   3   5
ATOM      5  C   UNL     1       1.004  10.197  18.322  0.00  0.00    +0.000 A 
ATOM      6  C   UNL     1       1.782  11.339  18.550  0.00  0.00    +0.000 A 
ATOM      7  C   UNL     1       1.198  12.563  18.872  0.00  0.00    +0.000 A 
ATOM      8  C   UNL     1      -0.184  12.675  18.947  0.00  0.00    +0.000 A 
ATOM      9  C   UNL     1      -0.986  11.555  18.688  0.00  0.00    +0.000 A 
ATOM     10  C   UNL     1      -0.389  10.314  18.382  0.00  0.00    +0.000 A 
BRANCH   9  11
ATOM     11  N   UNL     1      -2.395  11.671  18.721  0.00  0.00    +0.000 N 
ATOM     12  C   UNL     1      -3.332  11.153  17.863  0.00  0.00    +0.000 A 
ATOM     13  N   UNL     1      -4.533  11.489  18.273  0.00  0.00    +0.000 NA
ATOM     14  N   UNL     1      -4.341  12.229  19.409  0.00  0.00    +0.000 NA
ATOM     15  N   UNL     1      -3.052  12.343  19.695  0.00  0.00    +0.000 NA
ENDBRANCH   9  11
ENDBRANCH   3   5
BRANCH   2  16
ATOM     16  C   UNL     1       2.691   6.792  18.486  0.00  0.00    +0.000 A 
ATOM     17  C   UNL     1       2.301   5.594  19.113  0.00  0.00    +0.000 A 
ATOM     18  C   UNL     1       2.990   4.409  18.878  0.00  0.00    +0.000 A 
ATOM     19  C   UNL     1       4.062   4.399  17.991  0.00  0.00    +0.000 A 
ATOM     20  C   UNL     1       4.427   5.577  17.322  0.00  0.00    +0.000 A 
ATOM     21  C   UNL     1       3.743   6.783  17.562  0.00  0.00    +0.000 A 
BRANCH  20  22
ATOM     22  S   UNL     1       5.625   5.473  15.997  0.00  0.00    +0.000 S 
ATOM     23  O   UNL     1       5.566   4.122  15.481  0.00  0.00    +0.000 OA
ATOM     24  O   UNL     1       5.379   6.610  15.136  0.00  0.00    +0.000 OA
BRANCH  22  25
ATOM     25  N   UNL     1       7.125   5.686  16.725  0.00  0.00    +0.000 NA
ATOM     26  C   UNL     1       7.647   4.686  17.665  0.00  0.00    +0.000 C 
ATOM     27  C   UNL     1       7.639   5.411  18.997  0.00  0.00    +0.000 C 
ATOM     28  C   UNL     1       7.964   6.852  18.637  0.00  0.00    +0.000 C 
ATOM     29  C   UNL     1       7.532   7.025  17.183  0.00  0.00    +0.000 C 
ENDBRANCH  22  25
ENDBRANCH  20  22
ENDBRANCH   2  16
TORSDOF 5
ENDMDL
MODEL 3
REMARK VINA RESULT:      -8.6      3.202      9.436
REMARK  Name = 
REMARK  5 active torsions:
REMARK  status: ('A' for Active; 'I' for Inactive)
REMARK    1  A    between atoms: C_2  and  C_15
REMARK    2  A    between atoms: N_3  and  C_4
REMARK    3  A    between atoms: C_8  and  N_9
REMARK    4  A    between atoms: C_19  and  S_20
REMARK    5  A    between atoms: S_20  and  N_23
REMARK                            x       y       z     vdW  Elec       q    Type
REMARK                         _______ _______ _______ _____ _____    ______ ____
ROOT
ATOM      1  O   UNL     1       1.953   6.509  21.148  0.00  0.00    +0.000 OA
ATOM      2  C   UNL     1       1.703   7.311  20.253  0.00  0.00    +0.000 C 
ATOM      3  N   UNL     1       2.016   7.144  18.912  0.00  0.00    +0.000 N 
ATOM      4  H   UNL     1       1.980   7.959  18.311  0.00  0.00    +0.000 HD
ENDROOT
BRANCH   3   5
ATOM      5  C   UNL     1       2.555   5.954  18.362  0.00  0.00    +0.000 A 
ATOM      6  C   UNL     1       1.752   4.886  17.943  0.00  0.00    +0.000 A 
ATOM      7  C   UNL     1       2.309   3.719  17.423  0.00  0.00    +0.000 A 
ATOM      8  C   UNL     1       3.687   3.607  17.288  0.00  0.00    +0.000 A 
ATOM      9  C   UNL     1       4.510   4.676  17.667  0.00  0.00    +0.000 A 
ATOM     10  C   UNL     1       3.941   5.846  18.211  0.00  0.00    +0.000 A 
BRANCH   9  11
ATOM     11  N   UNL     1       5.910   4.585  17.493  0.00  0.00    +0.000 N 
ATOM     12  C   UNL     1       6.643   4.555  16.334  0.00  0.00    +0.000 A 
ATOM     13  N   UNL     1       7.922   4.483  16.627  0.00  0.00    +0.000 NA
ATOM     14  N   UNL     1       7.986   4.471  17.995  0.00  0.00    +0.000 NA
ATOM     15  N   UNL     1       6.776   4.537  18.532  0.00  0.00    +0.000 NA
ENDBRANCH   9  11
ENDBRANCH   3   5
BRANCH   2  16
ATOM     16  C   UNL     1       1.045   8.575  20.667  0.00  0.00    +0.000 A 
ATOM     17  C   UNL     1       1.073   8.867  22.044  0.00  0.00    +0.000 A 
ATOM     18  C   UNL     1       0.335   9.926  22.564  0.00  0.00    +0.000 A 
ATOM     19  C   UNL     1      -0.422  10.722  21.710  0.00  0.00    +0.000 A 
ATOM     20  C   UNL     1      -0.417  10.470  20.330  0.00  0.00    +0.000 A 
ATOM     21  C   UNL     1       0.317   9.396  19.797  0.00  0.00    +0.000 A 
BRANCH  20  22
ATOM     22  S   UNL     1      -1.178  11.667  19.239  0.00  0.00    +0.000 S 
ATOM     23  O   UNL     1      -1.875  12.619  20.077  0.00  0.00    +0.000 OA
ATOM     24  O   UNL     1      -0.142  12.099  18.324  0.00  0.00    +0.000 OA
BRANCH  22  25
ATOM     25  N   UNL     1      -2.326  10.812  18.358  0.00  0.00    +0.000 NA
ATOM     26  C   UNL     1      -1.952  10.123  17.116  0.00  0.00    +0.000 C 
ATOM     27  C   UNL     1      -2.680  10.907  16.040  0.00  0.00    +0.000 C 
ATOM     28  C   UNL     1      -3.976  11.337  16.708  0.00  0.00    +0.000 C 
ATOM     29  C   UNL     1      -3.687  11.357  18.207  0.00  0.00    +0.000 C 
ENDBRANCH  22  25
ENDBRANCH  20  22
ENDBRANCH   2  16
TORSDOF 5
ENDMDL
MODEL 4
REMARK VINA RESULT:      -8.4      2.943      9.454
REMARK  Name = 
REMARK  5 active torsions:
REMARK  status: ('A' for Active; 'I' for Inactive)
REMARK    1  A    between atoms: C_2  and  C_15
REMARK    2  A    between atoms: N_3  and  C_4
REMARK    3  A    between atoms: C_8  and  N_9
REMARK    4  A    between atoms: C_19  and  S_20
REMARK    5  A    between atoms: S_20  and  N_23
REMARK                            x       y       z     vdW  Elec       q    Type
REMARK                         _______ _______ _______ _____ _____    ______ ____
ROOT
ATOM      1  O   UNL     1       2.259   8.578  17.570  0.00  0.00    +0.000 OA
ATOM      2  C   UNL     1       1.771   8.239  18.645  0.00  0.00    +0.000 C 
ATOM      3  N   UNL     1       1.839   6.967  19.193  0.00  0.00    +0.000 N 
ATOM      4  H   UNL     1       1.208   6.743  19.954  0.00  0.00    +0.000 HD
ENDROOT
BRANCH   3   5
ATOM      5  C   UNL     1       2.603   5.904  18.648  0.00  0.00    +0.000 A 
ATOM      6  C   UNL     1       2.031   4.879  17.884  0.00  0.00    +0.000 A 
ATOM      7  C   UNL     1       2.803   3.836  17.375  0.00  0.00    +0.000 A 
ATOM      8  C   UNL     1       4.173   3.810  17.601  0.00  0.00    +0.000 A 
ATOM      9  C   UNL     1       4.774   4.843  18.333  0.00  0.00    +0.000 A 
ATOM     10  C   UNL     1       3.985   5.886  18.861  0.00  0.00    +0.000 A 
BRANCH   9  11
ATOM     11  N   UNL     1       6.174   4.847  18.531  0.00  0.00    +0.000 N 
ATOM     12  C   UNL     1       7.177   4.490  17.664  0.00  0.00    +0.000 A 
ATOM     13  N   UNL     1       8.340   4.661  18.249  0.00  0.00    +0.000 NA
ATOM     14  N   UNL     1       8.057   5.135  19.502  0.00  0.00    +0.000 NA
ATOM     15  N   UNL     1       6.750   5.256  19.685  0.00  0.00    +0.000 NA
ENDBRANCH   9  11
ENDBRANCH   3   5
BRANCH   2  16
ATOM     16  C   UNL     1       1.018   9.282  19.384  0.00  0.00    +0.000 A 
ATOM     17  C   UNL     1       1.024   9.174  20.787  0.00  0.00    +0.000 A 
ATOM     18  C   UNL     1       0.206   9.984  21.569  0.00  0.00    +0.000 A 
ATOM     19  C   UNL     1      -0.610  10.931  20.959  0.00  0.00    +0.000 A 
ATOM     20  C   UNL     1      -0.586  11.081  19.564  0.00  0.00    +0.000 A 
ATOM     21  C   UNL     1       0.229  10.259  18.766  0.00  0.00    +0.000 A 
BRANCH  20  22
ATOM     22  S   UNL     1      -1.437  12.479  18.839  0.00  0.00    +0.000 S 
ATOM     23  O   UNL     1      -2.137  13.150  19.914  0.00  0.00    +0.000 OA
ATOM     24  O   UNL     1      -0.457  13.180  18.037  0.00  0.00    +0.000 OA
BRANCH  22  25
ATOM     25  N   UNL     1      -2.585  11.822  17.801  0.00  0.00    +0.000 NA
ATOM     26  C   UNL     1      -3.695  11.018  18.330  0.00  0.00    +0.000 C 
ATOM     27  C   UNL     1      -3.400   9.622  17.815  0.00  0.00    +0.000 C 
ATOM     28  C   UNL     1      -2.766   9.855  16.454  0.00  0.00    +0.000 C 
ATOM     29  C   UNL     1      -2.163  11.256  16.508  0.00  0.00    +0.000 C 
ENDBRANCH  22  25
ENDBRANCH  20  22
ENDBRANCH   2  16
TORSDOF 5
ENDMDL
MODEL 5
REMARK VINA RESULT:      -8.4      2.698      3.570
REMARK  Name = 
REMARK  5 active torsions:
REMARK  status: ('A' for Active; 'I' for Inactive)
REMARK    1  A    between atoms: C_2  and  C_15
REMARK    2  A    between atoms: N_3  and  C_4
REMARK    3  A    between atoms: C_8  and  N_9
REMARK    4  A    between atoms: C_19  and  S_20
REMARK    5  A    between atoms: S_20  and  N_23
REMARK                            x       y       z     vdW  Elec       q    Type
REMARK                         _______ _______ _______ _____ _____    ______ ____
ROOT
ATOM      1  O   UNL     1       2.166   7.841  20.030  0.00  0.00    +0.000 OA
ATOM      2  C   UNL     1       2.157   7.784  18.804  0.00  0.00    +0.000 C 
ATOM      3  N   UNL     1       1.600   8.731  17.958  0.00  0.00    +0.000 N 
ATOM      4  H   UNL     1       1.439   8.470  16.992  0.00  0.00    +0.000 HD
ENDROOT
BRANCH   3   5
ATOM      5  C   UNL     1       1.076   9.976  18.390  0.00  0.00    +0.000 A 
ATOM      6  C   UNL     1      -0.209  10.105  18.932  0.00  0.00    +0.000 A 
ATOM      7  C   UNL     1      -0.706  11.345  19.332  0.00  0.00    +0.000 A 
ATOM      8  C   UNL     1       0.086  12.480  19.222  0.00  0.00    +0.000 A 
ATOM      9  C   UNL     1       1.388  12.370  18.716  0.00  0.00    +0.000 A 
ATOM     10  C   UNL     1       1.879  11.117  18.294  0.00  0.00    +0.000 A 
BRANCH   9  11
ATOM     11  N   UNL     1       2.216  13.515  18.640  0.00  0.00    +0.000 N 
ATOM     12  C   UNL     1       1.940  14.813  18.990  0.00  0.00    +0.000 A 
ATOM     13  N   UNL     1       2.999  15.558  18.772  0.00  0.00    +0.000 NA
ATOM     14  N   UNL     1       3.953  14.708  18.279  0.00  0.00    +0.000 NA
ATOM     15  N   UNL     1       3.493  13.467  18.198  0.00  0.00    +0.000 NA
ENDBRANCH   9  11
ENDBRANCH   3   5
BRANCH   2  16
ATOM     16  C   UNL     1       2.764   6.573  18.197  0.00  0.00    +0.000 A 
ATOM     17  C   UNL     1       2.201   5.341  18.577  0.00  0.00    +0.000 A 
ATOM     18  C   UNL     1       2.803   4.139  18.215  0.00  0.00    +0.000 A 
ATOM     19  C   UNL     1       3.963   4.155  17.445  0.00  0.00    +0.000 A 
ATOM     20  C   UNL     1       4.503   5.377  17.019  0.00  0.00    +0.000 A 
ATOM     21  C   UNL     1       3.908   6.596  17.389  0.00  0.00    +0.000 A 
BRANCH  20  22
ATOM     22  S   UNL     1       5.828   5.354  15.815  0.00  0.00    +0.000 S 
ATOM     23  O   UNL     1       5.886   4.010  15.279  0.00  0.00    +0.000 OA
ATOM     24  O   UNL     1       5.609   6.492  14.948  0.00  0.00    +0.000 OA
BRANCH  22  25
ATOM     25  N   UNL     1       7.238   5.627  16.688  0.00  0.00    +0.000 NA
ATOM     26  C   UNL     1       7.660   4.688  17.736  0.00  0.00    +0.000 C 
ATOM     27  C   UNL     1       7.503   5.488  19.015  0.00  0.00    +0.000 C 
ATOM     28  C   UNL     1       7.856   6.910  18.609  0.00  0.00    +0.000 C 
ATOM     29  C   UNL     1       7.584   6.995  17.110  0.00  0.00    +0.000 C 
ENDBRANCH  22  25
ENDBRANCH  20  22
ENDBRANCH   2  16
TORSDOF 5
ENDMDL
MODEL 6
REMARK VINA RESULT:      -8.4      3.013      9.486
REMARK  Name = 
REMARK  5 active torsions:
REMARK  status: ('A' for Active; 'I' for Inactive)
REMARK    1  A    between atoms: C_2  and  C_15
REMARK    2  A    between atoms: N_3  and  C_4
REMARK    3  A    between atoms: C_8  and  N_9
REMARK    4  A    between atoms: C_19  and  S_20
REMARK    5  A    between atoms: S_20  and  N_23
REMARK                            x       y       z     vdW  Elec       q    Type
REMARK                         _______ _______ _______ _____ _____    ______ ____
ROOT
ATOM      1  O   UNL     1       2.450   7.741  18.808  0.00  0.00    +0.000 OA
ATOM      2  C   UNL     1       1.903   7.576  19.895  0.00  0.00    +0.000 C 
ATOM      3  N   UNL     1       1.909   6.399  20.628  0.00  0.00    +0.000 N 
ATOM      4  H   UNL     1       1.237   6.305  21.381  0.00  0.00    +0.000 HD
ENDROOT
BRANCH   3   5
ATOM      5  C   UNL     1       2.667   5.251  20.286  0.00  0.00    +0.000 A 
ATOM      6  C   UNL     1       2.231   3.949  20.564  0.00  0.00    +0.000 A 
ATOM      7  C   UNL     1       3.006   2.838  20.233  0.00  0.00    +0.000 A 
ATOM      8  C   UNL     1       4.225   3.008  19.591  0.00  0.00    +0.000 A 
ATOM      9  C   UNL     1       4.666   4.298  19.270  0.00  0.00    +0.000 A 
ATOM     10  C   UNL     1       3.888   5.420  19.624  0.00  0.00    +0.000 A 
BRANCH   9  11
ATOM     11  N   UNL     1       5.887   4.476  18.578  0.00  0.00    +0.000 N 
ATOM     12  C   UNL     1       6.152   4.362  17.236  0.00  0.00    +0.000 A 
ATOM     13  N   UNL     1       7.419   4.629  17.017  0.00  0.00    +0.000 NA
ATOM     14  N   UNL     1       7.952   4.918  18.245  0.00  0.00    +0.000 NA
ATOM     15  N   UNL     1       7.035   4.833  19.198  0.00  0.00    +0.000 NA
ENDBRANCH   9  11
ENDBRANCH   3   5
BRANCH   2  16
ATOM     16  C   UNL     1       1.145   8.733  20.432  0.00  0.00    +0.000 A 
ATOM     17  C   UNL     1       1.171   8.896  21.830  0.00  0.00    +0.000 A 
ATOM     18  C   UNL     1       0.353   9.832  22.454  0.00  0.00    +0.000 A 
ATOM     19  C   UNL     1      -0.484  10.637  21.686  0.00  0.00    +0.000 A 
ATOM     20  C   UNL     1      -0.480  10.517  20.289  0.00  0.00    +0.000 A 
ATOM     21  C   UNL     1       0.336   9.566  19.650  0.00  0.00    +0.000 A 
BRANCH  20  22
ATOM     22  S   UNL     1      -1.358  11.741  19.322  0.00  0.00    +0.000 S 
ATOM     23  O   UNL     1      -2.103  12.559  20.255  0.00  0.00    +0.000 OA
ATOM     24  O   UNL     1      -0.383  12.331  18.430  0.00  0.00    +0.000 OA
BRANCH  22  25
ATOM     25  N   UNL     1      -2.460  10.878  18.392  0.00  0.00    +0.000 NA
ATOM     26  C   UNL     1      -2.029  10.202  17.161  0.00  0.00    +0.000 C 
ATOM     27  C   UNL     1      -2.725  10.985  16.063  0.00  0.00    +0.000 C 
ATOM     28  C   UNL     1      -4.051  11.394  16.683  0.00  0.00    +0.000 C 
ATOM     29  C   UNL     1      -3.821  11.406  18.192  0.00  0.00    +0.000 C 
ENDBRANCH  22  25
ENDBRANCH  20  22
ENDBRANCH   2  16
TORSDOF 5
ENDMDL
MODEL 7
REMARK VINA RESULT:      -8.3      3.267      9.472
REMARK  Name = 
REMARK  5 active torsions:
REMARK  status: ('A' for Active; 'I' for Inactive)
REMARK    1  A    between atoms: C_2  and  C_15
REMARK    2  A    between atoms: N_3  and  C_4
REMARK    3  A    between atoms: C_8  and  N_9
REMARK    4  A    between atoms: C_19  and  S_20
REMARK    5  A    between atoms: S_20  and  N_23
REMARK                            x       y       z     vdW  Elec       q    Type
REMARK                         _______ _______ _______ _____ _____    ______ ____
ROOT
ATOM      1  O   UNL     1       2.427   8.351  18.172  0.00  0.00    +0.000 OA
ATOM      2  C   UNL     1       1.974   7.893  19.217  0.00  0.00    +0.000 C 
ATOM      3  N   UNL     1       1.921   6.547  19.549  0.00  0.00    +0.000 N 
ATOM      4  H   UNL     1       1.319   6.270  20.316  0.00  0.00    +0.000 HD
ENDROOT
BRANCH   3   5
ATOM      5  C   UNL     1       2.509   5.512  18.779  0.00  0.00    +0.000 A 
ATOM      6  C   UNL     1       1.751   4.529  18.132  0.00  0.00    +0.000 A 
ATOM      7  C   UNL     1       2.357   3.512  17.396  0.00  0.00    +0.000 A 
ATOM      8  C   UNL     1       3.740   3.474  17.271  0.00  0.00    +0.000 A 
ATOM      9  C   UNL     1       4.518   4.467  17.879  0.00  0.00    +0.000 A 
ATOM     10  C   UNL     1       3.901   5.483  18.638  0.00  0.00    +0.000 A 
BRANCH   9  11
ATOM     11  N   UNL     1       5.924   4.459  17.721  0.00  0.00    +0.000 N 
ATOM     12  C   UNL     1       6.670   4.392  16.571  0.00  0.00    +0.000 A 
ATOM     13  N   UNL     1       7.947   4.429  16.876  0.00  0.00    +0.000 NA
ATOM     14  N   UNL     1       7.997   4.523  18.241  0.00  0.00    +0.000 NA
ATOM     15  N   UNL     1       6.780   4.547  18.765  0.00  0.00    +0.000 NA
ENDBRANCH   9  11
ENDBRANCH   3   5
BRANCH   2  16
ATOM     16  C   UNL     1       1.406   8.874  20.174  0.00  0.00    +0.000 A 
ATOM     17  C   UNL     1       0.849   8.340  21.352  0.00  0.00    +0.000 A 
ATOM     18  C   UNL     1       0.129   9.145  22.229  0.00  0.00    +0.000 A 
ATOM     19  C   UNL     1      -0.020  10.502  21.954  0.00  0.00    +0.000 A 
ATOM     20  C   UNL     1       0.574  11.052  20.809  0.00  0.00    +0.000 A 
ATOM     21  C   UNL     1       1.293  10.244  19.911  0.00  0.00    +0.000 A 
BRANCH  20  22
ATOM     22  S   UNL     1       0.592  12.833  20.628  0.00  0.00    +0.000 S 
ATOM     23  O   UNL     1       0.505  13.393  21.959  0.00  0.00    +0.000 OA
ATOM     24  O   UNL     1       1.711  13.142  19.762  0.00  0.00    +0.000 OA
BRANCH  22  25
ATOM     25  N   UNL     1      -0.823  13.219  19.807  0.00  0.00    +0.000 NA
ATOM     26  C   UNL     1      -2.045  13.561  20.547  0.00  0.00    +0.000 C 
ATOM     27  C   UNL     1      -2.976  12.401  20.252  0.00  0.00    +0.000 C 
ATOM     28  C   UNL     1      -2.633  12.004  18.825  0.00  0.00    +0.000 C 
ATOM     29  C   UNL     1      -1.196  12.466  18.598  0.00  0.00    +0.000 C 
ENDBRANCH  22  25
ENDBRANCH  20  22
ENDBRANCH   2  16
TORSDOF 5
ENDMDL
MODEL 8
REMARK VINA RESULT:      -8.3      2.293      2.824
REMARK  Name = 
REMARK  5 active torsions:
REMARK  status: ('A' for Active; 'I' for Inactive)
REMARK    1  A    between atoms: C_2  and  C_15
REMARK    2  A    between atoms: N_3  and  C_4
REMARK    3  A    between atoms: C_8  and  N_9
REMARK    4  A    between atoms: C_19  and  S_20
REMARK    5  A    between atoms: S_20  and  N_23
REMARK                            x       y       z     vdW  Elec       q    Type
REMARK                         _______ _______ _______ _____ _____    ______ ____
ROOT
ATOM      1  O   UNL     1       1.633   5.710  20.560  0.00  0.00    +0.000 OA
ATOM      2  C   UNL     1       2.088   6.281  19.573  0.00  0.00    +0.000 C 
ATOM      3  N   UNL     1       1.970   7.636  19.302  0.00  0.00    +0.000 N 
ATOM      4  H   UNL     1       2.170   7.952  18.360  0.00  0.00    +0.000 HD
ENDROOT
BRANCH   3   5
ATOM      5  C   UNL     1       1.416   8.583  20.200  0.00  0.00    +0.000 A 
ATOM      6  C   UNL     1       1.392   8.383  21.586  0.00  0.00    +0.000 A 
ATOM      7  C   UNL     1       0.824   9.323  22.445  0.00  0.00    +0.000 A 
ATOM      8  C   UNL     1       0.291  10.499  21.934  0.00  0.00    +0.000 A 
ATOM      9  C   UNL     1       0.336  10.738  20.554  0.00  0.00    +0.000 A 
ATOM     10  C   UNL     1       0.894   9.775  19.688  0.00  0.00    +0.000 A 
BRANCH   9  11
ATOM     11  N   UNL     1      -0.167  11.952  20.030  0.00  0.00    +0.000 N 
ATOM     12  C   UNL     1      -1.054  12.840  20.587  0.00  0.00    +0.000 A 
ATOM     13  N   UNL     1      -1.236  13.848  19.767  0.00  0.00    +0.000 NA
ATOM     14  N   UNL     1      -0.446  13.586  18.679  0.00  0.00    +0.000 NA
ATOM     15  N   UNL     1       0.210  12.444  18.828  0.00  0.00    +0.000 NA
ENDBRANCH   9  11
ENDBRANCH   3   5
BRANCH   2  16
ATOM     16  C   UNL     1       2.786   5.426  18.582  0.00  0.00    +0.000 A 
ATOM     17  C   UNL     1       2.454   4.059  18.598  0.00  0.00    +0.000 A 
ATOM     18  C   UNL     1       3.175   3.140  17.842  0.00  0.00    +0.000 A 
ATOM     19  C   UNL     1       4.222   3.581  17.038  0.00  0.00    +0.000 A 
ATOM     20  C   UNL     1       4.528   4.948  16.976  0.00  0.00    +0.000 A 
ATOM     21  C   UNL     1       3.812   5.882  17.745  0.00  0.00    +0.000 A 
BRANCH  20  22
ATOM     22  S   UNL     1       5.692   5.509  15.737  0.00  0.00    +0.000 S 
ATOM     23  O   UNL     1       5.853   4.426  14.789  0.00  0.00    +0.000 OA
ATOM     24  O   UNL     1       5.232   6.812  15.306  0.00  0.00    +0.000 OA
BRANCH  22  25
ATOM     25  N   UNL     1       7.152   5.713  16.545  0.00  0.00    +0.000 NA
ATOM     26  C   UNL     1       7.656   4.671  17.450  0.00  0.00    +0.000 C 
ATOM     27  C   UNL     1       7.568   5.316  18.820  0.00  0.00    +0.000 C 
ATOM     28  C   UNL     1       7.872   6.782  18.559  0.00  0.00    +0.000 C 
ATOM     29  C   UNL     1       7.502   7.032  17.100  0.00  0.00    +0.000 C 
ENDBRANCH  22  25
ENDBRANCH  20  22
ENDBRANCH   2  16
TORSDOF 5
ENDMDL
MODEL 9
REMARK VINA RESULT:      -8.3      3.359      9.178
REMARK  Name = 
REMARK  5 active torsions:
REMARK  status: ('A' for Active; 'I' for Inactive)
REMARK    1  A    between atoms: C_2  and  C_15
REMARK    2  A    between atoms: N_3  and  C_4
REMARK    3  A    between atoms: C_8  and  N_9
REMARK    4  A    between atoms: C_19  and  S_20
REMARK    5  A    between atoms: S_20  and  N_23
REMARK                            x       y       z     vdW  Elec       q    Type
REMARK                         _______ _______ _______ _____ _____    ______ ____
ROOT
ATOM      1  O   UNL     1       1.749   8.350  17.961  0.00  0.00    +0.000 OA
ATOM      2  C   UNL     1       1.801   7.933  19.115  0.00  0.00    +0.000 C 
ATOM      3  N   UNL     1       2.215   6.664  19.494  0.00  0.00    +0.000 N 
ATOM      4  H   UNL     1       1.994   6.352  20.432  0.00  0.00    +0.000 HD
ENDROOT
BRANCH   3   5
ATOM      5  C   UNL     1       2.769   5.708  18.605  0.00  0.00    +0.000 A 
ATOM      6  C   UNL     1       2.115   4.515  18.277  0.00  0.00    +0.000 A 
ATOM      7  C   UNL     1       2.692   3.584  17.415  0.00  0.00    +0.000 A 
ATOM      8  C   UNL     1       3.929   3.842  16.840  0.00  0.00    +0.000 A 
ATOM      9  C   UNL     1       4.588   5.046  17.125  0.00  0.00    +0.000 A 
ATOM     10  C   UNL     1       4.009   5.975  18.013  0.00  0.00    +0.000 A 
BRANCH   9  11
ATOM     11  N   UNL     1       5.829   5.334  16.511  0.00  0.00    +0.000 N 
ATOM     12  C   UNL     1       6.449   4.702  15.462  0.00  0.00    +0.000 A 
ATOM     13  N   UNL     1       7.585   5.307  15.198  0.00  0.00    +0.000 NA
ATOM     14  N   UNL     1       7.672   6.336  16.097  0.00  0.00    +0.000 NA
ATOM     15  N   UNL     1       6.614   6.367  16.894  0.00  0.00    +0.000 NA
ENDBRANCH   9  11
ENDBRANCH   3   5
BRANCH   2  16
ATOM     16  C   UNL     1       1.341   8.865  20.174  0.00  0.00    +0.000 A 
ATOM     17  C   UNL     1       0.968   8.278  21.398  0.00  0.00    +0.000 A 
ATOM     18  C   UNL     1       0.353   9.032  22.392  0.00  0.00    +0.000 A 
ATOM     19  C   UNL     1       0.125  10.389  22.186  0.00  0.00    +0.000 A 
ATOM     20  C   UNL     1       0.538  10.993  20.990  0.00  0.00    +0.000 A 
ATOM     21  C   UNL     1       1.151  10.237  19.975  0.00  0.00    +0.000 A 
BRANCH  20  22
ATOM     22  S   UNL     1       0.476  12.778  20.867  0.00  0.00    +0.000 S 
ATOM     23  O   UNL     1       0.095  13.277  22.171  0.00  0.00    +0.000 OA
ATOM     24  O   UNL     1       1.720  13.187  20.248  0.00  0.00    +0.000 OA
BRANCH  22  25
ATOM     25  N   UNL     1      -0.774  13.116  19.795  0.00  0.00    +0.000 NA
ATOM     26  C   UNL     1      -2.146  12.682  20.090  0.00  0.00    +0.000 C 
ATOM     27  C   UNL     1      -2.419  11.625  19.037  0.00  0.00    +0.000 C 
ATOM     28  C   UNL     1      -1.663  12.116  17.813  0.00  0.00    +0.000 C 
ATOM     29  C   UNL     1      -0.543  13.007  18.344  0.00  0.00    +0.000 C 
ENDBRANCH  22  25
ENDBRANCH  20  22
ENDBRANCH   2  16
TORSDOF 5
ENDMDL
