MODEL 1
REMARK VINA RESULT:      -8.5      0.000      0.000
REMARK  Name = 
REMARK  4 active torsions:
REMARK  status: ('A' for Active; 'I' for Inactive)
REMARK    1  A    between atoms: C_2  and  C_3
REMARK    2  A    between atoms: C_3  and  C_4
REMARK    3  A    between atoms: C_4  and  C_5
REMARK    4  A    between atoms: C_5  and  C_6
REMARK                            x       y       z     vdW  Elec       q    Type
REMARK                         _______ _______ _______ _____ _____    ______ ____
ROOT
ATOM      1  C   UNL     1       1.965   3.090  19.930  0.00  0.00    +0.000 C 
ENDROOT
BRANCH   1   3
ATOM      2  O   UNL     1       0.246   2.336  18.421  0.00  0.00    +0.000 OA
ATOM      3  C   UNL     1       1.391   2.777  18.556  0.00  0.00    +0.000 C 
ATOM      4  N   UNL     1       2.153   2.947  17.435  0.00  0.00    +0.000 N 
ATOM      5  C   UNL     1       3.442   3.481  17.338  0.00  0.00    +0.000 A 
ATOM      6  C   UNL     1       4.138   3.309  16.151  0.00  0.00    +0.000 A 
ATOM      7  C   UNL     1       5.441   3.798  16.070  0.00  0.00    +0.000 A 
ATOM      8  C   UNL     1       6.012   4.454  17.169  0.00  0.00    +0.000 A 
ATOM      9  C   UNL     1       7.319   4.968  17.156  0.00  0.00    +0.000 A 
ATOM     10  C   UNL     1       7.838   5.602  18.286  0.00  0.00    +0.000 A 
ATOM     11  C   UNL     1       7.061   5.719  19.433  0.00  0.00    +0.000 A 
ATOM     12  C   UNL     1       5.762   5.209  19.440  0.00  0.00    +0.000 A 
ATOM     13  C   UNL     1       5.223   4.588  18.325  0.00  0.00    +0.000 A 
ATOM     14  N   UNL     1       3.970   4.125  18.389  0.00  0.00    +0.000 NA
ATOM     15  H   UNL     1       1.711   2.612  16.591  0.00  0.00    +0.000 HD
ENDBRANCH   1   3
BRANCH   1  16
ATOM     16  C   UNL     1       1.303   4.291  20.594  0.00  0.00    +0.000 C 
BRANCH  16  17
ATOM     17  C   UNL     1       2.352   5.339  20.971  0.00  0.00    +0.000 C 
BRANCH  17  18
ATOM     18  C   UNL     1       1.997   6.661  20.357  0.00  0.00    +0.000 A 
ATOM     19  N   UNL     1       1.273   7.510  21.010  0.00  0.00    +0.000 NA
ATOM     20  C   UNL     1       0.997   8.739  20.391  0.00  0.00    +0.000 A 
ATOM     21  C   UNL     1       0.226   9.676  21.078  0.00  0.00    +0.000 A 
ATOM     22  C   UNL     1      -0.075  10.909  20.495  0.00  0.00    +0.000 A 
ATOM     23  C   UNL     1       0.396  11.214  19.215  0.00  0.00    +0.000 A 
ATOM     24  C   UNL     1       1.169  10.289  18.519  0.00  0.00    +0.000 A 
ATOM     25  C   UNL     1       1.465   9.059  19.114  0.00  0.00    +0.000 A 
ATOM     26  C   UNL     1       2.284   8.052  18.417  0.00  0.00    +0.000 A 
ATOM     27  O   UNL     1       2.726   8.236  17.290  0.00  0.00    +0.000 OA
ATOM     28  N   UNL     1       2.514   6.896  19.114  0.00  0.00    +0.000 N 
ATOM     29  H   UNL     1       3.078   6.200  18.647  0.00  0.00    +0.000 HD
ENDBRANCH  17  18
ENDBRANCH  16  17
ENDBRANCH   1  16
TORSDOF 4
ENDMDL
MODEL 2
REMARK VINA RESULT:      -8.5      4.825      6.942
REMARK  Name = 
REMARK  4 active torsions:
REMARK  status: ('A' for Active; 'I' for Inactive)
REMARK    1  A    between atoms: C_2  and  C_3
REMARK    2  A    between atoms: C_3  and  C_4
REMARK    3  A    between atoms: C_4  and  C_5
REMARK    4  A    between atoms: C_5  and  C_6
REMARK                            x       y       z     vdW  Elec       q    Type
REMARK                         _______ _______ _______ _____ _____    ______ ____
ROOT
ATOM      1  C   UNL     1       6.490   6.596  17.620  0.00  0.00    +0.000 C 
ENDROOT
BRANCH   1   3
ATOM      2  O   UNL     1       7.678   5.633  15.760  0.00  0.00    +0.000 OA
ATOM      3  C   UNL     1       6.699   5.577  16.510  0.00  0.00    +0.000 C 
ATOM      4  N   UNL     1       5.778   4.590  16.298  0.00  0.00    +0.000 N 
ATOM      5  C   UNL     1       4.634   4.299  17.047  0.00  0.00    +0.000 A 
ATOM      6  C   UNL     1       3.694   3.437  16.503  0.00  0.00    +0.000 A 
ATOM      7  C   UNL     1       2.529   3.184  17.227  0.00  0.00    +0.000 A 
ATOM      8  C   UNL     1       2.339   3.787  18.478  0.00  0.00    +0.000 A 
ATOM      9  C   UNL     1       1.190   3.577  19.259  0.00  0.00    +0.000 A 
ATOM     10  C   UNL     1       1.051   4.215  20.493  0.00  0.00    +0.000 A 
ATOM     11  C   UNL     1       2.049   5.068  20.948  0.00  0.00    +0.000 A 
ATOM     12  C   UNL     1       3.190   5.270  20.171  0.00  0.00    +0.000 A 
ATOM     13  C   UNL     1       3.355   4.637  18.949  0.00  0.00    +0.000 A 
ATOM     14  N   UNL     1       4.472   4.866  18.251  0.00  0.00    +0.000 NA
ATOM     15  H   UNL     1       5.963   4.036  15.474  0.00  0.00    +0.000 HD
ENDBRANCH   1   3
BRANCH   1  16
ATOM     16  C   UNL     1       7.220   7.910  17.370  0.00  0.00    +0.000 C 
BRANCH  16  17
ATOM     17  C   UNL     1       8.310   8.125  18.423  0.00  0.00    +0.000 C 
BRANCH  17  18
ATOM     18  C   UNL     1       8.643   9.585  18.522  0.00  0.00    +0.000 A 
ATOM     19  N   UNL     1       9.528   9.997  19.369  0.00  0.00    +0.000 NA
ATOM     20  C   UNL     1       9.812  11.371  19.395  0.00  0.00    +0.000 A 
ATOM     21  C   UNL     1      10.769  11.839  20.293  0.00  0.00    +0.000 A 
ATOM     22  C   UNL     1      11.078  13.200  20.353  0.00  0.00    +0.000 A 
ATOM     23  C   UNL     1      10.428  14.106  19.511  0.00  0.00    +0.000 A 
ATOM     24  C   UNL     1       9.471  13.651  18.608  0.00  0.00    +0.000 A 
ATOM     25  C   UNL     1       9.173  12.287  18.556  0.00  0.00    +0.000 A 
ATOM     26  C   UNL     1       8.172  11.761  17.611  0.00  0.00    +0.000 A 
ATOM     27  O   UNL     1       7.550  12.487  16.846  0.00  0.00    +0.000 OA
ATOM     28  N   UNL     1       7.983  10.405  17.649  0.00  0.00    +0.000 N 
ATOM     29  H   UNL     1       7.301  10.032  17.002  0.00  0.00    +0.000 HD
ENDBRANCH  17  18
ENDBRANCH  16  17
ENDBRANCH   1  16
TORSDOF 4
ENDMDL
MODEL 3
REMARK VINA RESULT:      -8.2      2.688      8.186
REMARK  Name = 
REMARK  4 active torsions:
REMARK  status: ('A' for Active; 'I' for Inactive)
REMARK    1  A    between atoms: C_2  and  C_3
REMARK    2  A    between atoms: C_3  and  C_4
REMARK    3  A    between atoms: C_4  and  C_5
REMARK    4  A    between atoms: C_5  and  C_6
REMARK                            x       y       z     vdW  Elec       q    Type
REMARK                         _______ _______ _______ _____ _____    ______ ____
ROOT
ATOM      1  C   UNL     1       0.849   8.516  20.771  0.00  0.00    +0.000 C 
ENDROOT
BRANCH   1   3
ATOM      2  O   UNL     1       1.697   9.625  22.734  0.00  0.00    +0.000 OA
ATOM      3  C   UNL     1       0.924   9.660  21.772  0.00  0.00    +0.000 C 
ATOM      4  N   UNL     1       0.103  10.744  21.643  0.00  0.00    +0.000 N 
ATOM      5  C   UNL     1      -0.802  11.026  20.615  0.00  0.00    +0.000 A 
ATOM      6  C   UNL     1      -1.731  12.036  20.815  0.00  0.00    +0.000 A 
ATOM      7  C   UNL     1      -2.666  12.285  19.811  0.00  0.00    +0.000 A 
ATOM      8  C   UNL     1      -2.642  11.530  18.630  0.00  0.00    +0.000 A 
ATOM      9  C   UNL     1      -3.555  11.728  17.581  0.00  0.00    +0.000 A 
ATOM     10  C   UNL     1      -3.490  10.936  16.433  0.00  0.00    +0.000 A 
ATOM     11  C   UNL     1      -2.523   9.943  16.330  0.00  0.00    +0.000 A 
ATOM     12  C   UNL     1      -1.617   9.753  17.374  0.00  0.00    +0.000 A 
ATOM     13  C   UNL     1      -1.655  10.536  18.517  0.00  0.00    +0.000 A 
ATOM     14  N   UNL     1      -0.757  10.311  19.482  0.00  0.00    +0.000 NA
ATOM     15  H   UNL     1       0.163  11.391  22.416  0.00  0.00    +0.000 HD
ENDBRANCH   1   3
BRANCH   1  16
ATOM     16  C   UNL     1       1.985   7.512  20.925  0.00  0.00    +0.000 C 
BRANCH  16  17
ATOM     17  C   UNL     1       1.517   6.110  20.531  0.00  0.00    +0.000 C 
BRANCH  17  18
ATOM     18  C   UNL     1       2.371   5.581  19.416  0.00  0.00    +0.000 A 
ATOM     19  N   UNL     1       3.027   6.394  18.655  0.00  0.00    +0.000 NA
ATOM     20  C   UNL     1       3.828   5.836  17.646  0.00  0.00    +0.000 A 
ATOM     21  C   UNL     1       4.553   6.691  16.818  0.00  0.00    +0.000 A 
ATOM     22  C   UNL     1       5.358   6.176  15.799  0.00  0.00    +0.000 A 
ATOM     23  C   UNL     1       5.442   4.795  15.602  0.00  0.00    +0.000 A 
ATOM     24  C   UNL     1       4.725   3.930  16.423  0.00  0.00    +0.000 A 
ATOM     25  C   UNL     1       3.925   4.458  17.440  0.00  0.00    +0.000 A 
ATOM     26  C   UNL     1       3.153   3.579  18.337  0.00  0.00    +0.000 A 
ATOM     27  O   UNL     1       3.164   2.360  18.226  0.00  0.00    +0.000 OA
ATOM     28  N   UNL     1       2.422   4.220  19.302  0.00  0.00    +0.000 N 
ATOM     29  H   UNL     1       1.892   3.627  19.925  0.00  0.00    +0.000 HD
ENDBRANCH  17  18
ENDBRANCH  16  17
ENDBRANCH   1  16
TORSDOF 4
ENDMDL
MODEL 4
REMARK VINA RESULT:      -8.1      2.322      3.032
REMARK  Name = 
REMARK  4 active torsions:
REMARK  status: ('A' for Active; 'I' for Inactive)
REMARK    1  A    between atoms: C_2  and  C_3
REMARK    2  A    between atoms: C_3  and  C_4
REMARK    3  A    between atoms: C_4  and  C_5
REMARK    4  A    between atoms: C_5  and  C_6
REMARK                            x       y       z     vdW  Elec       q    Type
REMARK                         _______ _______ _______ _____ _____    ______ ____
ROOT
ATOM      1  C   UNL     1       2.375   4.891  21.081  0.00  0.00    +0.000 C 
ENDROOT
BRANCH   1   3
ATOM      2  O   UNL     1       1.159   2.930  21.771  0.00  0.00    +0.000 OA
ATOM      3  C   UNL     1       1.876   3.463  20.918  0.00  0.00    +0.000 C 
ATOM      4  N   UNL     1       2.244   2.723  19.830  0.00  0.00    +0.000 N 
ATOM      5  C   UNL     1       2.993   3.129  18.722  0.00  0.00    +0.000 A 
ATOM      6  C   UNL     1       3.485   2.154  17.868  0.00  0.00    +0.000 A 
ATOM      7  C   UNL     1       4.274   2.553  16.790  0.00  0.00    +0.000 A 
ATOM      8  C   UNL     1       4.542   3.914  16.585  0.00  0.00    +0.000 A 
ATOM      9  C   UNL     1       5.330   4.385  15.522  0.00  0.00    +0.000 A 
ATOM     10  C   UNL     1       5.571   5.752  15.376  0.00  0.00    +0.000 A 
ATOM     11  C   UNL     1       5.037   6.651  16.291  0.00  0.00    +0.000 A 
ATOM     12  C   UNL     1       4.253   6.179  17.344  0.00  0.00    +0.000 A 
ATOM     13  C   UNL     1       3.989   4.828  17.500  0.00  0.00    +0.000 A 
ATOM     14  N   UNL     1       3.226   4.435  18.525  0.00  0.00    +0.000 NA
ATOM     15  H   UNL     1       1.942   1.761  19.876  0.00  0.00    +0.000 HD
ENDBRANCH   1   3
BRANCH   1  16
ATOM     16  C   UNL     1       1.330   5.936  20.712  0.00  0.00    +0.000 C 
BRANCH  16  17
ATOM     17  C   UNL     1       2.005   7.224  20.237  0.00  0.00    +0.000 C 
BRANCH  17  18
ATOM     18  C   UNL     1       1.252   8.415  20.751  0.00  0.00    +0.000 A 
ATOM     19  N   UNL     1       0.712   9.251  19.927  0.00  0.00    +0.000 NA
ATOM     20  C   UNL     1      -0.001  10.331  20.470  0.00  0.00    +0.000 A 
ATOM     21  C   UNL     1      -0.600  11.242  19.603  0.00  0.00    +0.000 A 
ATOM     22  C   UNL     1      -1.315  12.332  20.104  0.00  0.00    +0.000 A 
ATOM     23  C   UNL     1      -1.435  12.520  21.484  0.00  0.00    +0.000 A 
ATOM     24  C   UNL     1      -0.842  11.616  22.362  0.00  0.00    +0.000 A 
ATOM     25  C   UNL     1      -0.132  10.528  21.848  0.00  0.00    +0.000 A 
ATOM     26  C   UNL     1       0.506   9.543  22.739  0.00  0.00    +0.000 A 
ATOM     27  O   UNL     1       0.457   9.639  23.959  0.00  0.00    +0.000 OA
ATOM     28  N   UNL     1       1.158   8.516  22.111  0.00  0.00    +0.000 N 
ATOM     29  H   UNL     1       1.595   7.832  22.713  0.00  0.00    +0.000 HD
ENDBRANCH  17  18
ENDBRANCH  16  17
ENDBRANCH   1  16
TORSDOF 4
ENDMDL
MODEL 5
REMARK VINA RESULT:      -8.1      2.406      4.257
REMARK  Name = 
REMARK  4 active torsions:
REMARK  status: ('A' for Active; 'I' for Inactive)
REMARK    1  A    between atoms: C_2  and  C_3
REMARK    2  A    between atoms: C_3  and  C_4
REMARK    3  A    between atoms: C_4  and  C_5
REMARK    4  A    between atoms: C_5  and  C_6
REMARK                            x       y       z     vdW  Elec       q    Type
REMARK                         _______ _______ _______ _____ _____    ______ ____
ROOT
ATOM      1  C   UNL     1       4.280   7.253  17.806  0.00  0.00    +0.000 C 
ENDROOT
BRANCH   1   3
ATOM      2  O   UNL     1       5.360   6.990  15.669  0.00  0.00    +0.000 OA
ATOM      3  C   UNL     1       4.723   6.461  16.585  0.00  0.00    +0.000 C 
ATOM      4  N   UNL     1       4.389   5.142  16.460  0.00  0.00    +0.000 N 
ATOM      5  C   UNL     1       3.728   4.326  17.383  0.00  0.00    +0.000 A 
ATOM      6  C   UNL     1       3.245   3.100  16.952  0.00  0.00    +0.000 A 
ATOM      7  C   UNL     1       2.543   2.307  17.858  0.00  0.00    +0.000 A 
ATOM      8  C   UNL     1       2.352   2.751  19.173  0.00  0.00    +0.000 A 
ATOM      9  C   UNL     1       1.653   2.004  20.136  0.00  0.00    +0.000 A 
ATOM     10  C   UNL     1       1.484   2.503  21.429  0.00  0.00    +0.000 A 
ATOM     11  C   UNL     1       2.002   3.749  21.763  0.00  0.00    +0.000 A 
ATOM     12  C   UNL     1       2.698   4.486  20.804  0.00  0.00    +0.000 A 
ATOM     13  C   UNL     1       2.889   4.003  19.519  0.00  0.00    +0.000 A 
ATOM     14  N   UNL     1       3.569   4.752  18.645  0.00  0.00    +0.000 NA
ATOM     15  H   UNL     1       4.643   4.744  15.567  0.00  0.00    +0.000 HD
ENDBRANCH   1   3
BRANCH   1  16
ATOM     16  C   UNL     1       2.770   7.431  17.888  0.00  0.00    +0.000 C 
BRANCH  16  17
ATOM     17  C   UNL     1       2.377   8.861  17.512  0.00  0.00    +0.000 C 
BRANCH  17  18
ATOM     18  C   UNL     1       1.553   9.470  18.608  0.00  0.00    +0.000 A 
ATOM     19  N   UNL     1       1.435   8.868  19.746  0.00  0.00    +0.000 NA
ATOM     20  C   UNL     1       0.672   9.501  20.739  0.00  0.00    +0.000 A 
ATOM     21  C   UNL     1       0.537   8.878  21.978  0.00  0.00    +0.000 A 
ATOM     22  C   UNL     1      -0.218   9.473  22.992  0.00  0.00    +0.000 A 
ATOM     23  C   UNL     1      -0.845  10.702  22.771  0.00  0.00    +0.000 A 
ATOM     24  C   UNL     1      -0.716  11.337  21.539  0.00  0.00    +0.000 A 
ATOM     25  C   UNL     1       0.044  10.732  20.533  0.00  0.00    +0.000 A 
ATOM     26  C   UNL     1       0.212  11.371  19.216  0.00  0.00    +0.000 A 
ATOM     27  O   UNL     1      -0.311  12.442  18.938  0.00  0.00    +0.000 OA
ATOM     28  N   UNL     1       0.992  10.683  18.325  0.00  0.00    +0.000 N 
ATOM     29  H   UNL     1       1.118  11.114  17.419  0.00  0.00    +0.000 HD
ENDBRANCH  17  18
ENDBRANCH  16  17
ENDBRANCH   1  16
TORSDOF 4
ENDMDL
MODEL 6
REMARK VINA RESULT:      -8.1      1.970      2.622
REMARK  Name = 
REMARK  4 active torsions:
REMARK  status: ('A' for Active; 'I' for Inactive)
REMARK    1  A    between atoms: C_2  and  C_3
REMARK    2  A    between atoms: C_3  and  C_4
REMARK    3  A    between atoms: C_4  and  C_5
REMARK    4  A    between atoms: C_5  and  C_6
REMARK                            x       y       z     vdW  Elec       q    Type
REMARK                         _______ _______ _______ _____ _____    ______ ____
ROOT
ATOM      1  C   UNL     1       2.472   4.806  21.240  0.00  0.00    +0.000 C 
ENDROOT
BRANCH   1   3
ATOM      2  O   UNL     1       1.261   2.853  21.961  0.00  0.00    +0.000 OA
ATOM      3  C   UNL     1       1.958   3.382  21.089  0.00  0.00    +0.000 C 
ATOM      4  N   UNL     1       2.289   2.641  19.991  0.00  0.00    +0.000 N 
ATOM      5  C   UNL     1       3.011   3.043  18.862  0.00  0.00    +0.000 A 
ATOM      6  C   UNL     1       3.472   2.066  17.993  0.00  0.00    +0.000 A 
ATOM      7  C   UNL     1       4.233   2.461  16.894  0.00  0.00    +0.000 A 
ATOM      8  C   UNL     1       4.505   3.820  16.684  0.00  0.00    +0.000 A 
ATOM      9  C   UNL     1       5.266   4.287  15.599  0.00  0.00    +0.000 A 
ATOM     10  C   UNL     1       5.513   5.652  15.449  0.00  0.00    +0.000 A 
ATOM     11  C   UNL     1       5.012   6.554  16.379  0.00  0.00    +0.000 A 
ATOM     12  C   UNL     1       4.254   6.086  17.453  0.00  0.00    +0.000 A 
ATOM     13  C   UNL     1       3.985   4.736  17.615  0.00  0.00    +0.000 A 
ATOM     14  N   UNL     1       3.247   4.348  18.661  0.00  0.00    +0.000 NA
ATOM     15  H   UNL     1       1.982   1.681  20.043  0.00  0.00    +0.000 HD
ENDBRANCH   1   3
BRANCH   1  16
ATOM     16  C   UNL     1       1.442   5.858  20.850  0.00  0.00    +0.000 C 
BRANCH  16  17
ATOM     17  C   UNL     1       2.130   7.080  20.238  0.00  0.00    +0.000 C 
BRANCH  17  18
ATOM     18  C   UNL     1       1.299   8.307  20.475  0.00  0.00    +0.000 A 
ATOM     19  N   UNL     1       0.727   8.496  21.619  0.00  0.00    +0.000 NA
ATOM     20  C   UNL     1      -0.016   9.675  21.786  0.00  0.00    +0.000 A 
ATOM     21  C   UNL     1      -0.635   9.907  23.012  0.00  0.00    +0.000 A 
ATOM     22  C   UNL     1      -1.387  11.067  23.217  0.00  0.00    +0.000 A 
ATOM     23  C   UNL     1      -1.526  12.005  22.191  0.00  0.00    +0.000 A 
ATOM     24  C   UNL     1      -0.910  11.786  20.961  0.00  0.00    +0.000 A 
ATOM     25  C   UNL     1      -0.159  10.624  20.769  0.00  0.00    +0.000 A 
ATOM     26  C   UNL     1       0.514  10.354  19.487  0.00  0.00    +0.000 A 
ATOM     27  O   UNL     1       0.436  11.119  18.534  0.00  0.00    +0.000 OA
ATOM     28  N   UNL     1       1.231   9.188  19.433  0.00  0.00    +0.000 N 
ATOM     29  H   UNL     1       1.701   8.995  18.559  0.00  0.00    +0.000 HD
ENDBRANCH  17  18
ENDBRANCH  16  17
ENDBRANCH   1  16
TORSDOF 4
ENDMDL
MODEL 7
REMARK VINA RESULT:      -8.1      4.947      6.803
REMARK  Name = 
REMARK  4 active torsions:
REMARK  status: ('A' for Active; 'I' for Inactive)
REMARK    1  A    between atoms: C_2  and  C_3
REMARK    2  A    between atoms: C_3  and  C_4
REMARK    3  A    between atoms: C_4  and  C_5
REMARK    4  A    between atoms: C_5  and  C_6
REMARK                            x       y       z     vdW  Elec       q    Type
REMARK                         _______ _______ _______ _____ _____    ______ ____
ROOT
ATOM      1  C   UNL     1       6.397   6.673  17.655  0.00  0.00    +0.000 C 
ENDROOT
BRANCH   1   3
ATOM      2  O   UNL     1       7.668   5.695  15.858  0.00  0.00    +0.000 OA
ATOM      3  C   UNL     1       6.672   5.627  16.584  0.00  0.00    +0.000 C 
ATOM      4  N   UNL     1       5.793   4.602  16.380  0.00  0.00    +0.000 N 
ATOM      5  C   UNL     1       4.640   4.292  17.108  0.00  0.00    +0.000 A 
ATOM      6  C   UNL     1       3.746   3.380  16.569  0.00  0.00    +0.000 A 
ATOM      7  C   UNL     1       2.573   3.108  17.270  0.00  0.00    +0.000 A 
ATOM      8  C   UNL     1       2.327   3.743  18.496  0.00  0.00    +0.000 A 
ATOM      9  C   UNL     1       1.166   3.516  19.253  0.00  0.00    +0.000 A 
ATOM     10  C   UNL     1       0.970   4.187  20.461  0.00  0.00    +0.000 A 
ATOM     11  C   UNL     1       1.925   5.089  20.914  0.00  0.00    +0.000 A 
ATOM     12  C   UNL     1       3.079   5.309  20.161  0.00  0.00    +0.000 A 
ATOM     13  C   UNL     1       3.299   4.644  18.965  0.00  0.00    +0.000 A 
ATOM     14  N   UNL     1       4.426   4.891  18.289  0.00  0.00    +0.000 NA
ATOM     15  H   UNL     1       6.020   4.029  15.580  0.00  0.00    +0.000 HD
ENDBRANCH   1   3
BRANCH   1  16
ATOM     16  C   UNL     1       7.071   8.010  17.371  0.00  0.00    +0.000 C 
BRANCH  16  17
ATOM     17  C   UNL     1       8.328   8.169  18.229  0.00  0.00    +0.000 C 
BRANCH  17  18
ATOM     18  C   UNL     1       8.613   9.625  18.452  0.00  0.00    +0.000 A 
ATOM     19  N   UNL     1       8.073  10.520  17.692  0.00  0.00    +0.000 NA
ATOM     20  C   UNL     1       8.360  11.865  17.967  0.00  0.00    +0.000 A 
ATOM     21  C   UNL     1       7.782  12.850  17.168  0.00  0.00    +0.000 A 
ATOM     22  C   UNL     1       8.046  14.201  17.407  0.00  0.00    +0.000 A 
ATOM     23  C   UNL     1       8.894  14.577  18.452  0.00  0.00    +0.000 A 
ATOM     24  C   UNL     1       9.476  13.603  19.260  0.00  0.00    +0.000 A 
ATOM     25  C   UNL     1       9.202  12.255  19.012  0.00  0.00    +0.000 A 
ATOM     26  C   UNL     1       9.791  11.192  19.845  0.00  0.00    +0.000 A 
ATOM     27  O   UNL     1      10.551  11.435  20.773  0.00  0.00    +0.000 OA
ATOM     28  N   UNL     1       9.432   9.914  19.508  0.00  0.00    +0.000 N 
ATOM     29  H   UNL     1       9.827   9.177  20.075  0.00  0.00    +0.000 HD
ENDBRANCH  17  18
ENDBRANCH  16  17
ENDBRANCH   1  16
TORSDOF 4
ENDMDL
MODEL 8
REMARK VINA RESULT:      -8.1      2.251      3.906
REMARK  Name = 
REMARK  4 active torsions:
REMARK  status: ('A' for Active; 'I' for Inactive)
REMARK    1  A    between atoms: C_2  and  C_3
REMARK    2  A    between atoms: C_3  and  C_4
REMARK    3  A    between atoms: C_4  and  C_5
REMARK    4  A    between atoms: C_5  and  C_6
REMARK                            x       y       z     vdW  Elec       q    Type
REMARK                         _______ _______ _______ _____ _____    ______ ____
ROOT
ATOM      1  C   UNL     1       2.106   7.135  18.303  0.00  0.00    +0.000 C 
ENDROOT
BRANCH   1   3
ATOM      2  O   UNL     1       1.648   6.736  20.634  0.00  0.00    +0.000 OA
ATOM      3  C   UNL     1       2.409   6.558  19.678  0.00  0.00    +0.000 C 
ATOM      4  N   UNL     1       3.559   5.853  19.892  0.00  0.00    +0.000 N 
ATOM      5  C   UNL     1       4.532   5.480  18.959  0.00  0.00    +0.000 A 
ATOM      6  C   UNL     1       5.749   5.011  19.428  0.00  0.00    +0.000 A 
ATOM      7  C   UNL     1       6.737   4.686  18.500  0.00  0.00    +0.000 A 
ATOM      8  C   UNL     1       6.482   4.826  17.129  0.00  0.00    +0.000 A 
ATOM      9  C   UNL     1       7.433   4.519  16.141  0.00  0.00    +0.000 A 
ATOM     10  C   UNL     1       7.125   4.690  14.790  0.00  0.00    +0.000 A 
ATOM     11  C   UNL     1       5.875   5.174  14.420  0.00  0.00    +0.000 A 
ATOM     12  C   UNL     1       4.934   5.475  15.405  0.00  0.00    +0.000 A 
ATOM     13  C   UNL     1       5.214   5.300  16.751  0.00  0.00    +0.000 A 
ATOM     14  N   UNL     1       4.269   5.600  17.649  0.00  0.00    +0.000 NA
ATOM     15  H   UNL     1       3.709   5.607  20.860  0.00  0.00    +0.000 HD
ENDBRANCH   1   3
BRANCH   1  16
ATOM     16  C   UNL     1       2.324   8.641  18.227  0.00  0.00    +0.000 C 
BRANCH  16  17
ATOM     17  C   UNL     1       1.008   9.357  17.915  0.00  0.00    +0.000 C 
BRANCH  17  18
ATOM     18  C   UNL     1       0.456   9.978  19.165  0.00  0.00    +0.000 A 
ATOM     19  N   UNL     1      -0.540  10.800  19.100  0.00  0.00    +0.000 NA
ATOM     20  C   UNL     1      -1.026  11.327  20.306  0.00  0.00    +0.000 A 
ATOM     21  C   UNL     1      -2.105  12.209  20.264  0.00  0.00    +0.000 A 
ATOM     22  C   UNL     1      -2.616  12.758  21.443  0.00  0.00    +0.000 A 
ATOM     23  C   UNL     1      -2.048  12.428  22.676  0.00  0.00    +0.000 A 
ATOM     24  C   UNL     1      -0.971  11.547  22.732  0.00  0.00    +0.000 A 
ATOM     25  C   UNL     1      -0.470  11.002  21.547  0.00  0.00    +0.000 A 
ATOM     26  C   UNL     1       0.663  10.061  21.559  0.00  0.00    +0.000 A 
ATOM     27  O   UNL     1       1.224   9.727  22.595  0.00  0.00    +0.000 OA
ATOM     28  N   UNL     1       1.048   9.587  20.333  0.00  0.00    +0.000 N 
ATOM     29  H   UNL     1       1.822   8.937  20.330  0.00  0.00    +0.000 HD
ENDBRANCH  17  18
ENDBRANCH  16  17
ENDBRANCH   1  16
TORSDOF 4
ENDMDL
MODEL 9
REMARK VINA RESULT:      -8.0      5.097      7.303
REMARK  Name = 
REMARK  4 active torsions:
REMARK  status: ('A' for Active; 'I' for Inactive)
REMARK    1  A    between atoms: C_2  and  C_3
REMARK    2  A    between atoms: C_3  and  C_4
REMARK    3  A    between atoms: C_4  and  C_5
REMARK    4  A    between atoms: C_5  and  C_6
REMARK                            x       y       z     vdW  Elec       q    Type
REMARK                         _______ _______ _______ _____ _____    ______ ____
ROOT
ATOM      1  C   UNL     1       6.379   7.200  17.601  0.00  0.00    +0.000 C 
ENDROOT
BRANCH   1   3
ATOM      2  O   UNL     1       7.798   6.258  15.899  0.00  0.00    +0.000 OA
ATOM      3  C   UNL     1       6.782   6.138  16.590  0.00  0.00    +0.000 C 
ATOM      4  N   UNL     1       5.999   5.035  16.399  0.00  0.00    +0.000 N 
ATOM      5  C   UNL     1       4.847   4.660  17.096  0.00  0.00    +0.000 A 
ATOM      6  C   UNL     1       4.053   3.655  16.565  0.00  0.00    +0.000 A 
ATOM      7  C   UNL     1       2.878   3.315  17.233  0.00  0.00    +0.000 A 
ATOM      8  C   UNL     1       2.531   3.977  18.419  0.00  0.00    +0.000 A 
ATOM      9  C   UNL     1       1.362   3.686  19.141  0.00  0.00    +0.000 A 
ATOM     10  C   UNL     1       1.063   4.388  20.311  0.00  0.00    +0.000 A 
ATOM     11  C   UNL     1       1.922   5.385  20.759  0.00  0.00    +0.000 A 
ATOM     12  C   UNL     1       3.083   5.668  20.040  0.00  0.00    +0.000 A 
ATOM     13  C   UNL     1       3.406   4.975  18.884  0.00  0.00    +0.000 A 
ATOM     14  N   UNL     1       4.536   5.287  18.240  0.00  0.00    +0.000 NA
ATOM     15  H   UNL     1       6.304   4.450  15.633  0.00  0.00    +0.000 HD
ENDBRANCH   1   3
BRANCH   1  16
ATOM     16  C   UNL     1       7.231   8.460  17.516  0.00  0.00    +0.000 C 
BRANCH  16  17
ATOM     17  C   UNL     1       8.472   8.328  18.402  0.00  0.00    +0.000 C 
BRANCH  17  18
ATOM     18  C   UNL     1       8.982   9.690  18.773  0.00  0.00    +0.000 A 
ATOM     19  N   UNL     1       9.413  10.496  17.859  0.00  0.00    +0.000 NA
ATOM     20  C   UNL     1       9.853  11.765  18.268  0.00  0.00    +0.000 A 
ATOM     21  C   UNL     1      10.315  12.656  17.301  0.00  0.00    +0.000 A 
ATOM     22  C   UNL     1      10.765  13.926  17.667  0.00  0.00    +0.000 A 
ATOM     23  C   UNL     1      10.757  14.315  19.009  0.00  0.00    +0.000 A 
ATOM     24  C   UNL     1      10.296  13.435  19.985  0.00  0.00    +0.000 A 
ATOM     25  C   UNL     1       9.846  12.168  19.606  0.00  0.00    +0.000 A 
ATOM     26  C   UNL     1       9.344  11.207  20.603  0.00  0.00    +0.000 A 
ATOM     27  O   UNL     1       9.312  11.464  21.800  0.00  0.00    +0.000 OA
ATOM     28  N   UNL     1       8.918  10.006  20.101  0.00  0.00    +0.000 N 
ATOM     29  H   UNL     1       8.568   9.340  20.776  0.00  0.00    +0.000 HD
ENDBRANCH  17  18
ENDBRANCH  16  17
ENDBRANCH   1  16
TORSDOF 4
ENDMDL
