MODEL 1
REMARK VINA RESULT:      -8.8      0.000      0.000
REMARK  Name = 
REMARK  5 active torsions:
REMARK  status: ('A' for Active; 'I' for Inactive)
REMARK    1  A    between atoms: N_4  and  S_5
REMARK    2  A    between atoms: S_5  and  C_8
REMARK    3  A    between atoms: C_12  and  C_13
REMARK    4  A    between atoms: N_15  and  C_16
REMARK    5  A    between atoms: C_16  and  C_17
REMARK                            x       y       z     vdW  Elec       q    Type
REMARK                         _______ _______ _______ _____ _____    ______ ____
ROOT
ATOM      1  C   UNL     1       2.438   6.829  19.345  0.00  0.00    +0.000 A 
ATOM      2  C   UNL     1       2.372   7.502  18.119  0.00  0.00    +0.000 A 
ATOM      3  C   UNL     1       1.802   8.767  18.069  0.00  0.00    +0.000 A 
ATOM      4  C   UNL     1       1.305   9.351  19.236  0.00  0.00    +0.000 A 
ATOM      5  C   UNL     1       1.365   8.696  20.483  0.00  0.00    +0.000 A 
ATOM      6  C   UNL     1       1.943   7.416  20.535  0.00  0.00    +0.000 A 
ENDROOT
BRANCH   5   7
ATOM      7  C   UNL     1       0.725   9.422  21.636  0.00  0.00    +0.000 C 
ATOM      8  O   UNL     1       1.293   9.386  22.732  0.00  0.00    +0.000 OA
ATOM      9  N   UNL     1      -0.454  10.122  21.461  0.00  0.00    +0.000 N 
ATOM     10  H   UNL     1      -0.941  10.120  20.573  0.00  0.00    +0.000 HD
BRANCH   9  11
ATOM     11  C   UNL     1      -0.928  11.047  22.496  0.00  0.00    +0.000 C 
BRANCH  11  12
ATOM     12  C   UNL     1      -1.081  12.544  22.085  0.00  0.00    +0.000 C 
ATOM     13  C   UNL     1       0.245  13.093  21.527  0.00  0.00    +0.000 C 
ATOM     14  C   UNL     1       0.700  14.494  21.907  0.00  0.00    +0.000 C 
ATOM     15  C   UNL     1      -0.130  15.300  22.891  0.00  0.00    +0.000 C 
ATOM     16  C   UNL     1      -1.324  14.642  23.510  0.00  0.00    +0.000 A 
ATOM     17  C   UNL     1      -2.027  15.376  24.486  0.00  0.00    +0.000 A 
ATOM     18  C   UNL     1      -3.205  14.890  25.045  0.00  0.00    +0.000 A 
ATOM     19  C   UNL     1      -3.718  13.678  24.608  0.00  0.00    +0.000 A 
ATOM     20  C   UNL     1      -3.026  12.943  23.644  0.00  0.00    +0.000 A 
ATOM     21  C   UNL     1      -1.797  13.389  23.115  0.00  0.00    +0.000 A 
ENDBRANCH  11  12
ENDBRANCH   9  11
ENDBRANCH   5   7
BRANCH   1  22
ATOM     22  S   UNL     1       3.270   5.252  19.372  0.00  0.00    +0.000 S 
ATOM     23  O   UNL     1       2.673   4.457  20.420  0.00  0.00    +0.000 OA
ATOM     24  O   UNL     1       4.691   5.527  19.362  0.00  0.00    +0.000 OA
BRANCH  22  28
ATOM     25  O   UNL     1       0.229   2.226  18.869  0.00  0.00    +0.000 OA
ATOM     26  C   UNL     1       1.321   2.609  18.456  0.00  0.00    +0.000 C 
ATOM     27  C   UNL     1       1.506   3.962  17.775  0.00  0.00    +0.000 C 
ATOM     28  N   UNL     1       2.887   4.523  17.869  0.00  0.00    +0.000 NA
ATOM     29  C   UNL     1       3.868   3.472  17.424  0.00  0.00    +0.000 C 
ATOM     30  C   UNL     1       3.770   2.222  18.307  0.00  0.00    +0.000 C 
ATOM     31  N   UNL     1       2.404   1.762  18.480  0.00  0.00    +0.000 N 
ATOM     32  H   UNL     1       2.239   0.909  19.002  0.00  0.00    +0.000 HD
ENDBRANCH  22  28
ENDBRANCH   1  22
TORSDOF 5
ENDMDL
MODEL 2
REMARK VINA RESULT:      -8.7      1.410      2.690
REMARK  Name = 
REMARK  5 active torsions:
REMARK  status: ('A' for Active; 'I' for Inactive)
REMARK    1  A    between atoms: N_4  and  S_5
REMARK    2  A    between atoms: S_5  and  C_8
REMARK    3  A    between atoms: C_12  and  C_13
REMARK    4  A    between atoms: N_15  and  C_16
REMARK    5  A    between atoms: C_16  and  C_17
REMARK                            x       y       z     vdW  Elec       q    Type
REMARK                         _______ _______ _______ _____ _____    ______ ____
ROOT
ATOM      1  C   UNL     1       2.427   6.869  19.374  0.00  0.00    +0.000 A 
ATOM      2  C   UNL     1       2.254   7.611  18.200  0.00  0.00    +0.000 A 
ATOM      3  C   UNL     1       1.661   8.865  18.271  0.00  0.00    +0.000 A 
ATOM      4  C   UNL     1       1.246   9.368  19.507  0.00  0.00    +0.000 A 
ATOM      5  C   UNL     1       1.414   8.640  20.703  0.00  0.00    +0.000 A 
ATOM      6  C   UNL     1       2.016   7.372  20.632  0.00  0.00    +0.000 A 
ENDROOT
BRANCH   5   7
ATOM      7  C   UNL     1       0.854   9.283  21.945  0.00  0.00    +0.000 C 
ATOM      8  O   UNL     1       1.576   9.341  22.944  0.00  0.00    +0.000 OA
ATOM      9  N   UNL     1      -0.425   9.806  21.951  0.00  0.00    +0.000 N 
ATOM     10  H   UNL     1      -1.032   9.724  21.145  0.00  0.00    +0.000 HD
BRANCH   9  11
ATOM     11  C   UNL     1      -0.869  10.667  23.052  0.00  0.00    +0.000 C 
BRANCH  11  12
ATOM     12  C   UNL     1      -1.374  12.093  22.671  0.00  0.00    +0.000 C 
ATOM     13  C   UNL     1      -2.906  12.179  22.796  0.00  0.00    +0.000 C 
ATOM     14  C   UNL     1      -3.708  12.925  21.739  0.00  0.00    +0.000 C 
ATOM     15  C   UNL     1      -2.985  13.511  20.540  0.00  0.00    +0.000 C 
ATOM     16  C   UNL     1      -1.515  13.256  20.408  0.00  0.00    +0.000 A 
ATOM     17  C   UNL     1      -0.883  13.732  19.243  0.00  0.00    +0.000 A 
ATOM     18  C   UNL     1       0.495  13.630  19.077  0.00  0.00    +0.000 A 
ATOM     19  C   UNL     1       1.265  13.083  20.091  0.00  0.00    +0.000 A 
ATOM     20  C   UNL     1       0.647  12.606  21.247  0.00  0.00    +0.000 A 
ATOM     21  C   UNL     1      -0.754  12.640  21.405  0.00  0.00    +0.000 A 
ENDBRANCH  11  12
ENDBRANCH   9  11
ENDBRANCH   5   7
BRANCH   1  22
ATOM     22  S   UNL     1       3.284   5.311  19.240  0.00  0.00    +0.000 S 
ATOM     23  O   UNL     1       2.806   4.453  20.300  0.00  0.00    +0.000 OA
ATOM     24  O   UNL     1       4.693   5.617  19.107  0.00  0.00    +0.000 OA
BRANCH  22  28
ATOM     25  O   UNL     1       0.270   2.237  18.883  0.00  0.00    +0.000 OA
ATOM     26  C   UNL     1       1.308   2.668  18.385  0.00  0.00    +0.000 C 
ATOM     27  C   UNL     1       1.397   4.057  17.760  0.00  0.00    +0.000 C 
ATOM     28  N   UNL     1       2.768   4.647  17.746  0.00  0.00    +0.000 NA
ATOM     29  C   UNL     1       3.722   3.645  17.153  0.00  0.00    +0.000 C 
ATOM     30  C   UNL     1       3.738   2.351  17.976  0.00  0.00    +0.000 C 
ATOM     31  N   UNL     1       2.405   1.848  18.258  0.00  0.00    +0.000 N 
ATOM     32  H   UNL     1       2.310   0.966  18.749  0.00  0.00    +0.000 HD
ENDBRANCH  22  28
ENDBRANCH   1  22
TORSDOF 5
ENDMDL
MODEL 3
REMARK VINA RESULT:      -8.6      2.340      3.587
REMARK  Name = 
REMARK  5 active torsions:
REMARK  status: ('A' for Active; 'I' for Inactive)
REMARK    1  A    between atoms: N_4  and  S_5
REMARK    2  A    between atoms: S_5  and  C_8
REMARK    3  A    between atoms: C_12  and  C_13
REMARK    4  A    between atoms: N_15  and  C_16
REMARK    5  A    between atoms: C_16  and  C_17
REMARK                            x       y       z     vdW  Elec       q    Type
REMARK                         _______ _______ _______ _____ _____    ______ ____
ROOT
ATOM      1  C   UNL     1       2.253   7.169  19.220  0.00  0.00    +0.000 A 
ATOM      2  C   UNL     1       2.417   7.745  17.955  0.00  0.00    +0.000 A 
ATOM      3  C   UNL     1       1.976   9.043  17.737  0.00  0.00    +0.000 A 
ATOM      4  C   UNL     1       1.376   9.756  18.779  0.00  0.00    +0.000 A 
ATOM      5  C   UNL     1       1.204   9.199  20.062  0.00  0.00    +0.000 A 
ATOM      6  C   UNL     1       1.653   7.886  20.283  0.00  0.00    +0.000 A 
ENDROOT
BRANCH   5   7
ATOM      7  C   UNL     1       0.478  10.063  21.059  0.00  0.00    +0.000 C 
ATOM      8  O   UNL     1       1.027  10.284  22.143  0.00  0.00    +0.000 OA
ATOM      9  N   UNL     1      -0.756  10.605  20.755  0.00  0.00    +0.000 N 
ATOM     10  H   UNL     1      -1.224  10.393  19.883  0.00  0.00    +0.000 HD
BRANCH   9  11
ATOM     11  C   UNL     1      -1.333  11.657  21.599  0.00  0.00    +0.000 C 
BRANCH  11  12
ATOM     12  C   UNL     1      -2.446  12.542  20.957  0.00  0.00    +0.000 C 
ATOM     13  C   UNL     1      -3.582  12.801  21.963  0.00  0.00    +0.000 C 
ATOM     14  C   UNL     1      -5.029  12.756  21.494  0.00  0.00    +0.000 C 
ATOM     15  C   UNL     1      -5.328  12.384  20.053  0.00  0.00    +0.000 C 
ATOM     16  C   UNL     1      -4.180  11.996  19.172  0.00  0.00    +0.000 A 
ATOM     17  C   UNL     1      -4.489  11.569  17.866  0.00  0.00    +0.000 A 
ATOM     18  C   UNL     1      -3.487  11.283  16.944  0.00  0.00    +0.000 A 
ATOM     19  C   UNL     1      -2.160  11.456  17.305  0.00  0.00    +0.000 A 
ATOM     20  C   UNL     1      -1.845  11.875  18.598  0.00  0.00    +0.000 A 
ATOM     21  C   UNL     1      -2.844  12.106  19.566  0.00  0.00    +0.000 A 
ENDBRANCH  11  12
ENDBRANCH   9  11
ENDBRANCH   5   7
BRANCH   1  22
ATOM     22  S   UNL     1       2.928   5.539  19.473  0.00  0.00    +0.000 S 
ATOM     23  O   UNL     1       2.101   4.865  20.448  0.00  0.00    +0.000 OA
ATOM     24  O   UNL     1       4.350   5.701  19.689  0.00  0.00    +0.000 OA
BRANCH  22  28
ATOM     25  O   UNL     1       0.247   2.211  18.841  0.00  0.00    +0.000 OA
ATOM     26  C   UNL     1       1.325   2.693  18.498  0.00  0.00    +0.000 C 
ATOM     27  C   UNL     1       1.426   4.041  17.791  0.00  0.00    +0.000 C 
ATOM     28  N   UNL     1       2.734   4.739  17.969  0.00  0.00    +0.000 NA
ATOM     29  C   UNL     1       3.845   3.782  17.630  0.00  0.00    +0.000 C 
ATOM     30  C   UNL     1       3.804   2.550  18.541  0.00  0.00    +0.000 C 
ATOM     31  N   UNL     1       2.480   1.958  18.627  0.00  0.00    +0.000 N 
ATOM     32  H   UNL     1       2.360   1.106  19.162  0.00  0.00    +0.000 HD
ENDBRANCH  22  28
ENDBRANCH   1  22
TORSDOF 5
ENDMDL
MODEL 4
REMARK VINA RESULT:      -8.6      4.180     10.025
REMARK  Name = 
REMARK  5 active torsions:
REMARK  status: ('A' for Active; 'I' for Inactive)
REMARK    1  A    between atoms: N_4  and  S_5
REMARK    2  A    between atoms: S_5  and  C_8
REMARK    3  A    between atoms: C_12  and  C_13
REMARK    4  A    between atoms: N_15  and  C_16
REMARK    5  A    between atoms: C_16  and  C_17
REMARK                            x       y       z     vdW  Elec       q    Type
REMARK                         _______ _______ _______ _____ _____    ______ ____
ROOT
ATOM      1  C   UNL     1      -0.991  10.860  19.696  0.00  0.00    +0.000 A 
ATOM      2  C   UNL     1      -0.820  11.177  21.049  0.00  0.00    +0.000 A 
ATOM      3  C   UNL     1       0.197  10.563  21.767  0.00  0.00    +0.000 A 
ATOM      4  C   UNL     1       1.034   9.640  21.134  0.00  0.00    +0.000 A 
ATOM      5  C   UNL     1       0.884   9.309  19.772  0.00  0.00    +0.000 A 
ATOM      6  C   UNL     1      -0.144   9.932  19.044  0.00  0.00    +0.000 A 
ENDROOT
BRANCH   5   7
ATOM      7  C   UNL     1       1.816   8.246  19.250  0.00  0.00    +0.000 C 
ATOM      8  O   UNL     1       2.337   8.424  18.145  0.00  0.00    +0.000 OA
ATOM      9  N   UNL     1       2.088   7.118  20.000  0.00  0.00    +0.000 N 
ATOM     10  H   UNL     1       1.631   6.953  20.889  0.00  0.00    +0.000 HD
BRANCH   9  11
ATOM     11  C   UNL     1       3.192   6.227  19.627  0.00  0.00    +0.000 C 
BRANCH  11  12
ATOM     12  C   UNL     1       2.895   5.161  18.528  0.00  0.00    +0.000 C 
ATOM     13  C   UNL     1       2.365   3.861  19.160  0.00  0.00    +0.000 C 
ATOM     14  C   UNL     1       2.844   2.517  18.632  0.00  0.00    +0.000 C 
ATOM     15  C   UNL     1       3.894   2.484  17.535  0.00  0.00    +0.000 C 
ATOM     16  C   UNL     1       4.474   3.786  17.076  0.00  0.00    +0.000 A 
ATOM     17  C   UNL     1       5.509   3.727  16.122  0.00  0.00    +0.000 A 
ATOM     18  C   UNL     1       6.043   4.884  15.563  0.00  0.00    +0.000 A 
ATOM     19  C   UNL     1       5.522   6.117  15.922  0.00  0.00    +0.000 A 
ATOM     20  C   UNL     1       4.500   6.186  16.869  0.00  0.00    +0.000 A 
ATOM     21  C   UNL     1       3.992   5.028  17.496  0.00  0.00    +0.000 A 
ENDBRANCH  11  12
ENDBRANCH   9  11
ENDBRANCH   5   7
BRANCH   1  22
ATOM     22  S   UNL     1      -2.246  11.752  18.797  0.00  0.00    +0.000 S 
ATOM     23  O   UNL     1      -1.626  12.321  17.622  0.00  0.00    +0.000 OA
ATOM     24  O   UNL     1      -2.935  12.590  19.755  0.00  0.00    +0.000 OA
BRANCH  22  28
ATOM     25  O   UNL     1      -2.676  10.466  14.695  0.00  0.00    +0.000 OA
ATOM     26  C   UNL     1      -3.290  10.651  15.744  0.00  0.00    +0.000 C 
ATOM     27  C   UNL     1      -2.993   9.858  17.013  0.00  0.00    +0.000 C 
ATOM     28  N   UNL     1      -3.359  10.555  18.282  0.00  0.00    +0.000 NA
ATOM     29  C   UNL     1      -4.781  11.037  18.178  0.00  0.00    +0.000 C 
ATOM     30  C   UNL     1      -4.945  12.009  17.004  0.00  0.00    +0.000 C 
ATOM     31  N   UNL     1      -4.370  11.503  15.770  0.00  0.00    +0.000 N 
ATOM     32  H   UNL     1      -4.475  12.049  14.922  0.00  0.00    +0.000 HD
ENDBRANCH  22  28
ENDBRANCH   1  22
TORSDOF 5
ENDMDL
MODEL 5
REMARK VINA RESULT:      -8.6      1.678      2.848
REMARK  Name = 
REMARK  5 active torsions:
REMARK  status: ('A' for Active; 'I' for Inactive)
REMARK    1  A    between atoms: N_4  and  S_5
REMARK    2  A    between atoms: S_5  and  C_8
REMARK    3  A    between atoms: C_12  and  C_13
REMARK    4  A    between atoms: N_15  and  C_16
REMARK    5  A    between atoms: C_16  and  C_17
REMARK                            x       y       z     vdW  Elec       q    Type
REMARK                         _______ _______ _______ _____ _____    ______ ____
ROOT
ATOM      1  C   UNL     1       2.290   7.266  18.984  0.00  0.00    +0.000 A 
ATOM      2  C   UNL     1       2.059   8.091  17.877  0.00  0.00    +0.000 A 
ATOM      3  C   UNL     1       1.452   9.325  18.065  0.00  0.00    +0.000 A 
ATOM      4  C   UNL     1       1.081   9.728  19.350  0.00  0.00    +0.000 A 
ATOM      5  C   UNL     1       1.308   8.917  20.481  0.00  0.00    +0.000 A 
ATOM      6  C   UNL     1       1.924   7.668  20.292  0.00  0.00    +0.000 A 
ENDROOT
BRANCH   5   7
ATOM      7  C   UNL     1       0.789   9.455  21.788  0.00  0.00    +0.000 C 
ATOM      8  O   UNL     1       1.546   9.439  22.763  0.00  0.00    +0.000 OA
ATOM      9  N   UNL     1      -0.491   9.968  21.881  0.00  0.00    +0.000 N 
ATOM     10  H   UNL     1      -1.126   9.946  21.092  0.00  0.00    +0.000 HD
BRANCH   9  11
ATOM     11  C   UNL     1      -0.899  10.737  23.062  0.00  0.00    +0.000 C 
BRANCH  11  12
ATOM     12  C   UNL     1      -1.438  12.179  22.810  0.00  0.00    +0.000 C 
ATOM     13  C   UNL     1      -2.973  12.213  22.920  0.00  0.00    +0.000 C 
ATOM     14  C   UNL     1      -3.782  13.036  21.928  0.00  0.00    +0.000 C 
ATOM     15  C   UNL     1      -3.061  13.752  20.801  0.00  0.00    +0.000 C 
ATOM     16  C   UNL     1      -1.583  13.549  20.667  0.00  0.00    +0.000 A 
ATOM     17  C   UNL     1      -0.950  14.150  19.562  0.00  0.00    +0.000 A 
ATOM     18  C   UNL     1       0.432  14.101  19.406  0.00  0.00    +0.000 A 
ATOM     19  C   UNL     1       1.205  13.480  20.376  0.00  0.00    +0.000 A 
ATOM     20  C   UNL     1       0.585  12.878  21.471  0.00  0.00    +0.000 A 
ATOM     21  C   UNL     1      -0.818  12.860  21.611  0.00  0.00    +0.000 A 
ENDBRANCH  11  12
ENDBRANCH   9  11
ENDBRANCH   5   7
BRANCH   1  22
ATOM     22  S   UNL     1       3.163   5.737  18.700  0.00  0.00    +0.000 S 
ATOM     23  O   UNL     1       4.015   5.498  19.843  0.00  0.00    +0.000 OA
ATOM     24  O   UNL     1       3.713   5.809  17.364  0.00  0.00    +0.000 OA
BRANCH  22  28
ATOM     25  O   UNL     1       2.283   3.153  22.049  0.00  0.00    +0.000 OA
ATOM     26  C   UNL     1       2.313   3.207  20.821  0.00  0.00    +0.000 C 
ATOM     27  C   UNL     1       1.416   4.150  20.025  0.00  0.00    +0.000 C 
ATOM     28  N   UNL     1       1.948   4.529  18.682  0.00  0.00    +0.000 NA
ATOM     29  C   UNL     1       2.333   3.276  17.942  0.00  0.00    +0.000 C 
ATOM     30  C   UNL     1       3.408   2.496  18.708  0.00  0.00    +0.000 C 
ATOM     31  N   UNL     1       3.077   2.311  20.110  0.00  0.00    +0.000 N 
ATOM     32  H   UNL     1       3.699   1.760  20.690  0.00  0.00    +0.000 HD
ENDBRANCH  22  28
ENDBRANCH   1  22
TORSDOF 5
ENDMDL
MODEL 6
REMARK VINA RESULT:      -8.5      1.654      2.589
REMARK  Name = 
REMARK  5 active torsions:
REMARK  status: ('A' for Active; 'I' for Inactive)
REMARK    1  A    between atoms: N_4  and  S_5
REMARK    2  A    between atoms: S_5  and  C_8
REMARK    3  A    between atoms: C_12  and  C_13
REMARK    4  A    between atoms: N_15  and  C_16
REMARK    5  A    between atoms: C_16  and  C_17
REMARK                            x       y       z     vdW  Elec       q    Type
REMARK                         _______ _______ _______ _____ _____    ______ ____
ROOT
ATOM      1  C   UNL     1       2.664   6.669  19.156  0.00  0.00    +0.000 A 
ATOM      2  C   UNL     1       2.912   7.373  17.973  0.00  0.00    +0.000 A 
ATOM      3  C   UNL     1       2.350   8.631  17.801  0.00  0.00    +0.000 A 
ATOM      4  C   UNL     1       1.547   9.175  18.806  0.00  0.00    +0.000 A 
ATOM      5  C   UNL     1       1.287   8.487  20.009  0.00  0.00    +0.000 A 
ATOM      6  C   UNL     1       1.858   7.215  20.184  0.00  0.00    +0.000 A 
ENDROOT
BRANCH   5   7
ATOM      7  C   UNL     1       0.347   9.172  20.966  0.00  0.00    +0.000 C 
ATOM      8  O   UNL     1      -0.406   8.466  21.642  0.00  0.00    +0.000 OA
ATOM      9  N   UNL     1       0.348  10.548  21.090  0.00  0.00    +0.000 N 
ATOM     10  H   UNL     1       0.938  11.130  20.508  0.00  0.00    +0.000 HD
BRANCH   9  11
ATOM     11  C   UNL     1      -0.356  11.193  22.204  0.00  0.00    +0.000 C 
BRANCH  11  12
ATOM     12  C   UNL     1      -1.088  12.535  21.890  0.00  0.00    +0.000 C 
ATOM     13  C   UNL     1      -1.407  13.296  23.190  0.00  0.00    +0.000 C 
ATOM     14  C   UNL     1      -2.750  13.995  23.343  0.00  0.00    +0.000 C 
ATOM     15  C   UNL     1      -3.782  13.866  22.236  0.00  0.00    +0.000 C 
ATOM     16  C   UNL     1      -3.458  12.983  21.070  0.00  0.00    +0.000 A 
ATOM     17  C   UNL     1      -4.464  12.808  20.100  0.00  0.00    +0.000 A 
ATOM     18  C   UNL     1      -4.224  12.088  18.934  0.00  0.00    +0.000 A 
ATOM     19  C   UNL     1      -2.961  11.563  18.705  0.00  0.00    +0.000 A 
ATOM     20  C   UNL     1      -1.960  11.728  19.662  0.00  0.00    +0.000 A 
ATOM     21  C   UNL     1      -2.204  12.398  20.879  0.00  0.00    +0.000 A 
ENDBRANCH  11  12
ENDBRANCH   9  11
ENDBRANCH   5   7
BRANCH   1  22
ATOM     22  S   UNL     1       3.493   5.104  19.368  0.00  0.00    +0.000 S 
ATOM     23  O   UNL     1       2.847   4.407  20.457  0.00  0.00    +0.000 OA
ATOM     24  O   UNL     1       4.913   5.380  19.399  0.00  0.00    +0.000 OA
BRANCH  22  28
ATOM     25  O   UNL     1       0.147   2.421  18.846  0.00  0.00    +0.000 OA
ATOM     26  C   UNL     1       1.319   2.615  18.529  0.00  0.00    +0.000 C 
ATOM     27  C   UNL     1       1.754   3.837  17.725  0.00  0.00    +0.000 C 
ATOM     28  N   UNL     1       3.179   4.237  17.923  0.00  0.00    +0.000 NA
ATOM     29  C   UNL     1       4.054   3.027  17.726  0.00  0.00    +0.000 C 
ATOM     30  C   UNL     1       3.696   1.923  18.728  0.00  0.00    +0.000 C 
ATOM     31  N   UNL     1       2.270   1.655  18.783  0.00  0.00    +0.000 N 
ATOM     32  H   UNL     1       1.937   0.903  19.376  0.00  0.00    +0.000 HD
ENDBRANCH  22  28
ENDBRANCH   1  22
TORSDOF 5
ENDMDL
MODEL 7
REMARK VINA RESULT:      -8.5      3.551     10.285
REMARK  Name = 
REMARK  5 active torsions:
REMARK  status: ('A' for Active; 'I' for Inactive)
REMARK    1  A    between atoms: N_4  and  S_5
REMARK    2  A    between atoms: S_5  and  C_8
REMARK    3  A    between atoms: C_12  and  C_13
REMARK    4  A    between atoms: N_15  and  C_16
REMARK    5  A    between atoms: C_16  and  C_17
REMARK                            x       y       z     vdW  Elec       q    Type
REMARK                         _______ _______ _______ _____ _____    ______ ____
ROOT
ATOM      1  C   UNL     1       0.073  11.531  21.525  0.00  0.00    +0.000 A 
ATOM      2  C   UNL     1      -0.702  11.160  22.629  0.00  0.00    +0.000 A 
ATOM      3  C   UNL     1      -0.736   9.827  23.018  0.00  0.00    +0.000 A 
ATOM      4  C   UNL     1       0.001   8.878  22.306  0.00  0.00    +0.000 A 
ATOM      5  C   UNL     1       0.793   9.229  21.194  0.00  0.00    +0.000 A 
ATOM      6  C   UNL     1       0.829  10.578  20.801  0.00  0.00    +0.000 A 
ENDROOT
BRANCH   5   7
ATOM      7  C   UNL     1       1.473   8.085  20.487  0.00  0.00    +0.000 C 
ATOM      8  O   UNL     1       1.972   8.304  19.379  0.00  0.00    +0.000 OA
ATOM      9  N   UNL     1       1.548   6.838  21.076  0.00  0.00    +0.000 N 
ATOM     10  H   UNL     1       1.106   6.648  21.967  0.00  0.00    +0.000 HD
BRANCH   9  11
ATOM     11  C   UNL     1       2.437   5.809  20.525  0.00  0.00    +0.000 C 
BRANCH  11  12
ATOM     12  C   UNL     1       1.935   5.051  19.258  0.00  0.00    +0.000 C 
ATOM     13  C   UNL     1       1.131   3.800  19.656  0.00  0.00    +0.000 C 
ATOM     14  C   UNL     1       1.319   2.504  18.880  0.00  0.00    +0.000 C 
ATOM     15  C   UNL     1       2.353   2.450  17.770  0.00  0.00    +0.000 C 
ATOM     16  C   UNL     1       3.205   3.660  17.541  0.00  0.00    +0.000 A 
ATOM     17  C   UNL     1       4.217   3.557  16.567  0.00  0.00    +0.000 A 
ATOM     18  C   UNL     1       4.994   4.657  16.215  0.00  0.00    +0.000 A 
ATOM     19  C   UNL     1       4.744   5.886  16.805  0.00  0.00    +0.000 A 
ATOM     20  C   UNL     1       3.746   5.996  17.774  0.00  0.00    +0.000 A 
ATOM     21  C   UNL     1       2.994   4.878  18.192  0.00  0.00    +0.000 A 
ENDBRANCH  11  12
ENDBRANCH   9  11
ENDBRANCH   5   7
BRANCH   1  22
ATOM     22  S   UNL     1       0.161  13.268  21.131  0.00  0.00    +0.000 S 
ATOM     23  O   UNL     1       1.276  13.829  21.860  0.00  0.00    +0.000 OA
ATOM     24  O   UNL     1      -1.175  13.802  21.287  0.00  0.00    +0.000 OA
BRANCH  22  28
ATOM     25  O   UNL     1       3.396  15.598  19.467  0.00  0.00    +0.000 OA
ATOM     26  C   UNL     1       2.262  15.178  19.245  0.00  0.00    +0.000 C 
ATOM     27  C   UNL     1       1.950  13.688  19.144  0.00  0.00    +0.000 C 
ATOM     28  N   UNL     1       0.536  13.325  19.460  0.00  0.00    +0.000 NA
ATOM     29  C   UNL     1      -0.382  14.202  18.650  0.00  0.00    +0.000 C 
ATOM     30  C   UNL     1      -0.156  15.682  18.978  0.00  0.00    +0.000 C 
ATOM     31  N   UNL     1       1.247  16.057  18.947  0.00  0.00    +0.000 N 
ATOM     32  H   UNL     1       1.496  17.028  19.096  0.00  0.00    +0.000 HD
ENDBRANCH  22  28
ENDBRANCH   1  22
TORSDOF 5
ENDMDL
MODEL 8
REMARK VINA RESULT:      -8.4      1.077      1.302
REMARK  Name = 
REMARK  5 active torsions:
REMARK  status: ('A' for Active; 'I' for Inactive)
REMARK    1  A    between atoms: N_4  and  S_5
REMARK    2  A    between atoms: S_5  and  C_8
REMARK    3  A    between atoms: C_12  and  C_13
REMARK    4  A    between atoms: N_15  and  C_16
REMARK    5  A    between atoms: C_16  and  C_17
REMARK                            x       y       z     vdW  Elec       q    Type
REMARK                         _______ _______ _______ _____ _____    ______ ____
ROOT
ATOM      1  C   UNL     1       2.311   7.176  18.880  0.00  0.00    +0.000 A 
ATOM      2  C   UNL     1       2.285   7.960  17.721  0.00  0.00    +0.000 A 
ATOM      3  C   UNL     1       1.804   9.260  17.791  0.00  0.00    +0.000 A 
ATOM      4  C   UNL     1       1.352   9.768  19.012  0.00  0.00    +0.000 A 
ATOM      5  C   UNL     1       1.372   8.999  20.194  0.00  0.00    +0.000 A 
ATOM      6  C   UNL     1       1.861   7.683  20.123  0.00  0.00    +0.000 A 
ENDROOT
BRANCH   5   7
ATOM      7  C   UNL     1       0.787   9.659  21.415  0.00  0.00    +0.000 C 
ATOM      8  O   UNL     1       1.471   9.686  22.442  0.00  0.00    +0.000 OA
ATOM      9  N   UNL     1      -0.470  10.231  21.373  0.00  0.00    +0.000 N 
ATOM     10  H   UNL     1      -1.047  10.175  20.542  0.00  0.00    +0.000 HD
BRANCH   9  11
ATOM     11  C   UNL     1      -0.924  11.105  22.459  0.00  0.00    +0.000 C 
BRANCH  11  12
ATOM     12  C   UNL     1      -1.110  12.615  22.116  0.00  0.00    +0.000 C 
ATOM     13  C   UNL     1       0.196  13.211  21.560  0.00  0.00    +0.000 C 
ATOM     14  C   UNL     1       0.634  14.603  21.993  0.00  0.00    +0.000 C 
ATOM     15  C   UNL     1      -0.191  15.350  23.025  0.00  0.00    +0.000 C 
ATOM     16  C   UNL     1      -1.363  14.646  23.635  0.00  0.00    +0.000 A 
ATOM     17  C   UNL     1      -2.061  15.324  24.654  0.00  0.00    +0.000 A 
ATOM     18  C   UNL     1      -3.220  14.793  25.211  0.00  0.00    +0.000 A 
ATOM     19  C   UNL     1      -3.720  13.593  24.730  0.00  0.00    +0.000 A 
ATOM     20  C   UNL     1      -3.033  12.913  23.724  0.00  0.00    +0.000 A 
ATOM     21  C   UNL     1      -1.822  13.402  23.194  0.00  0.00    +0.000 A 
ENDBRANCH  11  12
ENDBRANCH   9  11
ENDBRANCH   5   7
BRANCH   1  22
ATOM     22  S   UNL     1       3.033   5.550  18.755  0.00  0.00    +0.000 S 
ATOM     23  O   UNL     1       3.864   5.347  19.919  0.00  0.00    +0.000 OA
ATOM     24  O   UNL     1       3.579   5.435  17.420  0.00  0.00    +0.000 OA
BRANCH  22  28
ATOM     25  O   UNL     1       2.136   3.151  22.233  0.00  0.00    +0.000 OA
ATOM     26  C   UNL     1       2.087   3.170  21.005  0.00  0.00    +0.000 C 
ATOM     27  C   UNL     1       1.234   4.176  20.239  0.00  0.00    +0.000 C 
ATOM     28  N   UNL     1       1.708   4.467  18.854  0.00  0.00    +0.000 NA
ATOM     29  C   UNL     1       1.919   3.164  18.130  0.00  0.00    +0.000 C 
ATOM     30  C   UNL     1       2.963   2.302  18.849  0.00  0.00    +0.000 C 
ATOM     31  N   UNL     1       2.711   2.186  20.274  0.00  0.00    +0.000 N 
ATOM     32  H   UNL     1       3.314   1.590  20.830  0.00  0.00    +0.000 HD
ENDBRANCH  22  28
ENDBRANCH   1  22
TORSDOF 5
ENDMDL
MODEL 9
REMARK VINA RESULT:      -8.4      3.464     10.329
REMARK  Name = 
REMARK  5 active torsions:
REMARK  status: ('A' for Active; 'I' for Inactive)
REMARK    1  A    between atoms: N_4  and  S_5
REMARK    2  A    between atoms: S_5  and  C_8
REMARK    3  A    between atoms: C_12  and  C_13
REMARK    4  A    between atoms: N_15  and  C_16
REMARK    5  A    between atoms: C_16  and  C_17
REMARK                            x       y       z     vdW  Elec       q    Type
REMARK                         _______ _______ _______ _____ _____    ______ ____
ROOT
ATOM      1  C   UNL     1      -0.663  11.253  21.040  0.00  0.00    +0.000 A 
ATOM      2  C   UNL     1      -0.852  11.033  22.409  0.00  0.00    +0.000 A 
ATOM      3  C   UNL     1      -0.265   9.925  23.006  0.00  0.00    +0.000 A 
ATOM      4  C   UNL     1       0.505   9.049  22.236  0.00  0.00    +0.000 A 
ATOM      5  C   UNL     1       0.714   9.253  20.857  0.00  0.00    +0.000 A 
ATOM      6  C   UNL     1       0.121  10.375  20.253  0.00  0.00    +0.000 A 
ENDROOT
BRANCH   5   7
ATOM      7  C   UNL     1       1.507   8.186  20.150  0.00  0.00    +0.000 C 
ATOM      8  O   UNL     1       2.017   8.468  19.061  0.00  0.00    +0.000 OA
ATOM      9  N   UNL     1       1.670   6.937  20.717  0.00  0.00    +0.000 N 
ATOM     10  H   UNL     1       1.220   6.692  21.591  0.00  0.00    +0.000 HD
BRANCH   9  11
ATOM     11  C   UNL     1       2.657   5.998  20.174  0.00  0.00    +0.000 C 
BRANCH  11  12
ATOM     12  C   UNL     1       2.232   5.179  18.916  0.00  0.00    +0.000 C 
ATOM     13  C   UNL     1       1.520   3.878  19.330  0.00  0.00    +0.000 C 
ATOM     14  C   UNL     1       1.817   2.586  18.582  0.00  0.00    +0.000 C 
ATOM     15  C   UNL     1       2.867   2.591  17.485  0.00  0.00    +0.000 C 
ATOM     16  C   UNL     1       3.627   3.858  17.242  0.00  0.00    +0.000 A 
ATOM     17  C   UNL     1       4.657   3.815  16.283  0.00  0.00    +0.000 A 
ATOM     18  C   UNL     1       5.352   4.964  15.918  0.00  0.00    +0.000 A 
ATOM     19  C   UNL     1       5.001   6.181  16.481  0.00  0.00    +0.000 A 
ATOM     20  C   UNL     1       3.984   6.232  17.435  0.00  0.00    +0.000 A 
ATOM     21  C   UNL     1       3.314   5.068  17.866  0.00  0.00    +0.000 A 
ENDBRANCH  11  12
ENDBRANCH   9  11
ENDBRANCH   5   7
BRANCH   1  22
ATOM     22  S   UNL     1      -1.354  12.743  20.346  0.00  0.00    +0.000 S 
ATOM     23  O   UNL     1      -2.710  12.867  20.831  0.00  0.00    +0.000 OA
ATOM     24  O   UNL     1      -1.071  12.717  18.927  0.00  0.00    +0.000 OA
BRANCH  22  28
ATOM     25  O   UNL     1      -0.559  16.478  18.325  0.00  0.00    +0.000 OA
ATOM     26  C   UNL     1      -0.089  15.658  19.112  0.00  0.00    +0.000 C 
ATOM     27  C   UNL     1      -0.726  15.373  20.469  0.00  0.00    +0.000 C 
ATOM     28  N   UNL     1      -0.430  14.018  21.022  0.00  0.00    +0.000 NA
ATOM     29  C   UNL     1       1.058  13.792  20.982  0.00  0.00    +0.000 C 
ATOM     30  C   UNL     1       1.585  13.876  19.545  0.00  0.00    +0.000 C 
ATOM     31  N   UNL     1       1.119  15.057  18.842  0.00  0.00    +0.000 N 
ATOM     32  H   UNL     1       1.457  15.233  17.903  0.00  0.00    +0.000 HD
ENDBRANCH  22  28
ENDBRANCH   1  22
TORSDOF 5
ENDMDL
