MODEL 1
REMARK VINA RESULT:      -8.7      0.000      0.000
REMARK  Name = 
REMARK  5 active torsions:
REMARK  status: ('A' for Active; 'I' for Inactive)
REMARK    1  A    between atoms: C_1  and  C_2
REMARK    2  A    between atoms: C_4  and  C_5
REMARK    3  A    between atoms: C_10  and  C_12
REMARK    4  A    between atoms: C_24  and  C_25
REMARK    5  A    between atoms: N_26  and  C_27
REMARK                            x       y       z     vdW  Elec       q    Type
REMARK                         _______ _______ _______ _____ _____    ______ ____
ROOT
ATOM      1  C   UNL     1       4.273   4.852  18.080  0.00  0.00    +0.000 A 
ATOM      2  C   UNL     1       4.079   3.806  18.961  0.00  0.00    +0.000 A 
ATOM      3  S   UNL     1       3.111   4.330  20.280  0.00  0.00    +0.000 S 
ATOM      4  C   UNL     1       2.996   5.864  19.544  0.00  0.00    +0.000 A 
ATOM      5  N   UNL     1       2.223   6.759  20.228  0.00  0.00    +0.000 N 
ATOM      6  C   UNL     1       1.808   7.930  19.637  0.00  0.00    +0.000 C 
ATOM      7  O   UNL     1       2.041   8.241  18.472  0.00  0.00    +0.000 OA
ATOM      8  N   UNL     1       3.641   6.025  18.425  0.00  0.00    +0.000 NA
ATOM      9  H   UNL     1       1.918   6.462  21.137  0.00  0.00    +0.000 HD
ENDROOT
BRANCH   6  10
ATOM     10  C   UNL     1       0.966   8.836  20.505  0.00  0.00    +0.000 A 
ATOM     11  C   UNL     1       1.116   8.784  21.841  0.00  0.00    +0.000 A 
ATOM     12  C   UNL     1       0.433   9.718  22.762  0.00  0.00    +0.000 A 
ATOM     13  O   UNL     1       0.583   9.612  23.968  0.00  0.00    +0.000 OA
ATOM     14  N   UNL     1      -0.328  10.690  22.190  0.00  0.00    +0.000 N 
ATOM     15  C   UNL     1      -0.538  10.801  20.809  0.00  0.00    +0.000 A 
ATOM     16  C   UNL     1      -1.353  11.829  20.338  0.00  0.00    +0.000 A 
ATOM     17  C   UNL     1      -1.591  11.954  18.967  0.00  0.00    +0.000 A 
ATOM     18  C   UNL     1      -1.022  11.041  18.085  0.00  0.00    +0.000 A 
ATOM     19  C   UNL     1      -0.213  10.010  18.569  0.00  0.00    +0.000 A 
ATOM     20  C   UNL     1       0.065   9.879  19.938  0.00  0.00    +0.000 A 
ATOM     21  H   UNL     1      -0.760  11.344  22.828  0.00  0.00    +0.000 HD
ENDBRANCH   6  10
BRANCH   1  25
ATOM     22  C   UNL     1       5.846   3.730  13.389  0.00  0.00    +0.000 C 
ATOM     23  C   UNL     1       5.723   4.289  14.762  0.00  0.00    +0.000 A 
ATOM     24  C   UNL     1       4.718   4.109  15.691  0.00  0.00    +0.000 A 
ATOM     25  C   UNL     1       5.073   4.827  16.857  0.00  0.00    +0.000 A 
ATOM     26  C   UNL     1       6.289   5.449  16.619  0.00  0.00    +0.000 A 
ATOM     27  C   UNL     1       7.101   6.330  17.506  0.00  0.00    +0.000 C 
ATOM     28  N   UNL     1       6.674   5.110  15.337  0.00  0.00    +0.000 N 
ATOM     29  C   UNL     1       7.892   5.531  14.673  0.00  0.00    +0.000 C 
ENDBRANCH   1  25
TORSDOF 2
ENDMDL
MODEL 2
REMARK VINA RESULT:      -8.5      1.567      1.750
REMARK  Name = 
REMARK  5 active torsions:
REMARK  status: ('A' for Active; 'I' for Inactive)
REMARK    1  A    between atoms: C_1  and  C_2
REMARK    2  A    between atoms: C_4  and  C_5
REMARK    3  A    between atoms: C_10  and  C_12
REMARK    4  A    between atoms: C_24  and  C_25
REMARK    5  A    between atoms: N_26  and  C_27
REMARK                            x       y       z     vdW  Elec       q    Type
REMARK                         _______ _______ _______ _____ _____    ______ ____
ROOT
ATOM      1  C   UNL     1       4.027   5.623  17.744  0.00  0.00    +0.000 A 
ATOM      2  C   UNL     1       3.710   4.775  18.787  0.00  0.00    +0.000 A 
ATOM      3  S   UNL     1       2.671   5.579  19.893  0.00  0.00    +0.000 S 
ATOM      4  C   UNL     1       2.694   6.945  18.873  0.00  0.00    +0.000 A 
ATOM      5  N   UNL     1       1.919   7.983  19.304  0.00  0.00    +0.000 N 
ATOM      6  C   UNL     1       1.613   9.033  18.469  0.00  0.00    +0.000 C 
ATOM      7  O   UNL     1       1.953   9.103  17.290  0.00  0.00    +0.000 OA
ATOM      8  N   UNL     1       3.433   6.863  17.804  0.00  0.00    +0.000 NA
ATOM      9  H   UNL     1       1.528   7.879  20.224  0.00  0.00    +0.000 HD
ENDROOT
BRANCH   6  10
ATOM     10  C   UNL     1       0.754  10.119  19.072  0.00  0.00    +0.000 A 
ATOM     11  C   UNL     1       1.273  10.898  20.039  0.00  0.00    +0.000 A 
ATOM     12  C   UNL     1       0.557  12.066  20.598  0.00  0.00    +0.000 A 
ATOM     13  O   UNL     1       1.060  12.725  21.493  0.00  0.00    +0.000 OA
ATOM     14  N   UNL     1      -0.651  12.362  20.045  0.00  0.00    +0.000 N 
ATOM     15  C   UNL     1      -1.257  11.592  19.043  0.00  0.00    +0.000 A 
ATOM     16  C   UNL     1      -2.506  11.983  18.564  0.00  0.00    +0.000 A 
ATOM     17  C   UNL     1      -3.138  11.226  17.575  0.00  0.00    +0.000 A 
ATOM     18  C   UNL     1      -2.521  10.079  17.087  0.00  0.00    +0.000 A 
ATOM     19  C   UNL     1      -1.272   9.693  17.580  0.00  0.00    +0.000 A 
ATOM     20  C   UNL     1      -0.602  10.451  18.552  0.00  0.00    +0.000 A 
ATOM     21  H   UNL     1      -1.114  13.183  20.410  0.00  0.00    +0.000 HD
ENDBRANCH   6  10
BRANCH   1  25
ATOM     22  C   UNL     1       5.847   3.650  13.439  0.00  0.00    +0.000 C 
ATOM     23  C   UNL     1       5.675   4.420  14.700  0.00  0.00    +0.000 A 
ATOM     24  C   UNL     1       4.582   4.485  15.541  0.00  0.00    +0.000 A 
ATOM     25  C   UNL     1       4.919   5.333  16.622  0.00  0.00    +0.000 A 
ATOM     26  C   UNL     1       6.213   5.786  16.420  0.00  0.00    +0.000 A 
ATOM     27  C   UNL     1       7.044   6.704  17.250  0.00  0.00    +0.000 C 
ATOM     28  N   UNL     1       6.662   5.220  15.243  0.00  0.00    +0.000 N 
ATOM     29  C   UNL     1       7.971   5.410  14.651  0.00  0.00    +0.000 C 
ENDBRANCH   1  25
TORSDOF 2
ENDMDL
MODEL 3
REMARK VINA RESULT:      -8.5      1.716      2.038
REMARK  Name = 
REMARK  5 active torsions:
REMARK  status: ('A' for Active; 'I' for Inactive)
REMARK    1  A    between atoms: C_1  and  C_2
REMARK    2  A    between atoms: C_4  and  C_5
REMARK    3  A    between atoms: C_10  and  C_12
REMARK    4  A    between atoms: C_24  and  C_25
REMARK    5  A    between atoms: N_26  and  C_27
REMARK                            x       y       z     vdW  Elec       q    Type
REMARK                         _______ _______ _______ _____ _____    ______ ____
ROOT
ATOM      1  C   UNL     1       3.434   5.618  18.953  0.00  0.00    +0.000 A 
ATOM      2  C   UNL     1       2.864   4.810  19.919  0.00  0.00    +0.000 A 
ATOM      3  S   UNL     1       1.733   5.717  20.839  0.00  0.00    +0.000 S 
ATOM      4  C   UNL     1       2.060   7.068  19.852  0.00  0.00    +0.000 A 
ATOM      5  N   UNL     1       1.324   8.178  20.156  0.00  0.00    +0.000 N 
ATOM      6  C   UNL     1       1.268   9.247  19.291  0.00  0.00    +0.000 C 
ATOM      7  O   UNL     1       1.809   9.278  18.189  0.00  0.00    +0.000 OA
ATOM      8  N   UNL     1       2.959   6.909  18.924  0.00  0.00    +0.000 NA
ATOM      9  H   UNL     1       0.775   8.117  20.994  0.00  0.00    +0.000 HD
ENDROOT
BRANCH   6  10
ATOM     10  C   UNL     1       0.426  10.414  19.750  0.00  0.00    +0.000 A 
ATOM     11  C   UNL     1       0.952  11.296  20.621  0.00  0.00    +0.000 A 
ATOM     12  C   UNL     1       0.255  12.536  21.027  0.00  0.00    +0.000 A 
ATOM     13  O   UNL     1       0.765  13.289  21.840  0.00  0.00    +0.000 OA
ATOM     14  N   UNL     1      -0.943  12.784  20.432  0.00  0.00    +0.000 N 
ATOM     15  C   UNL     1      -1.556  11.909  19.525  0.00  0.00    +0.000 A 
ATOM     16  C   UNL     1      -2.795  12.262  18.990  0.00  0.00    +0.000 A 
ATOM     17  C   UNL     1      -3.435  11.402  18.095  0.00  0.00    +0.000 A 
ATOM     18  C   UNL     1      -2.836  10.193  17.755  0.00  0.00    +0.000 A 
ATOM     19  C   UNL     1      -1.598   9.847  18.303  0.00  0.00    +0.000 A 
ATOM     20  C   UNL     1      -0.920  10.705  19.182  0.00  0.00    +0.000 A 
ATOM     21  H   UNL     1      -1.392  13.651  20.690  0.00  0.00    +0.000 HD
ENDBRANCH   6  10
BRANCH   1  25
ATOM     22  C   UNL     1       5.703   4.048  14.696  0.00  0.00    +0.000 C 
ATOM     23  C   UNL     1       5.425   4.531  16.075  0.00  0.00    +0.000 A 
ATOM     24  C   UNL     1       4.216   4.855  16.660  0.00  0.00    +0.000 A 
ATOM     25  C   UNL     1       4.472   5.237  17.997  0.00  0.00    +0.000 A 
ATOM     26  C   UNL     1       5.840   5.153  18.209  0.00  0.00    +0.000 A 
ATOM     27  C   UNL     1       6.636   5.451  19.434  0.00  0.00    +0.000 C 
ATOM     28  N   UNL     1       6.408   4.721  17.027  0.00  0.00    +0.000 N 
ATOM     29  C   UNL     1       7.818   4.482  16.797  0.00  0.00    +0.000 C 
ENDBRANCH   1  25
TORSDOF 2
ENDMDL
MODEL 4
REMARK VINA RESULT:      -8.4      2.841      8.625
REMARK  Name = 
REMARK  5 active torsions:
REMARK  status: ('A' for Active; 'I' for Inactive)
REMARK    1  A    between atoms: C_1  and  C_2
REMARK    2  A    between atoms: C_4  and  C_5
REMARK    3  A    between atoms: C_10  and  C_12
REMARK    4  A    between atoms: C_24  and  C_25
REMARK    5  A    between atoms: N_26  and  C_27
REMARK                            x       y       z     vdW  Elec       q    Type
REMARK                         _______ _______ _______ _____ _____    ______ ____
ROOT
ATOM      1  C   UNL     1       1.006  11.007  20.199  0.00  0.00    +0.000 A 
ATOM      2  C   UNL     1       0.601  10.599  21.455  0.00  0.00    +0.000 A 
ATOM      3  S   UNL     1       0.753   8.893  21.588  0.00  0.00    +0.000 S 
ATOM      4  C   UNL     1       1.386   8.859  20.005  0.00  0.00    +0.000 A 
ATOM      5  N   UNL     1       1.750   7.616  19.571  0.00  0.00    +0.000 N 
ATOM      6  C   UNL     1       2.522   7.458  18.444  0.00  0.00    +0.000 C 
ATOM      7  O   UNL     1       2.980   8.385  17.781  0.00  0.00    +0.000 OA
ATOM      8  N   UNL     1       1.459   9.999  19.380  0.00  0.00    +0.000 NA
ATOM      9  H   UNL     1       1.490   6.854  20.172  0.00  0.00    +0.000 HD
ENDROOT
BRANCH   6  10
ATOM     10  C   UNL     1       2.847   6.031  18.068  0.00  0.00    +0.000 A 
ATOM     11  C   UNL     1       1.904   5.084  18.229  0.00  0.00    +0.000 A 
ATOM     12  C   UNL     1       2.083   3.689  17.771  0.00  0.00    +0.000 A 
ATOM     13  O   UNL     1       1.208   2.862  17.965  0.00  0.00    +0.000 OA
ATOM     14  N   UNL     1       3.243   3.406  17.118  0.00  0.00    +0.000 N 
ATOM     15  C   UNL     1       4.272   4.337  16.922  0.00  0.00    +0.000 A 
ATOM     16  C   UNL     1       5.423   3.928  16.251  0.00  0.00    +0.000 A 
ATOM     17  C   UNL     1       6.470   4.832  16.055  0.00  0.00    +0.000 A 
ATOM     18  C   UNL     1       6.359   6.130  16.544  0.00  0.00    +0.000 A 
ATOM     19  C   UNL     1       5.203   6.526  17.221  0.00  0.00    +0.000 A 
ATOM     20  C   UNL     1       4.125   5.648  17.406  0.00  0.00    +0.000 A 
ATOM     21  H   UNL     1       3.338   2.459  16.778  0.00  0.00    +0.000 HD
ENDBRANCH   6  10
BRANCH   1  25
ATOM     22  C   UNL     1       2.567  15.454  18.320  0.00  0.00    +0.000 C 
ATOM     23  C   UNL     1       1.743  14.331  18.843  0.00  0.00    +0.000 A 
ATOM     24  C   UNL     1       2.137  13.064  19.226  0.00  0.00    +0.000 A 
ATOM     25  C   UNL     1       0.988  12.373  19.676  0.00  0.00    +0.000 A 
ATOM     26  C   UNL     1      -0.098  13.225  19.551  0.00  0.00    +0.000 A 
ATOM     27  C   UNL     1      -1.535  12.994  19.873  0.00  0.00    +0.000 C 
ATOM     28  N   UNL     1       0.379  14.416  19.041  0.00  0.00    +0.000 N 
ATOM     29  C   UNL     1      -0.411  15.598  18.759  0.00  0.00    +0.000 C 
ENDBRANCH   1  25
TORSDOF 2
ENDMDL
MODEL 5
REMARK VINA RESULT:      -8.3      2.446      8.884
REMARK  Name = 
REMARK  5 active torsions:
REMARK  status: ('A' for Active; 'I' for Inactive)
REMARK    1  A    between atoms: C_1  and  C_2
REMARK    2  A    between atoms: C_4  and  C_5
REMARK    3  A    between atoms: C_10  and  C_12
REMARK    4  A    between atoms: C_24  and  C_25
REMARK    5  A    between atoms: N_26  and  C_27
REMARK                            x       y       z     vdW  Elec       q    Type
REMARK                         _______ _______ _______ _____ _____    ______ ____
ROOT
ATOM      1  C   UNL     1      -0.257  10.162  20.555  0.00  0.00    +0.000 A 
ATOM      2  C   UNL     1       0.242  10.045  21.838  0.00  0.00    +0.000 A 
ATOM      3  S   UNL     1       1.517   8.894  21.862  0.00  0.00    +0.000 S 
ATOM      4  C   UNL     1       1.327   8.697  20.179  0.00  0.00    +0.000 A 
ATOM      5  N   UNL     1       2.211   7.824  19.611  0.00  0.00    +0.000 N 
ATOM      6  C   UNL     1       2.371   7.767  18.246  0.00  0.00    +0.000 C 
ATOM      7  O   UNL     1       1.796   8.503  17.448  0.00  0.00    +0.000 OA
ATOM      8  N   UNL     1       0.379   9.387  19.613  0.00  0.00    +0.000 NA
ATOM      9  H   UNL     1       2.782   7.305  20.255  0.00  0.00    +0.000 HD
ENDROOT
BRANCH   6  10
ATOM     10  C   UNL     1       3.374   6.753  17.748  0.00  0.00    +0.000 A 
ATOM     11  C   UNL     1       4.604   7.171  17.394  0.00  0.00    +0.000 A 
ATOM     12  C   UNL     1       5.690   6.240  17.019  0.00  0.00    +0.000 A 
ATOM     13  O   UNL     1       6.780   6.672  16.680  0.00  0.00    +0.000 OA
ATOM     14  N   UNL     1       5.409   4.911  17.099  0.00  0.00    +0.000 N 
ATOM     15  C   UNL     1       4.151   4.403  17.450  0.00  0.00    +0.000 A 
ATOM     16  C   UNL     1       3.975   3.020  17.483  0.00  0.00    +0.000 A 
ATOM     17  C   UNL     1       2.728   2.487  17.816  0.00  0.00    +0.000 A 
ATOM     18  C   UNL     1       1.667   3.343  18.098  0.00  0.00    +0.000 A 
ATOM     19  C   UNL     1       1.853   4.726  18.055  0.00  0.00    +0.000 A 
ATOM     20  C   UNL     1       3.103   5.288  17.752  0.00  0.00    +0.000 A 
ATOM     21  H   UNL     1       6.169   4.285  16.875  0.00  0.00    +0.000 HD
ENDBRANCH   6  10
BRANCH   1  25
ATOM     22  C   UNL     1      -3.842  13.751  20.545  0.00  0.00    +0.000 C 
ATOM     23  C   UNL     1      -2.950  12.619  20.180  0.00  0.00    +0.000 A 
ATOM     24  C   UNL     1      -1.883  12.087  20.877  0.00  0.00    +0.000 A 
ATOM     25  C   UNL     1      -1.373  11.003  20.126  0.00  0.00    +0.000 A 
ATOM     26  C   UNL     1      -2.129  10.894  18.969  0.00  0.00    +0.000 A 
ATOM     27  C   UNL     1      -2.009   9.932  17.837  0.00  0.00    +0.000 C 
ATOM     28  N   UNL     1      -3.088  11.886  19.016  0.00  0.00    +0.000 N 
ATOM     29  C   UNL     1      -4.105  12.136  18.015  0.00  0.00    +0.000 C 
ENDBRANCH   1  25
TORSDOF 2
ENDMDL
MODEL 6
REMARK VINA RESULT:      -8.3      2.894      8.672
REMARK  Name = 
REMARK  5 active torsions:
REMARK  status: ('A' for Active; 'I' for Inactive)
REMARK    1  A    between atoms: C_1  and  C_2
REMARK    2  A    between atoms: C_4  and  C_5
REMARK    3  A    between atoms: C_10  and  C_12
REMARK    4  A    between atoms: C_24  and  C_25
REMARK    5  A    between atoms: N_26  and  C_27
REMARK                            x       y       z     vdW  Elec       q    Type
REMARK                         _______ _______ _______ _____ _____    ______ ____
ROOT
ATOM      1  C   UNL     1      -0.065   9.898  20.656  0.00  0.00    +0.000 A 
ATOM      2  C   UNL     1       0.397  10.117  21.940  0.00  0.00    +0.000 A 
ATOM      3  S   UNL     1       1.617   8.970  22.321  0.00  0.00    +0.000 S 
ATOM      4  C   UNL     1       1.459   8.328  20.750  0.00  0.00    +0.000 A 
ATOM      5  N   UNL     1       2.316   7.300  20.473  0.00  0.00    +0.000 N 
ATOM      6  C   UNL     1       2.505   6.866  19.181  0.00  0.00    +0.000 C 
ATOM      7  O   UNL     1       1.982   7.376  18.194  0.00  0.00    +0.000 OA
ATOM      8  N   UNL     1       0.557   8.871  19.984  0.00  0.00    +0.000 NA
ATOM      9  H   UNL     1       2.846   6.957  21.253  0.00  0.00    +0.000 HD
ENDROOT
BRANCH   6  10
ATOM     10  C   UNL     1       3.472   5.718  19.014  0.00  0.00    +0.000 A 
ATOM     11  C   UNL     1       4.790   5.948  19.159  0.00  0.00    +0.000 A 
ATOM     12  C   UNL     1       5.800   4.868  19.142  0.00  0.00    +0.000 A 
ATOM     13  O   UNL     1       6.986   5.133  19.251  0.00  0.00    +0.000 OA
ATOM     14  N   UNL     1       5.330   3.596  19.025  0.00  0.00    +0.000 N 
ATOM     15  C   UNL     1       3.975   3.281  18.861  0.00  0.00    +0.000 A 
ATOM     16  C   UNL     1       3.612   1.940  18.735  0.00  0.00    +0.000 A 
ATOM     17  C   UNL     1       2.269   1.599  18.556  0.00  0.00    +0.000 A 
ATOM     18  C   UNL     1       1.307   2.602  18.492  0.00  0.00    +0.000 A 
ATOM     19  C   UNL     1       1.683   3.942  18.612  0.00  0.00    +0.000 A 
ATOM     20  C   UNL     1       3.021   4.311  18.821  0.00  0.00    +0.000 A 
ATOM     21  H   UNL     1       6.026   2.865  19.051  0.00  0.00    +0.000 HD
ENDBRANCH   6  10
BRANCH   1  25
ATOM     22  C   UNL     1      -3.253  11.487  17.045  0.00  0.00    +0.000 C 
ATOM     23  C   UNL     1      -2.522  11.298  18.326  0.00  0.00    +0.000 A 
ATOM     24  C   UNL     1      -1.519  10.401  18.634  0.00  0.00    +0.000 A 
ATOM     25  C   UNL     1      -1.131  10.630  19.975  0.00  0.00    +0.000 A 
ATOM     26  C   UNL     1      -1.914  11.660  20.473  0.00  0.00    +0.000 A 
ATOM     27  C   UNL     1      -1.921  12.285  21.827  0.00  0.00    +0.000 C 
ATOM     28  N   UNL     1      -2.758  12.058  19.456  0.00  0.00    +0.000 N 
ATOM     29  C   UNL     1      -3.743  13.117  19.531  0.00  0.00    +0.000 C 
ENDBRANCH   1  25
TORSDOF 2
ENDMDL
MODEL 7
REMARK VINA RESULT:      -8.2      2.896      8.321
REMARK  Name = 
REMARK  5 active torsions:
REMARK  status: ('A' for Active; 'I' for Inactive)
REMARK    1  A    between atoms: C_1  and  C_2
REMARK    2  A    between atoms: C_4  and  C_5
REMARK    3  A    between atoms: C_10  and  C_12
REMARK    4  A    between atoms: C_24  and  C_25
REMARK    5  A    between atoms: N_26  and  C_27
REMARK                            x       y       z     vdW  Elec       q    Type
REMARK                         _______ _______ _______ _____ _____    ______ ____
ROOT
ATOM      1  C   UNL     1       0.552  10.901  20.934  0.00  0.00    +0.000 A 
ATOM      2  C   UNL     1      -0.045  10.770  22.173  0.00  0.00    +0.000 A 
ATOM      3  S   UNL     1      -0.019   9.123  22.658  0.00  0.00    +0.000 S 
ATOM      4  C   UNL     1       0.819   8.746  21.222  0.00  0.00    +0.000 A 
ATOM      5  N   UNL     1       1.159   7.429  21.097  0.00  0.00    +0.000 N 
ATOM      6  C   UNL     1       2.066   7.020  20.147  0.00  0.00    +0.000 C 
ATOM      7  O   UNL     1       2.667   7.777  19.389  0.00  0.00    +0.000 OA
ATOM      8  N   UNL     1       1.047   9.733  20.403  0.00  0.00    +0.000 NA
ATOM      9  H   UNL     1       0.774   6.815  21.792  0.00  0.00    +0.000 HD
ENDROOT
BRANCH   6  10
ATOM     10  C   UNL     1       2.348   5.536  20.110  0.00  0.00    +0.000 A 
ATOM     11  C   UNL     1       1.829   4.749  21.070  0.00  0.00    +0.000 A 
ATOM     12  C   UNL     1       1.942   3.275  21.047  0.00  0.00    +0.000 A 
ATOM     13  O   UNL     1       1.476   2.608  21.956  0.00  0.00    +0.000 OA
ATOM     14  N   UNL     1       2.558   2.728  19.964  0.00  0.00    +0.000 N 
ATOM     15  C   UNL     1       3.130   3.484  18.931  0.00  0.00    +0.000 A 
ATOM     16  C   UNL     1       3.750   2.813  17.878  0.00  0.00    +0.000 A 
ATOM     17  C   UNL     1       4.340   3.542  16.843  0.00  0.00    +0.000 A 
ATOM     18  C   UNL     1       4.316   4.932  16.880  0.00  0.00    +0.000 A 
ATOM     19  C   UNL     1       3.698   5.593  17.944  0.00  0.00    +0.000 A 
ATOM     20  C   UNL     1       3.072   4.886  18.981  0.00  0.00    +0.000 A 
ATOM     21  H   UNL     1       2.597   1.719  19.941  0.00  0.00    +0.000 HD
ENDBRANCH   6  10
BRANCH   1  25
ATOM     22  C   UNL     1       2.601  14.660  18.212  0.00  0.00    +0.000 C 
ATOM     23  C   UNL     1       1.659  13.777  18.951  0.00  0.00    +0.000 A 
ATOM     24  C   UNL     1       1.901  12.566  19.568  0.00  0.00    +0.000 A 
ATOM     25  C   UNL     1       0.690  12.132  20.157  0.00  0.00    +0.000 A 
ATOM     26  C   UNL     1      -0.281  13.081  19.880  0.00  0.00    +0.000 A 
ATOM     27  C   UNL     1      -1.724  13.110  20.257  0.00  0.00    +0.000 C 
ATOM     28  N   UNL     1       0.325  14.080  19.144  0.00  0.00    +0.000 N 
ATOM     29  C   UNL     1      -0.316  15.280  18.647  0.00  0.00    +0.000 C 
ENDBRANCH   1  25
TORSDOF 2
ENDMDL
MODEL 8
REMARK VINA RESULT:      -8.2      3.073      8.939
REMARK  Name = 
REMARK  5 active torsions:
REMARK  status: ('A' for Active; 'I' for Inactive)
REMARK    1  A    between atoms: C_1  and  C_2
REMARK    2  A    between atoms: C_4  and  C_5
REMARK    3  A    between atoms: C_10  and  C_12
REMARK    4  A    between atoms: C_24  and  C_25
REMARK    5  A    between atoms: N_26  and  C_27
REMARK                            x       y       z     vdW  Elec       q    Type
REMARK                         _______ _______ _______ _____ _____    ______ ____
ROOT
ATOM      1  C   UNL     1       0.665  10.671  19.855  0.00  0.00    +0.000 A 
ATOM      2  C   UNL     1       0.810  11.134  18.561  0.00  0.00    +0.000 A 
ATOM      3  S   UNL     1       1.754  10.025  17.650  0.00  0.00    +0.000 S 
ATOM      4  C   UNL     1       1.839   9.019  19.024  0.00  0.00    +0.000 A 
ATOM      5  N   UNL     1       2.519   7.851  18.825  0.00  0.00    +0.000 N 
ATOM      6  C   UNL     1       2.440   6.822  19.735  0.00  0.00    +0.000 C 
ATOM      7  O   UNL     1       1.737   6.839  20.742  0.00  0.00    +0.000 OA
ATOM      8  N   UNL     1       1.256   9.453  20.104  0.00  0.00    +0.000 NA
ATOM      9  H   UNL     1       2.997   7.773  17.945  0.00  0.00    +0.000 HD
ENDROOT
BRANCH   6  10
ATOM     10  C   UNL     1       3.247   5.590  19.399  0.00  0.00    +0.000 A 
ATOM     11  C   UNL     1       4.590   5.676  19.375  0.00  0.00    +0.000 A 
ATOM     12  C   UNL     1       5.466   4.500  19.185  0.00  0.00    +0.000 A 
ATOM     13  O   UNL     1       6.677   4.636  19.144  0.00  0.00    +0.000 OA
ATOM     14  N   UNL     1       4.850   3.291  19.088  0.00  0.00    +0.000 N 
ATOM     15  C   UNL     1       3.458   3.125  19.096  0.00  0.00    +0.000 A 
ATOM     16  C   UNL     1       2.939   1.837  18.974  0.00  0.00    +0.000 A 
ATOM     17  C   UNL     1       1.555   1.644  18.965  0.00  0.00    +0.000 A 
ATOM     18  C   UNL     1       0.707   2.742  19.065  0.00  0.00    +0.000 A 
ATOM     19  C   UNL     1       1.239   4.029  19.179  0.00  0.00    +0.000 A 
ATOM     20  C   UNL     1       2.624   4.248  19.220  0.00  0.00    +0.000 A 
ATOM     21  H   UNL     1       5.460   2.491  18.995  0.00  0.00    +0.000 HD
ENDBRANCH   6  10
BRANCH   1  25
ATOM     22  C   UNL     1      -2.623  11.607  23.603  0.00  0.00    +0.000 C 
ATOM     23  C   UNL     1      -1.522  11.704  22.608  0.00  0.00    +0.000 A 
ATOM     24  C   UNL     1      -1.093  10.769  21.687  0.00  0.00    +0.000 A 
ATOM     25  C   UNL     1      -0.030  11.343  20.951  0.00  0.00    +0.000 A 
ATOM     26  C   UNL     1       0.184  12.622  21.442  0.00  0.00    +0.000 A 
ATOM     27  C   UNL     1       1.185  13.648  21.030  0.00  0.00    +0.000 C 
ATOM     28  N   UNL     1      -0.733  12.827  22.453  0.00  0.00    +0.000 N 
ATOM     29  C   UNL     1      -0.877  14.036  23.240  0.00  0.00    +0.000 C 
ENDBRANCH   1  25
TORSDOF 2
ENDMDL
MODEL 9
REMARK VINA RESULT:      -8.2      2.877      8.483
REMARK  Name = 
REMARK  5 active torsions:
REMARK  status: ('A' for Active; 'I' for Inactive)
REMARK    1  A    between atoms: C_1  and  C_2
REMARK    2  A    between atoms: C_4  and  C_5
REMARK    3  A    between atoms: C_10  and  C_12
REMARK    4  A    between atoms: C_24  and  C_25
REMARK    5  A    between atoms: N_26  and  C_27
REMARK                            x       y       z     vdW  Elec       q    Type
REMARK                         _______ _______ _______ _____ _____    ______ ____
ROOT
ATOM      1  C   UNL     1       1.169  10.471  19.971  0.00  0.00    +0.000 A 
ATOM      2  C   UNL     1       0.727  10.013  21.198  0.00  0.00    +0.000 A 
ATOM      3  S   UNL     1       0.962   8.315  21.302  0.00  0.00    +0.000 S 
ATOM      4  C   UNL     1       1.667   8.350  19.750  0.00  0.00    +0.000 A 
ATOM      5  N   UNL     1       2.115   7.138  19.307  0.00  0.00    +0.000 N 
ATOM      6  C   UNL     1       2.945   7.046  18.214  0.00  0.00    +0.000 C 
ATOM      7  O   UNL     1       3.385   8.011  17.593  0.00  0.00    +0.000 OA
ATOM      8  N   UNL     1       1.710   9.507  19.153  0.00  0.00    +0.000 NA
ATOM      9  H   UNL     1       1.868   6.350  19.879  0.00  0.00    +0.000 HD
ENDROOT
BRANCH   6  10
ATOM     10  C   UNL     1       3.361   5.647  17.825  0.00  0.00    +0.000 A 
ATOM     11  C   UNL     1       4.436   5.482  17.033  0.00  0.00    +0.000 A 
ATOM     12  C   UNL     1       4.995   4.152  16.705  0.00  0.00    +0.000 A 
ATOM     13  O   UNL     1       5.956   4.056  15.961  0.00  0.00    +0.000 OA
ATOM     14  N   UNL     1       4.397   3.079  17.291  0.00  0.00    +0.000 N 
ATOM     15  C   UNL     1       3.269   3.173  18.118  0.00  0.00    +0.000 A 
ATOM     16  C   UNL     1       2.733   2.002  18.650  0.00  0.00    +0.000 A 
ATOM     17  C   UNL     1       1.601   2.065  19.466  0.00  0.00    +0.000 A 
ATOM     18  C   UNL     1       1.010   3.297  19.728  0.00  0.00    +0.000 A 
ATOM     19  C   UNL     1       1.552   4.463  19.183  0.00  0.00    +0.000 A 
ATOM     20  C   UNL     1       2.705   4.431  18.385  0.00  0.00    +0.000 A 
ATOM     21  H   UNL     1       4.810   2.180  17.088  0.00  0.00    +0.000 HD
ENDBRANCH   6  10
BRANCH   1  25
ATOM     22  C   UNL     1       2.563  14.970  18.085  0.00  0.00    +0.000 C 
ATOM     23  C   UNL     1       1.785  13.828  18.636  0.00  0.00    +0.000 A 
ATOM     24  C   UNL     1       2.215  12.559  18.969  0.00  0.00    +0.000 A 
ATOM     25  C   UNL     1       1.104  11.846  19.478  0.00  0.00    +0.000 A 
ATOM     26  C   UNL     1       0.004  12.688  19.437  0.00  0.00    +0.000 A 
ATOM     27  C   UNL     1      -1.408  12.435  19.845  0.00  0.00    +0.000 C 
ATOM     28  N   UNL     1       0.435  13.894  18.922  0.00  0.00    +0.000 N 
ATOM     29  C   UNL     1      -0.382  15.073  18.713  0.00  0.00    +0.000 C 
ENDBRANCH   1  25
TORSDOF 2
ENDMDL
