MODEL 1
REMARK VINA RESULT:      -9.1      0.000      0.000
REMARK  Name = 
REMARK  4 active torsions:
REMARK  status: ('A' for Active; 'I' for Inactive)
REMARK    1  A    between atoms: C_1  and  C_2
REMARK    2  A    between atoms: C_3  and  C_4
REMARK    3  A    between atoms: C_8  and  C_9
REMARK    4  A    between atoms: N_15  and  C_16
REMARK                            x       y       z     vdW  Elec       q    Type
REMARK                         _______ _______ _______ _____ _____    ______ ____
ROOT
ATOM      1  C   UNL     1       2.731   6.214  19.365  0.00  0.00    +0.000 A 
ATOM      2  C   UNL     1       3.559   6.666  18.334  0.00  0.00    +0.000 A 
ATOM      3  C   UNL     1       4.082   5.740  17.454  0.00  0.00    +0.000 A 
ATOM      4  C   UNL     1       3.851   4.376  17.550  0.00  0.00    +0.000 A 
ATOM      5  C   UNL     1       3.091   3.878  18.604  0.00  0.00    +0.000 A 
ATOM      6  C   UNL     1       2.537   4.819  19.514  0.00  0.00    +0.000 A 
ATOM      7  C   UNL     1       4.512   3.688  16.393  0.00  0.00    +0.000 C 
ATOM      8  N   UNL     1       5.153   4.779  15.665  0.00  0.00    +0.000 N 
ATOM      9  C   UNL     1       4.915   6.008  16.281  0.00  0.00    +0.000 C 
ATOM     10  O   UNL     1       5.255   7.140  15.990  0.00  0.00    +0.000 OA
ENDROOT
BRANCH   8  11
ATOM     11  C   UNL     1       5.899   4.580  14.471  0.00  0.00    +0.000 A 
ATOM     12  C   UNL     1       5.469   3.684  13.477  0.00  0.00    +0.000 A 
ATOM     13  C   UNL     1       6.202   3.482  12.303  0.00  0.00    +0.000 A 
ATOM     14  C   UNL     1       7.391   4.171  12.102  0.00  0.00    +0.000 A 
ATOM     15  C   UNL     1       7.826   5.058  13.076  0.00  0.00    +0.000 A 
ATOM     16  F   UNL     1       8.976   5.720  12.891  0.00  0.00    +0.000 F 
ATOM     17  C   UNL     1       7.095   5.273  14.245  0.00  0.00    +0.000 A 
ENDBRANCH   8  11
BRANCH   1  20
ATOM     18  C   UNL     1       0.925   8.869  21.964  0.00  0.00    +0.000 C 
ATOM     19  C   UNL     1       1.475   8.183  20.811  0.00  0.00    +0.000 C 
ATOM     20  C   UNL     1       2.079   7.143  20.287  0.00  0.00    +0.000 C 
ATOM     21  C   UNL     1       1.557   8.468  19.477  0.00  0.00    +0.000 C 
ENDBRANCH   1  20
BRANCH   5  22
ATOM     22  C   UNL     1       2.843   2.403  18.793  0.00  0.00    +0.000 C 
ATOM     23  F   UNL     1       3.983   1.684  18.974  0.00  0.00    +0.000 F 
ATOM     24  F   UNL     1       2.064   2.140  19.877  0.00  0.00    +0.000 F 
ATOM     25  F   UNL     1       2.217   1.836  17.728  0.00  0.00    +0.000 F 
ENDBRANCH   5  22
TORSDOF 3
ENDMDL
MODEL 2
REMARK VINA RESULT:      -9.0      0.979      1.565
REMARK  Name = 
REMARK  4 active torsions:
REMARK  status: ('A' for Active; 'I' for Inactive)
REMARK    1  A    between atoms: C_1  and  C_2
REMARK    2  A    between atoms: C_3  and  C_4
REMARK    3  A    between atoms: C_8  and  C_9
REMARK    4  A    between atoms: N_15  and  C_16
REMARK                            x       y       z     vdW  Elec       q    Type
REMARK                         _______ _______ _______ _____ _____    ______ ____
ROOT
ATOM      1  C   UNL     1       2.720   6.225  19.380  0.00  0.00    +0.000 A 
ATOM      2  C   UNL     1       3.522   6.657  18.321  0.00  0.00    +0.000 A 
ATOM      3  C   UNL     1       4.047   5.712  17.462  0.00  0.00    +0.000 A 
ATOM      4  C   UNL     1       3.841   4.348  17.606  0.00  0.00    +0.000 A 
ATOM      5  C   UNL     1       3.107   3.872  18.690  0.00  0.00    +0.000 A 
ATOM      6  C   UNL     1       2.552   4.833  19.578  0.00  0.00    +0.000 A 
ATOM      7  C   UNL     1       4.495   3.633  16.461  0.00  0.00    +0.000 C 
ATOM      8  N   UNL     1       5.103   4.710  15.687  0.00  0.00    +0.000 N 
ATOM      9  C   UNL     1       4.854   5.955  16.266  0.00  0.00    +0.000 C 
ATOM     10  O   UNL     1       5.170   7.082  15.933  0.00  0.00    +0.000 OA
ENDROOT
BRANCH   8  11
ATOM     11  C   UNL     1       5.833   4.486  14.487  0.00  0.00    +0.000 A 
ATOM     12  C   UNL     1       7.054   5.134  14.238  0.00  0.00    +0.000 A 
ATOM     13  C   UNL     1       7.773   4.920  13.057  0.00  0.00    +0.000 A 
ATOM     14  C   UNL     1       7.276   4.053  12.092  0.00  0.00    +0.000 A 
ATOM     15  C   UNL     1       6.071   3.408  12.326  0.00  0.00    +0.000 A 
ATOM     16  F   UNL     1       5.583   2.576  11.396  0.00  0.00    +0.000 F 
ATOM     17  C   UNL     1       5.353   3.608  13.506  0.00  0.00    +0.000 A 
ENDBRANCH   8  11
BRANCH   1  20
ATOM     18  C   UNL     1       0.913   8.933  21.923  0.00  0.00    +0.000 C 
ATOM     19  C   UNL     1       1.464   8.223  20.785  0.00  0.00    +0.000 C 
ATOM     20  C   UNL     1       2.067   7.173  20.283  0.00  0.00    +0.000 C 
ATOM     21  C   UNL     1       1.548   8.482  19.446  0.00  0.00    +0.000 C 
ENDBRANCH   1  20
BRANCH   5  22
ATOM     22  C   UNL     1       2.888   2.400  18.931  0.00  0.00    +0.000 C 
ATOM     23  F   UNL     1       2.098   2.143  20.007  0.00  0.00    +0.000 F 
ATOM     24  F   UNL     1       2.291   1.782  17.877  0.00  0.00    +0.000 F 
ATOM     25  F   UNL     1       4.048   1.728  19.159  0.00  0.00    +0.000 F 
ENDBRANCH   5  22
TORSDOF 3
ENDMDL
MODEL 3
REMARK VINA RESULT:      -8.9      2.951      7.761
REMARK  Name = 
REMARK  4 active torsions:
REMARK  status: ('A' for Active; 'I' for Inactive)
REMARK    1  A    between atoms: C_1  and  C_2
REMARK    2  A    between atoms: C_3  and  C_4
REMARK    3  A    between atoms: C_8  and  C_9
REMARK    4  A    between atoms: N_15  and  C_16
REMARK                            x       y       z     vdW  Elec       q    Type
REMARK                         _______ _______ _______ _____ _____    ______ ____
ROOT
ATOM      1  C   UNL     1       3.913   5.066  17.484  0.00  0.00    +0.000 A 
ATOM      2  C   UNL     1       3.436   6.374  17.598  0.00  0.00    +0.000 A 
ATOM      3  C   UNL     1       2.637   6.693  18.679  0.00  0.00    +0.000 A 
ATOM      4  C   UNL     1       2.259   5.776  19.649  0.00  0.00    +0.000 A 
ATOM      5  C   UNL     1       2.655   4.447  19.532  0.00  0.00    +0.000 A 
ATOM      6  C   UNL     1       3.485   4.104  18.430  0.00  0.00    +0.000 A 
ATOM      7  C   UNL     1       1.459   6.483  20.701  0.00  0.00    +0.000 C 
ATOM      8  N   UNL     1       1.399   7.860  20.219  0.00  0.00    +0.000 N 
ATOM      9  C   UNL     1       2.089   8.006  19.015  0.00  0.00    +0.000 C 
ATOM     10  O   UNL     1       2.284   8.975  18.306  0.00  0.00    +0.000 OA
ENDROOT
BRANCH   8  11
ATOM     11  C   UNL     1       0.732   8.899  20.924  0.00  0.00    +0.000 A 
ATOM     12  C   UNL     1       0.619   8.881  22.325  0.00  0.00    +0.000 A 
ATOM     13  C   UNL     1      -0.041   9.898  23.023  0.00  0.00    +0.000 A 
ATOM     14  C   UNL     1      -0.611  10.957  22.327  0.00  0.00    +0.000 A 
ATOM     15  C   UNL     1      -0.506  10.986  20.945  0.00  0.00    +0.000 A 
ATOM     16  F   UNL     1      -1.060  12.001  20.268  0.00  0.00    +0.000 F 
ATOM     17  C   UNL     1       0.159   9.980  20.242  0.00  0.00    +0.000 A 
ENDBRANCH   8  11
BRANCH   1  20
ATOM     18  C   UNL     1       6.508   4.007  14.449  0.00  0.00    +0.000 C 
ATOM     19  C   UNL     1       5.897   4.415  15.699  0.00  0.00    +0.000 C 
ATOM     20  C   UNL     1       4.826   4.674  16.410  0.00  0.00    +0.000 C 
ATOM     21  C   UNL     1       6.376   4.751  16.933  0.00  0.00    +0.000 C 
ENDBRANCH   1  20
BRANCH   5  22
ATOM     22  C   UNL     1       2.239   3.392  20.525  0.00  0.00    +0.000 C 
ATOM     23  F   UNL     1       2.583   3.692  21.806  0.00  0.00    +0.000 F 
ATOM     24  F   UNL     1       0.893   3.193  20.542  0.00  0.00    +0.000 F 
ATOM     25  F   UNL     1       2.800   2.180  20.270  0.00  0.00    +0.000 F 
ENDBRANCH   5  22
TORSDOF 3
ENDMDL
MODEL 4
REMARK VINA RESULT:      -8.9      2.678      7.681
REMARK  Name = 
REMARK  4 active torsions:
REMARK  status: ('A' for Active; 'I' for Inactive)
REMARK    1  A    between atoms: C_1  and  C_2
REMARK    2  A    between atoms: C_3  and  C_4
REMARK    3  A    between atoms: C_8  and  C_9
REMARK    4  A    between atoms: N_15  and  C_16
REMARK                            x       y       z     vdW  Elec       q    Type
REMARK                         _______ _______ _______ _____ _____    ______ ____
ROOT
ATOM      1  C   UNL     1       4.215   5.008  17.023  0.00  0.00    +0.000 A 
ATOM      2  C   UNL     1       3.747   6.313  17.200  0.00  0.00    +0.000 A 
ATOM      3  C   UNL     1       2.953   6.586  18.295  0.00  0.00    +0.000 A 
ATOM      4  C   UNL     1       2.569   5.628  19.222  0.00  0.00    +0.000 A 
ATOM      5  C   UNL     1       2.955   4.302  19.042  0.00  0.00    +0.000 A 
ATOM      6  C   UNL     1       3.782   4.006  17.924  0.00  0.00    +0.000 A 
ATOM      7  C   UNL     1       1.775   6.290  20.307  0.00  0.00    +0.000 C 
ATOM      8  N   UNL     1       1.724   7.689  19.892  0.00  0.00    +0.000 N 
ATOM      9  C   UNL     1       2.414   7.886  18.695  0.00  0.00    +0.000 C 
ATOM     10  O   UNL     1       2.615   8.886  18.031  0.00  0.00    +0.000 OA
ENDROOT
BRANCH   8  11
ATOM     11  C   UNL     1       1.066   8.698  20.646  0.00  0.00    +0.000 A 
ATOM     12  C   UNL     1       0.562   9.860  20.036  0.00  0.00    +0.000 A 
ATOM     13  C   UNL     1      -0.082  10.858  20.774  0.00  0.00    +0.000 A 
ATOM     14  C   UNL     1      -0.229  10.716  22.148  0.00  0.00    +0.000 A 
ATOM     15  C   UNL     1       0.264   9.574  22.762  0.00  0.00    +0.000 A 
ATOM     16  F   UNL     1       0.132   9.435  24.088  0.00  0.00    +0.000 F 
ATOM     17  C   UNL     1       0.899   8.569  22.031  0.00  0.00    +0.000 A 
ENDBRANCH   8  11
BRANCH   1  20
ATOM     18  C   UNL     1       6.799   4.075  13.938  0.00  0.00    +0.000 C 
ATOM     19  C   UNL     1       6.191   4.418  15.209  0.00  0.00    +0.000 C 
ATOM     20  C   UNL     1       5.124   4.662  15.930  0.00  0.00    +0.000 C 
ATOM     21  C   UNL     1       6.671   4.655  16.466  0.00  0.00    +0.000 C 
ENDBRANCH   1  20
BRANCH   5  22
ATOM     22  C   UNL     1       2.533   3.205  19.985  0.00  0.00    +0.000 C 
ATOM     23  F   UNL     1       1.188   3.004  20.011  0.00  0.00    +0.000 F 
ATOM     24  F   UNL     1       3.080   2.002  19.664  0.00  0.00    +0.000 F 
ATOM     25  F   UNL     1       2.890   3.454  21.273  0.00  0.00    +0.000 F 
ENDBRANCH   5  22
TORSDOF 3
ENDMDL
MODEL 5
REMARK VINA RESULT:      -8.9      3.013      7.933
REMARK  Name = 
REMARK  4 active torsions:
REMARK  status: ('A' for Active; 'I' for Inactive)
REMARK    1  A    between atoms: C_1  and  C_2
REMARK    2  A    between atoms: C_3  and  C_4
REMARK    3  A    between atoms: C_8  and  C_9
REMARK    4  A    between atoms: N_15  and  C_16
REMARK                            x       y       z     vdW  Elec       q    Type
REMARK                         _______ _______ _______ _____ _____    ______ ____
ROOT
ATOM      1  C   UNL     1       3.815   5.255  17.593  0.00  0.00    +0.000 A 
ATOM      2  C   UNL     1       3.373   6.581  17.601  0.00  0.00    +0.000 A 
ATOM      3  C   UNL     1       2.599   7.012  18.660  0.00  0.00    +0.000 A 
ATOM      4  C   UNL     1       2.211   6.191  19.709  0.00  0.00    +0.000 A 
ATOM      5  C   UNL     1       2.570   4.846  19.701  0.00  0.00    +0.000 A 
ATOM      6  C   UNL     1       3.376   4.389  18.623  0.00  0.00    +0.000 A 
ATOM      7  C   UNL     1       1.443   7.006  20.706  0.00  0.00    +0.000 C 
ATOM      8  N   UNL     1       1.412   8.339  20.110  0.00  0.00    +0.000 N 
ATOM      9  C   UNL     1       2.089   8.363  18.890  0.00  0.00    +0.000 C 
ATOM     10  O   UNL     1       2.299   9.263  18.098  0.00  0.00    +0.000 OA
ENDROOT
BRANCH   8  11
ATOM     11  C   UNL     1       0.782   9.451  20.731  0.00  0.00    +0.000 A 
ATOM     12  C   UNL     1       0.900  10.750  20.206  0.00  0.00    +0.000 A 
ATOM     13  C   UNL     1       0.287  11.849  20.817  0.00  0.00    +0.000 A 
ATOM     14  C   UNL     1      -0.456  11.670  21.977  0.00  0.00    +0.000 A 
ATOM     15  C   UNL     1      -0.580  10.393  22.505  0.00  0.00    +0.000 A 
ATOM     16  F   UNL     1      -1.289  10.216  23.628  0.00  0.00    +0.000 F 
ATOM     17  C   UNL     1       0.021   9.291  21.896  0.00  0.00    +0.000 A 
ENDBRANCH   8  11
BRANCH   1  20
ATOM     18  C   UNL     1       6.338   3.873  14.629  0.00  0.00    +0.000 C 
ATOM     19  C   UNL     1       5.756   4.410  15.844  0.00  0.00    +0.000 C 
ATOM     20  C   UNL     1       4.702   4.750  16.546  0.00  0.00    +0.000 C 
ATOM     21  C   UNL     1       6.263   4.859  17.029  0.00  0.00    +0.000 C 
ENDBRANCH   1  20
BRANCH   5  22
ATOM     22  C   UNL     1       2.140   3.891  20.786  0.00  0.00    +0.000 C 
ATOM     23  F   UNL     1       2.517   4.286  22.032  0.00  0.00    +0.000 F 
ATOM     24  F   UNL     1       0.790   3.736  20.840  0.00  0.00    +0.000 F 
ATOM     25  F   UNL     1       2.661   2.645  20.624  0.00  0.00    +0.000 F 
ENDBRANCH   5  22
TORSDOF 3
ENDMDL
MODEL 6
REMARK VINA RESULT:      -8.9      1.496      2.233
REMARK  Name = 
REMARK  4 active torsions:
REMARK  status: ('A' for Active; 'I' for Inactive)
REMARK    1  A    between atoms: C_1  and  C_2
REMARK    2  A    between atoms: C_3  and  C_4
REMARK    3  A    between atoms: C_8  and  C_9
REMARK    4  A    between atoms: N_15  and  C_16
REMARK                            x       y       z     vdW  Elec       q    Type
REMARK                         _______ _______ _______ _____ _____    ______ ____
ROOT
ATOM      1  C   UNL     1       1.650   6.769  20.489  0.00  0.00    +0.000 A 
ATOM      2  C   UNL     1       2.620   7.152  19.559  0.00  0.00    +0.000 A 
ATOM      3  C   UNL     1       3.173   6.183  18.746  0.00  0.00    +0.000 A 
ATOM      4  C   UNL     1       2.836   4.839  18.818  0.00  0.00    +0.000 A 
ATOM      5  C   UNL     1       1.927   4.407  19.779  0.00  0.00    +0.000 A 
ATOM      6  C   UNL     1       1.341   5.393  20.618  0.00  0.00    +0.000 A 
ATOM      7  C   UNL     1       3.574   4.094  17.746  0.00  0.00    +0.000 C 
ATOM      8  N   UNL     1       4.369   5.130  17.093  0.00  0.00    +0.000 N 
ATOM      9  C   UNL     1       4.150   6.379  17.675  0.00  0.00    +0.000 C 
ATOM     10  O   UNL     1       4.601   7.481  17.423  0.00  0.00    +0.000 OA
ENDROOT
BRANCH   8  11
ATOM     11  C   UNL     1       5.230   4.868  15.992  0.00  0.00    +0.000 A 
ATOM     12  C   UNL     1       6.603   5.159  16.049  0.00  0.00    +0.000 A 
ATOM     13  C   UNL     1       7.454   4.908  14.966  0.00  0.00    +0.000 A 
ATOM     14  C   UNL     1       6.941   4.363  13.796  0.00  0.00    +0.000 A 
ATOM     15  C   UNL     1       5.587   4.071  13.728  0.00  0.00    +0.000 A 
ATOM     16  F   UNL     1       5.086   3.552  12.599  0.00  0.00    +0.000 F 
ATOM     17  C   UNL     1       4.734   4.310  14.806  0.00  0.00    +0.000 A 
ENDBRANCH   8  11
BRANCH   1  20
ATOM     18  C   UNL     1      -0.246   9.570  22.861  0.00  0.00    +0.000 C 
ATOM     19  C   UNL     1       0.388   8.838  21.781  0.00  0.00    +0.000 C 
ATOM     20  C   UNL     1       0.965   7.751  21.330  0.00  0.00    +0.000 C 
ATOM     21  C   UNL     1       0.662   9.113  20.471  0.00  0.00    +0.000 C 
ENDBRANCH   1  20
BRANCH   5  22
ATOM     22  C   UNL     1       1.555   2.955  19.942  0.00  0.00    +0.000 C 
ATOM     23  F   UNL     1       0.827   2.707  21.064  0.00  0.00    +0.000 F 
ATOM     24  F   UNL     1       0.807   2.489  18.906  0.00  0.00    +0.000 F 
ATOM     25  F   UNL     1       2.641   2.141  20.023  0.00  0.00    +0.000 F 
ENDBRANCH   5  22
TORSDOF 3
ENDMDL
MODEL 7
REMARK VINA RESULT:      -8.5      3.379      7.948
REMARK  Name = 
REMARK  4 active torsions:
REMARK  status: ('A' for Active; 'I' for Inactive)
REMARK    1  A    between atoms: C_1  and  C_2
REMARK    2  A    between atoms: C_3  and  C_4
REMARK    3  A    between atoms: C_8  and  C_9
REMARK    4  A    between atoms: N_15  and  C_16
REMARK                            x       y       z     vdW  Elec       q    Type
REMARK                         _______ _______ _______ _____ _____    ______ ____
ROOT
ATOM      1  C   UNL     1       4.108   6.041  17.391  0.00  0.00    +0.000 A 
ATOM      2  C   UNL     1       3.560   7.322  17.291  0.00  0.00    +0.000 A 
ATOM      3  C   UNL     1       2.644   7.724  18.243  0.00  0.00    +0.000 A 
ATOM      4  C   UNL     1       2.216   6.914  19.284  0.00  0.00    +0.000 A 
ATOM      5  C   UNL     1       2.684   5.606  19.378  0.00  0.00    +0.000 A 
ATOM      6  C   UNL     1       3.635   5.180  18.411  0.00  0.00    +0.000 A 
ATOM      7  C   UNL     1       1.282   7.697  20.157  0.00  0.00    +0.000 C 
ATOM      8  N   UNL     1       1.205   8.998  19.499  0.00  0.00    +0.000 N 
ATOM      9  C   UNL     1       2.003   9.034  18.355  0.00  0.00    +0.000 C 
ATOM     10  O   UNL     1       2.221   9.917  17.546  0.00  0.00    +0.000 OA
ENDROOT
BRANCH   8  11
ATOM     11  C   UNL     1       0.422  10.074  19.999  0.00  0.00    +0.000 A 
ATOM     12  C   UNL     1       0.744  10.717  21.206  0.00  0.00    +0.000 A 
ATOM     13  C   UNL     1      -0.026  11.773  21.705  0.00  0.00    +0.000 A 
ATOM     14  C   UNL     1      -1.144  12.205  21.004  0.00  0.00    +0.000 A 
ATOM     15  C   UNL     1      -1.472  11.579  19.811  0.00  0.00    +0.000 A 
ATOM     16  F   UNL     1      -2.554  11.987  19.134  0.00  0.00    +0.000 F 
ATOM     17  C   UNL     1      -0.704  10.531  19.302  0.00  0.00    +0.000 A 
ENDBRANCH   8  11
BRANCH   1  20
ATOM     18  C   UNL     1       7.033   4.770  14.765  0.00  0.00    +0.000 C 
ATOM     19  C   UNL     1       6.284   5.347  15.864  0.00  0.00    +0.000 C 
ATOM     20  C   UNL     1       5.141   5.574  16.466  0.00  0.00    +0.000 C 
ATOM     21  C   UNL     1       6.620   6.042  16.991  0.00  0.00    +0.000 C 
ENDBRANCH   1  20
BRANCH   5  22
ATOM     22  C   UNL     1       2.222   4.660  20.456  0.00  0.00    +0.000 C 
ATOM     23  F   UNL     1       0.880   4.443  20.444  0.00  0.00    +0.000 F 
ATOM     24  F   UNL     1       2.796   3.431  20.353  0.00  0.00    +0.000 F 
ATOM     25  F   UNL     1       2.509   5.110  21.707  0.00  0.00    +0.000 F 
ENDBRANCH   5  22
TORSDOF 3
ENDMDL
MODEL 8
REMARK VINA RESULT:      -8.3      2.491      7.404
REMARK  Name = 
REMARK  4 active torsions:
REMARK  status: ('A' for Active; 'I' for Inactive)
REMARK    1  A    between atoms: C_1  and  C_2
REMARK    2  A    between atoms: C_3  and  C_4
REMARK    3  A    between atoms: C_8  and  C_9
REMARK    4  A    between atoms: N_15  and  C_16
REMARK                            x       y       z     vdW  Elec       q    Type
REMARK                         _______ _______ _______ _____ _____    ______ ____
ROOT
ATOM      1  C   UNL     1       5.113   5.394  16.239  0.00  0.00    +0.000 A 
ATOM      2  C   UNL     1       4.489   6.615  16.503  0.00  0.00    +0.000 A 
ATOM      3  C   UNL     1       3.638   6.701  17.587  0.00  0.00    +0.000 A 
ATOM      4  C   UNL     1       3.348   5.629  18.419  0.00  0.00    +0.000 A 
ATOM      5  C   UNL     1       3.894   4.378  18.147  0.00  0.00    +0.000 A 
ATOM      6  C   UNL     1       4.780   4.276  17.040  0.00  0.00    +0.000 A 
ATOM      7  C   UNL     1       2.451   6.101  19.525  0.00  0.00    +0.000 C 
ATOM      8  N   UNL     1       2.245   7.513  19.221  0.00  0.00    +0.000 N 
ATOM      9  C   UNL     1       2.937   7.891  18.070  0.00  0.00    +0.000 C 
ATOM     10  O   UNL     1       3.035   8.959  17.496  0.00  0.00    +0.000 OA
ENDROOT
BRANCH   8  11
ATOM     11  C   UNL     1       1.450   8.372  20.030  0.00  0.00    +0.000 A 
ATOM     12  C   UNL     1       1.356   8.191  21.420  0.00  0.00    +0.000 A 
ATOM     13  C   UNL     1       0.572   9.030  22.219  0.00  0.00    +0.000 A 
ATOM     14  C   UNL     1      -0.145  10.067  21.637  0.00  0.00    +0.000 A 
ATOM     15  C   UNL     1      -0.060  10.256  20.266  0.00  0.00    +0.000 A 
ATOM     16  F   UNL     1      -0.755  11.251  19.698  0.00  0.00    +0.000 F 
ATOM     17  C   UNL     1       0.728   9.430  19.464  0.00  0.00    +0.000 A 
ENDBRANCH   8  11
BRANCH   1  20
ATOM     18  C   UNL     1       7.870   4.941  13.195  0.00  0.00    +0.000 C 
ATOM     19  C   UNL     1       6.720   4.861  14.075  0.00  0.00    +0.000 C 
ATOM     20  C   UNL     1       6.086   5.249  15.156  0.00  0.00    +0.000 C 
ATOM     21  C   UNL     1       5.550   4.157  14.060  0.00  0.00    +0.000 C 
ENDBRANCH   1  20
BRANCH   5  22
ATOM     22  C   UNL     1       3.581   3.163  18.983  0.00  0.00    +0.000 C 
ATOM     23  F   UNL     1       2.265   3.056  19.306  0.00  0.00    +0.000 F 
ATOM     24  F   UNL     1       3.904   2.001  18.356  0.00  0.00    +0.000 F 
ATOM     25  F   UNL     1       4.250   3.155  20.167  0.00  0.00    +0.000 F 
ENDBRANCH   5  22
TORSDOF 3
ENDMDL
MODEL 9
REMARK VINA RESULT:      -8.3      3.221      8.011
REMARK  Name = 
REMARK  4 active torsions:
REMARK  status: ('A' for Active; 'I' for Inactive)
REMARK    1  A    between atoms: C_1  and  C_2
REMARK    2  A    between atoms: C_3  and  C_4
REMARK    3  A    between atoms: C_8  and  C_9
REMARK    4  A    between atoms: N_15  and  C_16
REMARK                            x       y       z     vdW  Elec       q    Type
REMARK                         _______ _______ _______ _____ _____    ______ ____
ROOT
ATOM      1  C   UNL     1       4.156   6.053  17.459  0.00  0.00    +0.000 A 
ATOM      2  C   UNL     1       3.573   7.321  17.385  0.00  0.00    +0.000 A 
ATOM      3  C   UNL     1       2.653   7.681  18.348  0.00  0.00    +0.000 A 
ATOM      4  C   UNL     1       2.253   6.842  19.378  0.00  0.00    +0.000 A 
ATOM      5  C   UNL     1       2.757   5.546  19.445  0.00  0.00    +0.000 A 
ATOM      6  C   UNL     1       3.713   5.162  18.466  0.00  0.00    +0.000 A 
ATOM      7  C   UNL     1       1.304   7.584  20.270  0.00  0.00    +0.000 C 
ATOM      8  N   UNL     1       1.187   8.893  19.635  0.00  0.00    +0.000 N 
ATOM      9  C   UNL     1       1.977   8.971  18.487  0.00  0.00    +0.000 C 
ATOM     10  O   UNL     1       2.166   9.874  17.693  0.00  0.00    +0.000 OA
ENDROOT
BRANCH   8  11
ATOM     11  C   UNL     1       0.379   9.939  20.158  0.00  0.00    +0.000 A 
ATOM     12  C   UNL     1      -0.240  10.880  19.317  0.00  0.00    +0.000 A 
ATOM     13  C   UNL     1      -1.031  11.914  19.827  0.00  0.00    +0.000 A 
ATOM     14  C   UNL     1      -1.214  12.033  21.199  0.00  0.00    +0.000 A 
ATOM     15  C   UNL     1      -0.609  11.111  22.039  0.00  0.00    +0.000 A 
ATOM     16  F   UNL     1      -0.776  11.225  23.364  0.00  0.00    +0.000 F 
ATOM     17  C   UNL     1       0.174  10.071  21.538  0.00  0.00    +0.000 A 
ENDBRANCH   8  11
BRANCH   1  20
ATOM     18  C   UNL     1       7.105   4.828  14.838  0.00  0.00    +0.000 C 
ATOM     19  C   UNL     1       5.929   4.943  15.678  0.00  0.00    +0.000 C 
ATOM     20  C   UNL     1       5.195   5.631  16.519  0.00  0.00    +0.000 C 
ATOM     21  C   UNL     1       4.857   4.137  15.939  0.00  0.00    +0.000 C 
ENDBRANCH   1  20
BRANCH   5  22
ATOM     22  C   UNL     1       2.327   4.569  20.510  0.00  0.00    +0.000 C 
ATOM     23  F   UNL     1       1.003   4.263  20.458  0.00  0.00    +0.000 F 
ATOM     24  F   UNL     1       2.984   3.381  20.423  0.00  0.00    +0.000 F 
ATOM     25  F   UNL     1       2.547   5.034  21.769  0.00  0.00    +0.000 F 
ENDBRANCH   5  22
TORSDOF 3
ENDMDL
