MODEL 1
REMARK VINA RESULT:      -8.8      0.000      0.000
REMARK  Name = 
REMARK  6 active torsions:
REMARK  status: ('A' for Active; 'I' for Inactive)
REMARK    1  A    between atoms: C_1  and  C_2
REMARK    2  A    between atoms: C_4  and  C_5
REMARK    3  A    between atoms: N_7  and  C_8
REMARK    4  A    between atoms: C_12  and  C_13
REMARK    5  A    between atoms: C_14  and  C_15
REMARK    6  A    between atoms: N_23  and  C_24
REMARK                            x       y       z     vdW  Elec       q    Type
REMARK                         _______ _______ _______ _____ _____    ______ ____
ROOT
ATOM      1  C   UNL     1       1.797   8.743  18.579  0.00  0.00    +0.000 C 
ATOM      2  O   UNL     1       2.060   8.635  17.385  0.00  0.00    +0.000 OA
ATOM      3  N   UNL     1       1.990   7.708  19.520  0.00  0.00    +0.000 N 
ATOM      4  H   UNL     1       1.595   7.870  20.442  0.00  0.00    +0.000 HD
ENDROOT
BRANCH   1   8
ATOM      5  C   UNL     1       0.996  13.566  19.407  0.00  0.00    +0.000 C 
ATOM      6  C   UNL     1       0.804  12.097  19.359  0.00  0.00    +0.000 A 
ATOM      7  N   UNL     1       1.594  11.268  18.695  0.00  0.00    +0.000 NA
ATOM      8  C   UNL     1       1.198  10.016  19.111  0.00  0.00    +0.000 A 
ATOM      9  N   UNL     1       0.217  10.058  20.045  0.00  0.00    +0.000 NA
ATOM     10  N   UNL     1      -0.118  11.378  20.123  0.00  0.00    +0.000 N 
BRANCH  10  11
ATOM     11  C   UNL     1      -1.253  11.835  20.902  0.00  0.00    +0.000 A 
ATOM     12  C   UNL     1      -1.277  11.698  22.302  0.00  0.00    +0.000 A 
ATOM     13  C   UNL     1      -2.390  12.152  23.073  0.00  0.00    +0.000 A 
ATOM     14  C   UNL     1      -3.520  12.711  22.464  0.00  0.00    +0.000 A 
ATOM     15  F   UNL     1      -4.606  13.126  23.193  0.00  0.00    +0.000 F 
ATOM     16  C   UNL     1      -3.511  12.820  21.074  0.00  0.00    +0.000 A 
ATOM     17  C   UNL     1      -2.393  12.398  20.301  0.00  0.00    +0.000 A 
ENDBRANCH  10  11
ENDBRANCH   1   8
BRANCH   3  18
ATOM     18  C   UNL     1       2.582   6.425  19.261  0.00  0.00    +0.000 A 
ATOM     19  C   UNL     1       2.538   5.384  20.197  0.00  0.00    +0.000 A 
ATOM     20  C   UNL     1       3.153   4.150  19.950  0.00  0.00    +0.000 A 
ATOM     21  C   UNL     1       3.839   3.932  18.758  0.00  0.00    +0.000 A 
ATOM     22  C   UNL     1       3.893   4.938  17.791  0.00  0.00    +0.000 A 
ATOM     23  C   UNL     1       3.238   6.171  18.031  0.00  0.00    +0.000 A 
BRANCH  22  24
ATOM     24  C   UNL     1       4.664   4.684  16.598  0.00  0.00    +0.000 C 
ATOM     25  C   UNL     1       5.304   4.582  15.578  0.00  0.00    +0.000 C 
BRANCH  25  26
ATOM     26  C   UNL     1       6.058   4.480  14.361  0.00  0.00    +0.000 A 
ATOM     27  C   UNL     1       5.683   3.595  13.362  0.00  0.00    +0.000 A 
ATOM     28  C   UNL     1       6.410   3.587  12.174  0.00  0.00    +0.000 A 
ATOM     29  C   UNL     1       7.492   4.447  12.030  0.00  0.00    +0.000 A 
ATOM     30  C   UNL     1       7.813   5.275  13.095  0.00  0.00    +0.000 A 
ATOM     31  N   UNL     1       7.122   5.313  14.257  0.00  0.00    +0.000 NA
ENDBRANCH  25  26
ENDBRANCH  22  24
ENDBRANCH   3  18
TORSDOF 5
ENDMDL
MODEL 2
REMARK VINA RESULT:      -8.6      1.692      2.430
REMARK  Name = 
REMARK  6 active torsions:
REMARK  status: ('A' for Active; 'I' for Inactive)
REMARK    1  A    between atoms: C_1  and  C_2
REMARK    2  A    between atoms: C_4  and  C_5
REMARK    3  A    between atoms: N_7  and  C_8
REMARK    4  A    between atoms: C_12  and  C_13
REMARK    5  A    between atoms: C_14  and  C_15
REMARK    6  A    between atoms: N_23  and  C_24
REMARK                            x       y       z     vdW  Elec       q    Type
REMARK                         _______ _______ _______ _____ _____    ______ ____
ROOT
ATOM      1  C   UNL     1       2.134   7.477  19.616  0.00  0.00    +0.000 C 
ATOM      2  O   UNL     1       2.670   7.730  18.539  0.00  0.00    +0.000 OA
ATOM      3  N   UNL     1       2.147   6.198  20.215  0.00  0.00    +0.000 N 
ATOM      4  H   UNL     1       1.544   6.084  21.024  0.00  0.00    +0.000 HD
ENDROOT
BRANCH   1   8
ATOM      5  C   UNL     1      -0.283   9.875  23.219  0.00  0.00    +0.000 C 
ATOM      6  C   UNL     1       0.447   9.597  21.959  0.00  0.00    +0.000 A 
ATOM      7  N   UNL     1       1.051   8.451  21.691  0.00  0.00    +0.000 NA
ATOM      8  C   UNL     1       1.381   8.546  20.357  0.00  0.00    +0.000 A 
ATOM      9  N   UNL     1       0.955   9.702  19.791  0.00  0.00    +0.000 NA
ATOM     10  N   UNL     1       0.459  10.426  20.835  0.00  0.00    +0.000 N 
BRANCH  10  11
ATOM     11  C   UNL     1       0.044  11.807  20.680  0.00  0.00    +0.000 A 
ATOM     12  C   UNL     1      -1.284  12.134  20.345  0.00  0.00    +0.000 A 
ATOM     13  C   UNL     1      -1.697  13.493  20.198  0.00  0.00    +0.000 A 
ATOM     14  C   UNL     1      -0.792  14.551  20.337  0.00  0.00    +0.000 A 
ATOM     15  F   UNL     1      -1.173  15.858  20.171  0.00  0.00    +0.000 F 
ATOM     16  C   UNL     1       0.530  14.227  20.639  0.00  0.00    +0.000 A 
ATOM     17  C   UNL     1       0.945  12.878  20.817  0.00  0.00    +0.000 A 
ENDBRANCH  10  11
ENDBRANCH   1   8
BRANCH   3  18
ATOM     18  C   UNL     1       2.832   5.036  19.720  0.00  0.00    +0.000 A 
ATOM     19  C   UNL     1       2.914   3.850  20.462  0.00  0.00    +0.000 A 
ATOM     20  C   UNL     1       3.618   2.737  19.988  0.00  0.00    +0.000 A 
ATOM     21  C   UNL     1       4.269   2.787  18.758  0.00  0.00    +0.000 A 
ATOM     22  C   UNL     1       4.200   3.945  17.979  0.00  0.00    +0.000 A 
ATOM     23  C   UNL     1       3.454   5.056  18.448  0.00  0.00    +0.000 A 
BRANCH  22  24
ATOM     24  C   UNL     1       4.938   3.969  16.740  0.00  0.00    +0.000 C 
ATOM     25  C   UNL     1       5.541   4.100  15.702  0.00  0.00    +0.000 C 
BRANCH  25  26
ATOM     26  C   UNL     1       6.250   4.275  14.465  0.00  0.00    +0.000 A 
ATOM     27  C   UNL     1       5.894   3.559  13.332  0.00  0.00    +0.000 A 
ATOM     28  C   UNL     1       6.570   3.819  12.142  0.00  0.00    +0.000 A 
ATOM     29  C   UNL     1       7.586   4.768  12.129  0.00  0.00    +0.000 A 
ATOM     30  C   UNL     1       7.894   5.411  13.317  0.00  0.00    +0.000 A 
ATOM     31  N   UNL     1       7.250   5.188  14.486  0.00  0.00    +0.000 NA
ENDBRANCH  25  26
ENDBRANCH  22  24
ENDBRANCH   3  18
TORSDOF 5
ENDMDL
MODEL 3
REMARK VINA RESULT:      -8.5      1.944      3.016
REMARK  Name = 
REMARK  6 active torsions:
REMARK  status: ('A' for Active; 'I' for Inactive)
REMARK    1  A    between atoms: C_1  and  C_2
REMARK    2  A    between atoms: C_4  and  C_5
REMARK    3  A    between atoms: N_7  and  C_8
REMARK    4  A    between atoms: C_12  and  C_13
REMARK    5  A    between atoms: C_14  and  C_15
REMARK    6  A    between atoms: N_23  and  C_24
REMARK                            x       y       z     vdW  Elec       q    Type
REMARK                         _______ _______ _______ _____ _____    ______ ____
ROOT
ATOM      1  C   UNL     1       1.801   8.977  18.603  0.00  0.00    +0.000 C 
ATOM      2  O   UNL     1       2.020   8.901  17.396  0.00  0.00    +0.000 OA
ATOM      3  N   UNL     1       1.998   7.907  19.503  0.00  0.00    +0.000 N 
ATOM      4  H   UNL     1       1.639   8.048  20.442  0.00  0.00    +0.000 HD
ENDROOT
BRANCH   1   8
ATOM      5  C   UNL     1      -0.551  12.105  21.647  0.00  0.00    +0.000 C 
ATOM      6  C   UNL     1       0.336  11.580  20.581  0.00  0.00    +0.000 A 
ATOM      7  N   UNL     1       0.607  10.297  20.409  0.00  0.00    +0.000 NA
ATOM      8  C   UNL     1       1.257  10.247  19.196  0.00  0.00    +0.000 A 
ATOM      9  N   UNL     1       1.353  11.461  18.600  0.00  0.00    +0.000 NA
ATOM     10  N   UNL     1       0.868  12.333  19.531  0.00  0.00    +0.000 N 
BRANCH  10  11
ATOM     11  C   UNL     1       0.945  13.769  19.349  0.00  0.00    +0.000 A 
ATOM     12  C   UNL     1       2.110  14.484  19.688  0.00  0.00    +0.000 A 
ATOM     13  C   UNL     1       2.192  15.897  19.504  0.00  0.00    +0.000 A 
ATOM     14  C   UNL     1       1.106  16.635  19.021  0.00  0.00    +0.000 A 
ATOM     15  F   UNL     1       1.165  17.997  18.866  0.00  0.00    +0.000 F 
ATOM     16  C   UNL     1      -0.060  15.933  18.713  0.00  0.00    +0.000 A 
ATOM     17  C   UNL     1      -0.141  14.521  18.865  0.00  0.00    +0.000 A 
ENDBRANCH  10  11
ENDBRANCH   1   8
BRANCH   3  18
ATOM     18  C   UNL     1       2.544   6.617  19.182  0.00  0.00    +0.000 A 
ATOM     19  C   UNL     1       2.368   5.507  20.017  0.00  0.00    +0.000 A 
ATOM     20  C   UNL     1       2.939   4.265  19.714  0.00  0.00    +0.000 A 
ATOM     21  C   UNL     1       3.712   4.106  18.567  0.00  0.00    +0.000 A 
ATOM     22  C   UNL     1       3.900   5.184  17.699  0.00  0.00    +0.000 A 
ATOM     23  C   UNL     1       3.289   6.429  17.991  0.00  0.00    +0.000 A 
BRANCH  22  24
ATOM     24  C   UNL     1       4.757   4.985  16.555  0.00  0.00    +0.000 C 
ATOM     25  C   UNL     1       5.381   4.796  15.538  0.00  0.00    +0.000 C 
BRANCH  25  26
ATOM     26  C   UNL     1       6.106   4.560  14.322  0.00  0.00    +0.000 A 
ATOM     27  C   UNL     1       5.687   3.596  13.417  0.00  0.00    +0.000 A 
ATOM     28  C   UNL     1       6.388   3.458  12.221  0.00  0.00    +0.000 A 
ATOM     29  C   UNL     1       7.489   4.271  11.978  0.00  0.00    +0.000 A 
ATOM     30  C   UNL     1       7.854   5.185  12.954  0.00  0.00    +0.000 A 
ATOM     31  N   UNL     1       7.188   5.350  14.121  0.00  0.00    +0.000 NA
ENDBRANCH  25  26
ENDBRANCH  22  24
ENDBRANCH   3  18
TORSDOF 5
ENDMDL
MODEL 4
REMARK VINA RESULT:      -8.5      1.986      2.452
REMARK  Name = 
REMARK  6 active torsions:
REMARK  status: ('A' for Active; 'I' for Inactive)
REMARK    1  A    between atoms: C_1  and  C_2
REMARK    2  A    between atoms: C_4  and  C_5
REMARK    3  A    between atoms: N_7  and  C_8
REMARK    4  A    between atoms: C_12  and  C_13
REMARK    5  A    between atoms: C_14  and  C_15
REMARK    6  A    between atoms: N_23  and  C_24
REMARK                            x       y       z     vdW  Elec       q    Type
REMARK                         _______ _______ _______ _____ _____    ______ ____
ROOT
ATOM      1  C   UNL     1       1.726   9.142  18.157  0.00  0.00    +0.000 C 
ATOM      2  O   UNL     1       2.620   9.312  17.332  0.00  0.00    +0.000 OA
ATOM      3  N   UNL     1       1.578   7.962  18.919  0.00  0.00    +0.000 N 
ATOM      4  H   UNL     1       0.718   7.886  19.452  0.00  0.00    +0.000 HD
ENDROOT
BRANCH   1   8
ATOM      5  C   UNL     1      -0.384  13.476  19.318  0.00  0.00    +0.000 C 
ATOM      6  C   UNL     1      -0.181  12.112  18.773  0.00  0.00    +0.000 A 
ATOM      7  N   UNL     1       0.992  11.503  18.724  0.00  0.00    +0.000 NA
ATOM      8  C   UNL     1       0.685  10.205  18.377  0.00  0.00    +0.000 A 
ATOM      9  N   UNL     1      -0.648   9.994  18.257  0.00  0.00    +0.000 NA
ATOM     10  N   UNL     1      -1.200  11.234  18.397  0.00  0.00    +0.000 N 
BRANCH  10  11
ATOM     11  C   UNL     1      -2.612  11.474  18.171  0.00  0.00    +0.000 A 
ATOM     12  C   UNL     1      -3.194  11.254  16.907  0.00  0.00    +0.000 A 
ATOM     13  C   UNL     1      -4.585  11.483  16.682  0.00  0.00    +0.000 A 
ATOM     14  C   UNL     1      -5.417  11.977  17.694  0.00  0.00    +0.000 A 
ATOM     15  F   UNL     1      -6.749  12.226  17.480  0.00  0.00    +0.000 F 
ATOM     16  C   UNL     1      -4.836  12.224  18.938  0.00  0.00    +0.000 A 
ATOM     17  C   UNL     1      -3.457  11.970  19.179  0.00  0.00    +0.000 A 
ENDBRANCH  10  11
ENDBRANCH   1   8
BRANCH   3  18
ATOM     18  C   UNL     1       2.466   6.833  18.914  0.00  0.00    +0.000 A 
ATOM     19  C   UNL     1       2.707   6.073  20.066  0.00  0.00    +0.000 A 
ATOM     20  C   UNL     1       3.605   4.998  20.059  0.00  0.00    +0.000 A 
ATOM     21  C   UNL     1       4.293   4.663  18.897  0.00  0.00    +0.000 A 
ATOM     22  C   UNL     1       4.070   5.385  17.722  0.00  0.00    +0.000 A 
ATOM     23  C   UNL     1       3.133   6.448  17.725  0.00  0.00    +0.000 A 
BRANCH  22  24
ATOM     24  C   UNL     1       4.850   5.036  16.559  0.00  0.00    +0.000 C 
ATOM     25  C   UNL     1       5.449   4.827  15.531  0.00  0.00    +0.000 C 
BRANCH  25  26
ATOM     26  C   UNL     1       6.147   4.590  14.299  0.00  0.00    +0.000 A 
ATOM     27  C   UNL     1       5.699   3.636  13.398  0.00  0.00    +0.000 A 
ATOM     28  C   UNL     1       6.374   3.496  12.188  0.00  0.00    +0.000 A 
ATOM     29  C   UNL     1       7.480   4.298  11.927  0.00  0.00    +0.000 A 
ATOM     30  C   UNL     1       7.875   5.202  12.900  0.00  0.00    +0.000 A 
ATOM     31  N   UNL     1       7.235   5.368  14.081  0.00  0.00    +0.000 NA
ENDBRANCH  25  26
ENDBRANCH  22  24
ENDBRANCH   3  18
TORSDOF 5
ENDMDL
MODEL 5
REMARK VINA RESULT:      -8.4      1.622      1.954
REMARK  Name = 
REMARK  6 active torsions:
REMARK  status: ('A' for Active; 'I' for Inactive)
REMARK    1  A    between atoms: C_1  and  C_2
REMARK    2  A    between atoms: C_4  and  C_5
REMARK    3  A    between atoms: N_7  and  C_8
REMARK    4  A    between atoms: C_12  and  C_13
REMARK    5  A    between atoms: C_14  and  C_15
REMARK    6  A    between atoms: N_23  and  C_24
REMARK                            x       y       z     vdW  Elec       q    Type
REMARK                         _______ _______ _______ _____ _____    ______ ____
ROOT
ATOM      1  C   UNL     1       1.763   9.360  18.264  0.00  0.00    +0.000 C 
ATOM      2  O   UNL     1       2.622   9.495  17.396  0.00  0.00    +0.000 OA
ATOM      3  N   UNL     1       1.605   8.186  19.033  0.00  0.00    +0.000 N 
ATOM      4  H   UNL     1       0.769   8.143  19.607  0.00  0.00    +0.000 HD
ENDROOT
BRANCH   1   8
ATOM      5  C   UNL     1      -0.106  13.836  19.290  0.00  0.00    +0.000 C 
ATOM      6  C   UNL     1      -0.001  12.420  18.863  0.00  0.00    +0.000 A 
ATOM      7  N   UNL     1       1.145  11.782  18.693  0.00  0.00    +0.000 NA
ATOM      8  C   UNL     1       0.778  10.463  18.534  0.00  0.00    +0.000 A 
ATOM      9  N   UNL     1      -0.559  10.273  18.645  0.00  0.00    +0.000 NA
ATOM     10  N   UNL     1      -1.073  11.533  18.742  0.00  0.00    +0.000 N 
BRANCH  10  11
ATOM     11  C   UNL     1      -2.502  11.782  18.716  0.00  0.00    +0.000 A 
ATOM     12  C   UNL     1      -3.161  12.347  19.824  0.00  0.00    +0.000 A 
ATOM     13  C   UNL     1      -4.566  12.600  19.800  0.00  0.00    +0.000 A 
ATOM     14  C   UNL     1      -5.351  12.256  18.694  0.00  0.00    +0.000 A 
ATOM     15  F   UNL     1      -6.706  12.469  18.671  0.00  0.00    +0.000 F 
ATOM     16  C   UNL     1      -4.704  11.667  17.607  0.00  0.00    +0.000 A 
ATOM     17  C   UNL     1      -3.300  11.440  17.610  0.00  0.00    +0.000 A 
ENDBRANCH  10  11
ENDBRANCH   1   8
BRANCH   3  18
ATOM     18  C   UNL     1       2.445   7.021  18.985  0.00  0.00    +0.000 A 
ATOM     19  C   UNL     1       2.593   6.167  20.086  0.00  0.00    +0.000 A 
ATOM     20  C   UNL     1       3.446   5.057  20.041  0.00  0.00    +0.000 A 
ATOM     21  C   UNL     1       4.182   4.780  18.893  0.00  0.00    +0.000 A 
ATOM     22  C   UNL     1       4.051   5.597  17.767  0.00  0.00    +0.000 A 
ATOM     23  C   UNL     1       3.159   6.697  17.805  0.00  0.00    +0.000 A 
BRANCH  22  24
ATOM     24  C   UNL     1       4.878   5.302  16.621  0.00  0.00    +0.000 C 
ATOM     25  C   UNL     1       5.474   5.044  15.603  0.00  0.00    +0.000 C 
BRANCH  25  26
ATOM     26  C   UNL     1       6.166   4.729  14.385  0.00  0.00    +0.000 A 
ATOM     27  C   UNL     1       5.658   3.790  13.500  0.00  0.00    +0.000 A 
ATOM     28  C   UNL     1       6.334   3.574  12.301  0.00  0.00    +0.000 A 
ATOM     29  C   UNL     1       7.498   4.287  12.036  0.00  0.00    +0.000 A 
ATOM     30  C   UNL     1       7.948   5.181  12.995  0.00  0.00    +0.000 A 
ATOM     31  N   UNL     1       7.309   5.420  14.164  0.00  0.00    +0.000 NA
ENDBRANCH  25  26
ENDBRANCH  22  24
ENDBRANCH   3  18
TORSDOF 5
ENDMDL
MODEL 6
REMARK VINA RESULT:      -8.4      0.530      1.242
REMARK  Name = 
REMARK  6 active torsions:
REMARK  status: ('A' for Active; 'I' for Inactive)
REMARK    1  A    between atoms: C_1  and  C_2
REMARK    2  A    between atoms: C_4  and  C_5
REMARK    3  A    between atoms: N_7  and  C_8
REMARK    4  A    between atoms: C_12  and  C_13
REMARK    5  A    between atoms: C_14  and  C_15
REMARK    6  A    between atoms: N_23  and  C_24
REMARK                            x       y       z     vdW  Elec       q    Type
REMARK                         _______ _______ _______ _____ _____    ______ ____
ROOT
ATOM      1  C   UNL     1       1.762   8.814  18.623  0.00  0.00    +0.000 C 
ATOM      2  O   UNL     1       2.002   8.715  17.423  0.00  0.00    +0.000 OA
ATOM      3  N   UNL     1       1.986   7.777  19.554  0.00  0.00    +0.000 N 
ATOM      4  H   UNL     1       1.607   7.929  20.484  0.00  0.00    +0.000 HD
ENDROOT
BRANCH   1   8
ATOM      5  C   UNL     1       0.960  13.622  19.531  0.00  0.00    +0.000 C 
ATOM      6  C   UNL     1       0.768  12.154  19.456  0.00  0.00    +0.000 A 
ATOM      7  N   UNL     1       1.561  11.337  18.782  0.00  0.00    +0.000 NA
ATOM      8  C   UNL     1       1.162  10.078  19.174  0.00  0.00    +0.000 A 
ATOM      9  N   UNL     1       0.175  10.104  20.102  0.00  0.00    +0.000 NA
ATOM     10  N   UNL     1      -0.159  11.423  20.202  0.00  0.00    +0.000 N 
BRANCH  10  11
ATOM     11  C   UNL     1      -1.299  11.868  20.982  0.00  0.00    +0.000 A 
ATOM     12  C   UNL     1      -2.432  12.425  20.360  0.00  0.00    +0.000 A 
ATOM     13  C   UNL     1      -3.558  12.858  21.123  0.00  0.00    +0.000 A 
ATOM     14  C   UNL     1      -3.564  12.787  22.521  0.00  0.00    +0.000 A 
ATOM     15  F   UNL     1      -4.630  13.226  23.265  0.00  0.00    +0.000 F 
ATOM     16  C   UNL     1      -2.430  12.263  23.141  0.00  0.00    +0.000 A 
ATOM     17  C   UNL     1      -1.315  11.801  22.387  0.00  0.00    +0.000 A 
ENDBRANCH  10  11
ENDBRANCH   1   8
BRANCH   3  18
ATOM     18  C   UNL     1       2.585   6.501  19.276  0.00  0.00    +0.000 A 
ATOM     19  C   UNL     1       2.520   5.436  20.184  0.00  0.00    +0.000 A 
ATOM     20  C   UNL     1       3.142   4.210  19.919  0.00  0.00    +0.000 A 
ATOM     21  C   UNL     1       3.857   4.023  18.739  0.00  0.00    +0.000 A 
ATOM     22  C   UNL     1       3.933   5.054  17.799  0.00  0.00    +0.000 A 
ATOM     23  C   UNL     1       3.270   6.280  18.056  0.00  0.00    +0.000 A 
BRANCH  22  24
ATOM     24  C   UNL     1       4.733   4.832  16.619  0.00  0.00    +0.000 C 
ATOM     25  C   UNL     1       5.318   4.691  15.572  0.00  0.00    +0.000 C 
BRANCH  25  26
ATOM     26  C   UNL     1       5.995   4.527  14.317  0.00  0.00    +0.000 A 
ATOM     27  C   UNL     1       7.171   5.211  14.046  0.00  0.00    +0.000 A 
ATOM     28  C   UNL     1       7.822   4.961  12.840  0.00  0.00    +0.000 A 
ATOM     29  C   UNL     1       7.271   4.053  11.943  0.00  0.00    +0.000 A 
ATOM     30  C   UNL     1       6.076   3.440  12.285  0.00  0.00    +0.000 A 
ATOM     31  N   UNL     1       5.424   3.655  13.451  0.00  0.00    +0.000 NA
ENDBRANCH  25  26
ENDBRANCH  22  24
ENDBRANCH   3  18
TORSDOF 5
ENDMDL
MODEL 7
REMARK VINA RESULT:      -8.3      6.874     10.941
REMARK  Name = 
REMARK  6 active torsions:
REMARK  status: ('A' for Active; 'I' for Inactive)
REMARK    1  A    between atoms: C_1  and  C_2
REMARK    2  A    between atoms: C_4  and  C_5
REMARK    3  A    between atoms: N_7  and  C_8
REMARK    4  A    between atoms: C_12  and  C_13
REMARK    5  A    between atoms: C_14  and  C_15
REMARK    6  A    between atoms: N_23  and  C_24
REMARK                            x       y       z     vdW  Elec       q    Type
REMARK                         _______ _______ _______ _____ _____    ______ ____
ROOT
ATOM      1  C   UNL     1       8.029   7.787  18.233  0.00  0.00    +0.000 C 
ATOM      2  O   UNL     1       8.764   7.352  19.117  0.00  0.00    +0.000 OA
ATOM      3  N   UNL     1       8.004   9.140  17.832  0.00  0.00    +0.000 N 
ATOM      4  H   UNL     1       7.252   9.400  17.201  0.00  0.00    +0.000 HD
ENDROOT
BRANCH   1   8
ATOM      5  C   UNL     1       5.922   4.960  14.747  0.00  0.00    +0.000 C 
ATOM      6  C   UNL     1       6.236   5.574  16.060  0.00  0.00    +0.000 A 
ATOM      7  N   UNL     1       7.288   6.345  16.283  0.00  0.00    +0.000 NA
ATOM      8  C   UNL     1       7.061   6.872  17.535  0.00  0.00    +0.000 A 
ATOM      9  N   UNL     1       5.877   6.479  18.066  0.00  0.00    +0.000 NA
ATOM     10  N   UNL     1       5.399   5.560  17.177  0.00  0.00    +0.000 N 
BRANCH  10  11
ATOM     11  C   UNL     1       4.215   4.770  17.456  0.00  0.00    +0.000 A 
ATOM     12  C   UNL     1       4.248   3.364  17.393  0.00  0.00    +0.000 A 
ATOM     13  C   UNL     1       3.087   2.582  17.673  0.00  0.00    +0.000 A 
ATOM     14  C   UNL     1       1.859   3.181  17.977  0.00  0.00    +0.000 A 
ATOM     15  F   UNL     1       0.731   2.440  18.221  0.00  0.00    +0.000 F 
ATOM     16  C   UNL     1       1.817   4.575  18.010  0.00  0.00    +0.000 A 
ATOM     17  C   UNL     1       2.976   5.361  17.762  0.00  0.00    +0.000 A 
ENDBRANCH  10  11
ENDBRANCH   1   8
BRANCH   3  18
ATOM     18  C   UNL     1       8.860  10.186  18.320  0.00  0.00    +0.000 A 
ATOM     19  C   UNL     1       9.966  10.641  17.591  0.00  0.00    +0.000 A 
ATOM     20  C   UNL     1      10.817  11.633  18.094  0.00  0.00    +0.000 A 
ATOM     21  C   UNL     1      10.585  12.190  19.349  0.00  0.00    +0.000 A 
ATOM     22  C   UNL     1       9.483  11.776  20.102  0.00  0.00    +0.000 A 
ATOM     23  C   UNL     1       8.605  10.798  19.572  0.00  0.00    +0.000 A 
BRANCH  22  24
ATOM     24  C   UNL     1       9.318  12.340  21.419  0.00  0.00    +0.000 C 
ATOM     25  C   UNL     1       9.070  12.814  22.502  0.00  0.00    +0.000 C 
BRANCH  25  26
ATOM     26  C   UNL     1       8.755  13.384  23.782  0.00  0.00    +0.000 A 
ATOM     27  C   UNL     1       8.393  12.578  24.851  0.00  0.00    +0.000 A 
ATOM     28  C   UNL     1       8.166  13.178  26.088  0.00  0.00    +0.000 A 
ATOM     29  C   UNL     1       8.290  14.557  26.210  0.00  0.00    +0.000 A 
ATOM     30  C   UNL     1       8.625  15.285  25.079  0.00  0.00    +0.000 A 
ATOM     31  N   UNL     1       8.861  14.732  23.867  0.00  0.00    +0.000 NA
ENDBRANCH  25  26
ENDBRANCH  22  24
ENDBRANCH   3  18
TORSDOF 5
ENDMDL
MODEL 8
REMARK VINA RESULT:      -8.3      1.514      1.778
REMARK  Name = 
REMARK  6 active torsions:
REMARK  status: ('A' for Active; 'I' for Inactive)
REMARK    1  A    between atoms: C_1  and  C_2
REMARK    2  A    between atoms: C_4  and  C_5
REMARK    3  A    between atoms: N_7  and  C_8
REMARK    4  A    between atoms: C_12  and  C_13
REMARK    5  A    between atoms: C_14  and  C_15
REMARK    6  A    between atoms: N_23  and  C_24
REMARK                            x       y       z     vdW  Elec       q    Type
REMARK                         _______ _______ _______ _____ _____    ______ ____
ROOT
ATOM      1  C   UNL     1       1.321   8.665  20.730  0.00  0.00    +0.000 C 
ATOM      2  O   UNL     1       1.655   8.177  21.807  0.00  0.00    +0.000 OA
ATOM      3  N   UNL     1       1.663   8.108  19.478  0.00  0.00    +0.000 N 
ATOM      4  H   UNL     1       1.457   8.684  18.668  0.00  0.00    +0.000 HD
ENDROOT
BRANCH   1   8
ATOM      5  C   UNL     1      -1.112  12.627  19.008  0.00  0.00    +0.000 C 
ATOM      6  C   UNL     1      -0.603  11.578  19.923  0.00  0.00    +0.000 A 
ATOM      7  N   UNL     1       0.061  10.506  19.523  0.00  0.00    +0.000 NA
ATOM      8  C   UNL     1       0.535   9.947  20.690  0.00  0.00    +0.000 A 
ATOM      9  N   UNL     1       0.217  10.673  21.789  0.00  0.00    +0.000 NA
ATOM     10  N   UNL     1      -0.606  11.654  21.318  0.00  0.00    +0.000 N 
BRANCH  10  11
ATOM     11  C   UNL     1      -1.305  12.561  22.209  0.00  0.00    +0.000 A 
ATOM     12  C   UNL     1      -2.696  12.464  22.399  0.00  0.00    +0.000 A 
ATOM     13  C   UNL     1      -3.387  13.350  23.280  0.00  0.00    +0.000 A 
ATOM     14  C   UNL     1      -2.718  14.377  23.955  0.00  0.00    +0.000 A 
ATOM     15  F   UNL     1      -3.376  15.251  24.782  0.00  0.00    +0.000 F 
ATOM     16  C   UNL     1      -1.344  14.493  23.744  0.00  0.00    +0.000 A 
ATOM     17  C   UNL     1      -0.642  13.596  22.892  0.00  0.00    +0.000 A 
ENDBRANCH  10  11
ENDBRANCH   1   8
BRANCH   3  18
ATOM     18  C   UNL     1       2.368   6.875  19.263  0.00  0.00    +0.000 A 
ATOM     19  C   UNL     1       2.366   5.842  20.210  0.00  0.00    +0.000 A 
ATOM     20  C   UNL     1       3.090   4.661  20.007  0.00  0.00    +0.000 A 
ATOM     21  C   UNL     1       3.845   4.488  18.850  0.00  0.00    +0.000 A 
ATOM     22  C   UNL     1       3.862   5.486  17.872  0.00  0.00    +0.000 A 
ATOM     23  C   UNL     1       3.098   6.663  18.067  0.00  0.00    +0.000 A 
BRANCH  22  24
ATOM     24  C   UNL     1       4.704   5.284  16.719  0.00  0.00    +0.000 C 
ATOM     25  C   UNL     1       5.332   5.043  15.715  0.00  0.00    +0.000 C 
BRANCH  25  26
ATOM     26  C   UNL     1       6.066   4.740  14.520  0.00  0.00    +0.000 A 
ATOM     27  C   UNL     1       5.591   3.809  13.608  0.00  0.00    +0.000 A 
ATOM     28  C   UNL     1       6.310   3.604  12.432  0.00  0.00    +0.000 A 
ATOM     29  C   UNL     1       7.481   4.320  12.215  0.00  0.00    +0.000 A 
ATOM     30  C   UNL     1       7.896   5.206  13.197  0.00  0.00    +0.000 A 
ATOM     31  N   UNL     1       7.217   5.434  14.345  0.00  0.00    +0.000 NA
ENDBRANCH  25  26
ENDBRANCH  22  24
ENDBRANCH   3  18
TORSDOF 5
ENDMDL
MODEL 9
REMARK VINA RESULT:      -8.2      3.980     11.348
REMARK  Name = 
REMARK  6 active torsions:
REMARK  status: ('A' for Active; 'I' for Inactive)
REMARK    1  A    between atoms: C_1  and  C_2
REMARK    2  A    between atoms: C_4  and  C_5
REMARK    3  A    between atoms: N_7  and  C_8
REMARK    4  A    between atoms: C_12  and  C_13
REMARK    5  A    between atoms: C_14  and  C_15
REMARK    6  A    between atoms: N_23  and  C_24
REMARK                            x       y       z     vdW  Elec       q    Type
REMARK                         _______ _______ _______ _____ _____    ______ ____
ROOT
ATOM      1  C   UNL     1       1.436   9.231  19.168  0.00  0.00    +0.000 C 
ATOM      2  O   UNL     1       1.005   9.133  20.314  0.00  0.00    +0.000 OA
ATOM      3  N   UNL     1       1.196  10.345  18.334  0.00  0.00    +0.000 N 
ATOM      4  H   UNL     1       1.477  10.239  17.364  0.00  0.00    +0.000 HD
ENDROOT
BRANCH   1   8
ATOM      5  C   UNL     1       4.784   6.803  16.434  0.00  0.00    +0.000 C 
ATOM      6  C   UNL     1       3.761   7.104  17.464  0.00  0.00    +0.000 A 
ATOM      7  N   UNL     1       3.320   8.321  17.735  0.00  0.00    +0.000 NA
ATOM      8  C   UNL     1       2.238   8.113  18.562  0.00  0.00    +0.000 A 
ATOM      9  N   UNL     1       1.978   6.799  18.768  0.00  0.00    +0.000 NA
ATOM     10  N   UNL     1       3.015   6.151  18.162  0.00  0.00    +0.000 N 
BRANCH  10  11
ATOM     11  C   UNL     1       3.203   4.718  18.290  0.00  0.00    +0.000 A 
ATOM     12  C   UNL     1       4.157   4.188  19.179  0.00  0.00    +0.000 A 
ATOM     13  C   UNL     1       4.341   2.778  19.313  0.00  0.00    +0.000 A 
ATOM     14  C   UNL     1       3.614   1.870  18.536  0.00  0.00    +0.000 A 
ATOM     15  F   UNL     1       3.802   0.515  18.638  0.00  0.00    +0.000 F 
ATOM     16  C   UNL     1       2.690   2.395  17.633  0.00  0.00    +0.000 A 
ATOM     17  C   UNL     1       2.478   3.797  17.514  0.00  0.00    +0.000 A 
ENDBRANCH  10  11
ENDBRANCH   1   8
BRANCH   3  18
ATOM     18  C   UNL     1       0.497  11.545  18.702  0.00  0.00    +0.000 A 
ATOM     19  C   UNL     1       1.127  12.797  18.716  0.00  0.00    +0.000 A 
ATOM     20  C   UNL     1       0.447  13.954  19.115  0.00  0.00    +0.000 A 
ATOM     21  C   UNL     1      -0.883  13.885  19.520  0.00  0.00    +0.000 A 
ATOM     22  C   UNL     1      -1.554  12.659  19.505  0.00  0.00    +0.000 A 
ATOM     23  C   UNL     1      -0.871  11.498  19.065  0.00  0.00    +0.000 A 
BRANCH  22  24
ATOM     24  C   UNL     1      -2.913  12.629  19.988  0.00  0.00    +0.000 C 
ATOM     25  C   UNL     1      -4.011  12.555  20.485  0.00  0.00    +0.000 C 
BRANCH  25  26
ATOM     26  C   UNL     1      -5.309  12.451  21.090  0.00  0.00    +0.000 A 
ATOM     27  C   UNL     1      -6.400  11.997  20.365  0.00  0.00    +0.000 A 
ATOM     28  C   UNL     1      -7.620  11.851  21.021  0.00  0.00    +0.000 A 
ATOM     29  C   UNL     1      -7.713  12.179  22.368  0.00  0.00    +0.000 A 
ATOM     30  C   UNL     1      -6.578  12.656  23.004  0.00  0.00    +0.000 A 
ATOM     31  N   UNL     1      -5.377  12.800  22.398  0.00  0.00    +0.000 NA
ENDBRANCH  25  26
ENDBRANCH  22  24
ENDBRANCH   3  18
TORSDOF 5
ENDMDL
