MODEL 1
REMARK VINA RESULT:      -8.9      0.000      0.000
REMARK  Name = 
REMARK  7 active torsions:
REMARK  status: ('A' for Active; 'I' for Inactive)
REMARK    1  A    between atoms: C_2  and  C_3
REMARK    2  A    between atoms: C_3  and  C_4
REMARK    3  A    between atoms: N_15  and  C_16
REMARK    4  A    between atoms: C_16  and  C_17
REMARK    5  A    between atoms: C_16  and  C_23
REMARK    6  A    between atoms: C_23  and  C_24
REMARK    7  A    between atoms: C_24  and  O_25
REMARK                            x       y       z     vdW  Elec       q    Type
REMARK                         _______ _______ _______ _____ _____    ______ ____
ROOT
ATOM      1  O   UNL     1       1.954   8.261  19.964  0.00  0.00    +0.000 OA
ATOM      2  C   UNL     1       1.997   8.068  18.752  0.00  0.00    +0.000 C 
ATOM      3  N   UNL     1       2.757   7.083  18.172  0.00  0.00    +0.000 N 
ATOM      4  H   UNL     1       2.845   7.098  17.162  0.00  0.00    +0.000 HD
ENDROOT
BRANCH   2   5
ATOM      5  C   UNL     1       1.258   8.951  17.756  0.00  0.00    +0.000 C 
BRANCH   5   6
ATOM      6  C   UNL     1       1.237  10.359  18.273  0.00  0.00    +0.000 A 
ATOM      7  C   UNL     1       2.233  11.237  18.069  0.00  0.00    +0.000 A 
ATOM      8  C   UNL     1       2.143  12.602  18.579  0.00  0.00    +0.000 A 
ATOM      9  C   UNL     1       3.156  13.538  18.345  0.00  0.00    +0.000 A 
ATOM     10  C   UNL     1       3.032  14.842  18.836  0.00  0.00    +0.000 A 
ATOM     11  C   UNL     1       1.897  15.211  19.562  0.00  0.00    +0.000 A 
ATOM     12  C   UNL     1       0.884  14.283  19.804  0.00  0.00    +0.000 A 
ATOM     13  C   UNL     1       1.010  12.984  19.311  0.00  0.00    +0.000 A 
ATOM     14  N   UNL     1      -0.006  12.042  19.531  0.00  0.00    +0.000 N 
ATOM     15  C   UNL     1       0.027  10.761  19.057  0.00  0.00    +0.000 A 
ATOM     16  O   UNL     1      -0.891   9.972  19.249  0.00  0.00    +0.000 OA
ATOM     17  H   UNL     1      -0.827  12.303  20.066  0.00  0.00    +0.000 HD
ENDBRANCH   5   6
ENDBRANCH   2   5
BRANCH   3  18
ATOM     18  C   UNL     1       3.506   6.059  18.919  0.00  0.00    +0.000 C 
BRANCH  18  19
ATOM     19  C   UNL     1       2.538   4.975  19.403  0.00  0.00    +0.000 A 
ATOM     20  C   UNL     1       1.707   4.269  18.516  0.00  0.00    +0.000 A 
ATOM     21  C   UNL     1       0.896   3.222  18.960  0.00  0.00    +0.000 A 
ATOM     22  C   UNL     1       0.898   2.864  20.304  0.00  0.00    +0.000 A 
ATOM     23  C   UNL     1       1.688   3.568  21.208  0.00  0.00    +0.000 A 
ATOM     24  C   UNL     1       2.488   4.625  20.764  0.00  0.00    +0.000 A 
ENDBRANCH  18  19
BRANCH  18  25
ATOM     25  C   UNL     1       4.749   5.523  18.081  0.00  0.00    +0.000 C 
ATOM     26  C   UNL     1       5.451   6.692  17.330  0.00  0.00    +0.000 C 
ATOM     27  C   UNL     1       6.497   6.262  16.302  0.00  0.00    +0.000 C 
ATOM     28  C   UNL     1       5.923   5.278  15.294  0.00  0.00    +0.000 C 
ATOM     29  C   UNL     1       5.334   4.057  15.988  0.00  0.00    +0.000 C 
ATOM     30  C   UNL     1       4.297   4.445  17.044  0.00  0.00    +0.000 C 
BRANCH  25  31
ATOM     31  C   UNL     1       5.765   4.884  19.076  0.00  0.00    +0.000 C 
BRANCH  31  32
ATOM     32  O   UNL     1       5.582   3.477  19.204  0.00  0.00    +0.000 OA
ATOM     33  H   UNL     1       6.375   3.039  18.834  0.00  0.00    +0.000 HD
ENDBRANCH  31  32
ENDBRANCH  25  31
ENDBRANCH  18  25
ENDBRANCH   3  18
TORSDOF 7
ENDMDL
MODEL 2
REMARK VINA RESULT:      -8.8      1.648      2.479
REMARK  Name = 
REMARK  7 active torsions:
REMARK  status: ('A' for Active; 'I' for Inactive)
REMARK    1  A    between atoms: C_2  and  C_3
REMARK    2  A    between atoms: C_3  and  C_4
REMARK    3  A    between atoms: N_15  and  C_16
REMARK    4  A    between atoms: C_16  and  C_17
REMARK    5  A    between atoms: C_16  and  C_23
REMARK    6  A    between atoms: C_23  and  C_24
REMARK    7  A    between atoms: C_24  and  O_25
REMARK                            x       y       z     vdW  Elec       q    Type
REMARK                         _______ _______ _______ _____ _____    ______ ____
ROOT
ATOM      1  O   UNL     1       2.141   7.902  20.150  0.00  0.00    +0.000 OA
ATOM      2  C   UNL     1       2.172   7.961  18.924  0.00  0.00    +0.000 C 
ATOM      3  N   UNL     1       2.941   7.131  18.147  0.00  0.00    +0.000 N 
ATOM      4  H   UNL     1       3.015   7.355  17.161  0.00  0.00    +0.000 HD
ENDROOT
BRANCH   2   5
ATOM      5  C   UNL     1       1.405   9.016  18.137  0.00  0.00    +0.000 C 
BRANCH   5   6
ATOM      6  C   UNL     1       1.046  10.146  19.056  0.00  0.00    +0.000 A 
ATOM      7  C   UNL     1       0.175  10.025  20.071  0.00  0.00    +0.000 A 
ATOM      8  C   UNL     1      -0.116  11.158  20.945  0.00  0.00    +0.000 A 
ATOM      9  C   UNL     1      -0.994  11.039  22.028  0.00  0.00    +0.000 A 
ATOM     10  C   UNL     1      -1.240  12.140  22.855  0.00  0.00    +0.000 A 
ATOM     11  C   UNL     1      -0.610  13.361  22.600  0.00  0.00    +0.000 A 
ATOM     12  C   UNL     1       0.263  13.490  21.520  0.00  0.00    +0.000 A 
ATOM     13  C   UNL     1       0.507  12.388  20.699  0.00  0.00    +0.000 A 
ATOM     14  N   UNL     1       1.395  12.496  19.617  0.00  0.00    +0.000 N 
ATOM     15  C   UNL     1       1.711  11.459  18.786  0.00  0.00    +0.000 A 
ATOM     16  O   UNL     1       2.510  11.584  17.865  0.00  0.00    +0.000 OA
ATOM     17  H   UNL     1       1.847  13.383  19.423  0.00  0.00    +0.000 HD
ENDBRANCH   5   6
ENDBRANCH   2   5
BRANCH   3  18
ATOM     18  C   UNL     1       3.716   5.991  18.661  0.00  0.00    +0.000 C 
BRANCH  18  19
ATOM     19  C   UNL     1       2.761   4.850  19.024  0.00  0.00    +0.000 A 
ATOM     20  C   UNL     1       2.747   4.270  20.304  0.00  0.00    +0.000 A 
ATOM     21  C   UNL     1       1.810   3.293  20.648  0.00  0.00    +0.000 A 
ATOM     22  C   UNL     1       0.868   2.874  19.713  0.00  0.00    +0.000 A 
ATOM     23  C   UNL     1       0.882   3.409  18.429  0.00  0.00    +0.000 A 
ATOM     24  C   UNL     1       1.830   4.376  18.082  0.00  0.00    +0.000 A 
ENDBRANCH  18  19
BRANCH  18  25
ATOM     25  C   UNL     1       4.890   5.590  17.663  0.00  0.00    +0.000 C 
ATOM     26  C   UNL     1       4.847   6.472  16.381  0.00  0.00    +0.000 C 
ATOM     27  C   UNL     1       5.765   6.011  15.249  0.00  0.00    +0.000 C 
ATOM     28  C   UNL     1       5.514   4.558  14.879  0.00  0.00    +0.000 C 
ATOM     29  C   UNL     1       5.669   3.645  16.088  0.00  0.00    +0.000 C 
ATOM     30  C   UNL     1       4.782   4.085  17.254  0.00  0.00    +0.000 C 
BRANCH  25  31
ATOM     31  C   UNL     1       6.248   5.827  18.390  0.00  0.00    +0.000 C 
BRANCH  31  32
ATOM     32  O   UNL     1       6.289   5.209  19.672  0.00  0.00    +0.000 OA
ATOM     33  H   UNL     1       6.312   5.920  20.344  0.00  0.00    +0.000 HD
ENDBRANCH  31  32
ENDBRANCH  25  31
ENDBRANCH  18  25
ENDBRANCH   3  18
TORSDOF 7
ENDMDL
MODEL 3
REMARK VINA RESULT:      -8.8      1.557      2.229
REMARK  Name = 
REMARK  7 active torsions:
REMARK  status: ('A' for Active; 'I' for Inactive)
REMARK    1  A    between atoms: C_2  and  C_3
REMARK    2  A    between atoms: C_3  and  C_4
REMARK    3  A    between atoms: N_15  and  C_16
REMARK    4  A    between atoms: C_16  and  C_17
REMARK    5  A    between atoms: C_16  and  C_23
REMARK    6  A    between atoms: C_23  and  C_24
REMARK    7  A    between atoms: C_24  and  O_25
REMARK                            x       y       z     vdW  Elec       q    Type
REMARK                         _______ _______ _______ _____ _____    ______ ____
ROOT
ATOM      1  O   UNL     1       1.952   8.025  20.393  0.00  0.00    +0.000 OA
ATOM      2  C   UNL     1       2.004   8.037  19.166  0.00  0.00    +0.000 C 
ATOM      3  N   UNL     1       2.749   7.146  18.433  0.00  0.00    +0.000 N 
ATOM      4  H   UNL     1       2.848   7.329  17.441  0.00  0.00    +0.000 HD
ENDROOT
BRANCH   2   5
ATOM      5  C   UNL     1       1.296   9.093  18.327  0.00  0.00    +0.000 C 
BRANCH   5   6
ATOM      6  C   UNL     1       0.964  10.267  19.200  0.00  0.00    +0.000 A 
ATOM      7  C   UNL     1       0.085  10.210  20.214  0.00  0.00    +0.000 A 
ATOM      8  C   UNL     1      -0.178  11.384  21.042  0.00  0.00    +0.000 A 
ATOM      9  C   UNL     1      -1.064  11.332  22.123  0.00  0.00    +0.000 A 
ATOM     10  C   UNL     1      -1.283  12.471  22.905  0.00  0.00    +0.000 A 
ATOM     11  C   UNL     1      -0.618  13.663  22.606  0.00  0.00    +0.000 A 
ATOM     12  C   UNL     1       0.264  13.725  21.527  0.00  0.00    +0.000 A 
ATOM     13  C   UNL     1       0.481  12.586  20.751  0.00  0.00    +0.000 A 
ATOM     14  N   UNL     1       1.377  12.627  19.671  0.00  0.00    +0.000 N 
ATOM     15  C   UNL     1       1.668  11.550  18.883  0.00  0.00    +0.000 A 
ATOM     16  O   UNL     1       2.474  11.616  17.962  0.00  0.00    +0.000 OA
ATOM     17  H   UNL     1       1.854  13.492  19.446  0.00  0.00    +0.000 HD
ENDBRANCH   5   6
ENDBRANCH   2   5
BRANCH   3  18
ATOM     18  C   UNL     1       3.466   5.994  19.002  0.00  0.00    +0.000 C 
BRANCH  18  19
ATOM     19  C   UNL     1       2.462   4.885  19.336  0.00  0.00    +0.000 A 
ATOM     20  C   UNL     1       1.678   4.269  18.346  0.00  0.00    +0.000 A 
ATOM     21  C   UNL     1       0.833   3.199  18.651  0.00  0.00    +0.000 A 
ATOM     22  C   UNL     1       0.755   2.727  19.957  0.00  0.00    +0.000 A 
ATOM     23  C   UNL     1       1.497   3.341  20.962  0.00  0.00    +0.000 A 
ATOM     24  C   UNL     1       2.330   4.421  20.657  0.00  0.00    +0.000 A 
ENDBRANCH  18  19
BRANCH  18  25
ATOM     25  C   UNL     1       4.676   5.545  18.070  0.00  0.00    +0.000 C 
ATOM     26  C   UNL     1       5.228   6.757  17.264  0.00  0.00    +0.000 C 
ATOM     27  C   UNL     1       6.219   6.398  16.157  0.00  0.00    +0.000 C 
ATOM     28  C   UNL     1       5.641   5.368  15.199  0.00  0.00    +0.000 C 
ATOM     29  C   UNL     1       5.200   4.112  15.938  0.00  0.00    +0.000 C 
ATOM     30  C   UNL     1       4.223   4.429  17.072  0.00  0.00    +0.000 C 
BRANCH  25  31
ATOM     31  C   UNL     1       5.811   4.988  18.981  0.00  0.00    +0.000 C 
BRANCH  31  32
ATOM     32  O   UNL     1       5.675   3.590  19.219  0.00  0.00    +0.000 OA
ATOM     33  H   UNL     1       6.512   3.274  19.616  0.00  0.00    +0.000 HD
ENDBRANCH  31  32
ENDBRANCH  25  31
ENDBRANCH  18  25
ENDBRANCH   3  18
TORSDOF 7
ENDMDL
MODEL 4
REMARK VINA RESULT:      -8.7      1.735      2.918
REMARK  Name = 
REMARK  7 active torsions:
REMARK  status: ('A' for Active; 'I' for Inactive)
REMARK    1  A    between atoms: C_2  and  C_3
REMARK    2  A    between atoms: C_3  and  C_4
REMARK    3  A    between atoms: N_15  and  C_16
REMARK    4  A    between atoms: C_16  and  C_17
REMARK    5  A    between atoms: C_16  and  C_23
REMARK    6  A    between atoms: C_23  and  C_24
REMARK    7  A    between atoms: C_24  and  O_25
REMARK                            x       y       z     vdW  Elec       q    Type
REMARK                         _______ _______ _______ _____ _____    ______ ____
ROOT
ATOM      1  O   UNL     1       1.816   8.201  19.646  0.00  0.00    +0.000 OA
ATOM      2  C   UNL     1       2.275   8.187  18.507  0.00  0.00    +0.000 C 
ATOM      3  N   UNL     1       3.210   7.277  18.081  0.00  0.00    +0.000 N 
ATOM      4  H   UNL     1       3.637   7.440  17.175  0.00  0.00    +0.000 HD
ENDROOT
BRANCH   2   5
ATOM      5  C   UNL     1       1.900   9.230  17.462  0.00  0.00    +0.000 C 
BRANCH   5   6
ATOM      6  C   UNL     1       0.634   9.914  17.886  0.00  0.00    +0.000 A 
ATOM      7  C   UNL     1      -0.588   9.513  17.500  0.00  0.00    +0.000 A 
ATOM      8  C   UNL     1      -1.785  10.208  17.967  0.00  0.00    +0.000 A 
ATOM      9  C   UNL     1      -3.066   9.781  17.602  0.00  0.00    +0.000 A 
ATOM     10  C   UNL     1      -4.193  10.460  18.077  0.00  0.00    +0.000 A 
ATOM     11  C   UNL     1      -4.040  11.567  18.917  0.00  0.00    +0.000 A 
ATOM     12  C   UNL     1      -2.766  12.001  19.283  0.00  0.00    +0.000 A 
ATOM     13  C   UNL     1      -1.645  11.320  18.808  0.00  0.00    +0.000 A 
ATOM     14  N   UNL     1      -0.356  11.734  19.178  0.00  0.00    +0.000 N 
ATOM     15  C   UNL     1       0.789  11.104  18.782  0.00  0.00    +0.000 A 
ATOM     16  O   UNL     1       1.898  11.480  19.145  0.00  0.00    +0.000 OA
ATOM     17  H   UNL     1      -0.241  12.542  19.779  0.00  0.00    +0.000 HD
ENDBRANCH   5   6
ENDBRANCH   2   5
BRANCH   3  18
ATOM     18  C   UNL     1       3.681   6.133  18.876  0.00  0.00    +0.000 C 
BRANCH  18  19
ATOM     19  C   UNL     1       2.533   5.136  19.062  0.00  0.00    +0.000 A 
ATOM     20  C   UNL     1       1.902   4.515  17.970  0.00  0.00    +0.000 A 
ATOM     21  C   UNL     1       0.918   3.542  18.158  0.00  0.00    +0.000 A 
ATOM     22  C   UNL     1       0.543   3.173  19.447  0.00  0.00    +0.000 A 
ATOM     23  C   UNL     1       1.129   3.796  20.544  0.00  0.00    +0.000 A 
ATOM     24  C   UNL     1       2.103   4.781  20.354  0.00  0.00    +0.000 A 
ENDBRANCH  18  19
BRANCH  18  25
ATOM     25  C   UNL     1       5.015   5.512  18.267  0.00  0.00    +0.000 C 
ATOM     26  C   UNL     1       5.977   6.640  17.790  0.00  0.00    +0.000 C 
ATOM     27  C   UNL     1       7.171   6.161  16.964  0.00  0.00    +0.000 C 
ATOM     28  C   UNL     1       6.731   5.326  15.772  0.00  0.00    +0.000 C 
ATOM     29  C   UNL     1       5.886   4.138  16.212  0.00  0.00    +0.000 C 
ATOM     30  C   UNL     1       4.690   4.571  17.062  0.00  0.00    +0.000 C 
BRANCH  25  31
ATOM     31  C   UNL     1       5.723   4.689  19.385  0.00  0.00    +0.000 C 
BRANCH  31  32
ATOM     32  O   UNL     1       5.392   3.305  19.327  0.00  0.00    +0.000 OA
ATOM     33  H   UNL     1       5.293   3.063  18.383  0.00  0.00    +0.000 HD
ENDBRANCH  31  32
ENDBRANCH  25  31
ENDBRANCH  18  25
ENDBRANCH   3  18
TORSDOF 7
ENDMDL
MODEL 5
REMARK VINA RESULT:      -8.6      0.600      1.020
REMARK  Name = 
REMARK  7 active torsions:
REMARK  status: ('A' for Active; 'I' for Inactive)
REMARK    1  A    between atoms: C_2  and  C_3
REMARK    2  A    between atoms: C_3  and  C_4
REMARK    3  A    between atoms: N_15  and  C_16
REMARK    4  A    between atoms: C_16  and  C_17
REMARK    5  A    between atoms: C_16  and  C_23
REMARK    6  A    between atoms: C_23  and  C_24
REMARK    7  A    between atoms: C_24  and  O_25
REMARK                            x       y       z     vdW  Elec       q    Type
REMARK                         _______ _______ _______ _____ _____    ______ ____
ROOT
ATOM      1  O   UNL     1       2.018   8.303  20.046  0.00  0.00    +0.000 OA
ATOM      2  C   UNL     1       2.022   8.008  18.854  0.00  0.00    +0.000 C 
ATOM      3  N   UNL     1       2.737   6.955  18.340  0.00  0.00    +0.000 N 
ATOM      4  H   UNL     1       2.797   6.883  17.330  0.00  0.00    +0.000 HD
ENDROOT
BRANCH   2   5
ATOM      5  C   UNL     1       1.282   8.828  17.805  0.00  0.00    +0.000 C 
BRANCH   5   6
ATOM      6  C   UNL     1       1.224  10.258  18.255  0.00  0.00    +0.000 A 
ATOM      7  C   UNL     1       2.223  11.135  18.061  0.00  0.00    +0.000 A 
ATOM      8  C   UNL     1       2.096  12.521  18.503  0.00  0.00    +0.000 A 
ATOM      9  C   UNL     1       3.113  13.455  18.278  0.00  0.00    +0.000 A 
ATOM     10  C   UNL     1       2.954  14.779  18.701  0.00  0.00    +0.000 A 
ATOM     11  C   UNL     1       1.781  15.170  19.351  0.00  0.00    +0.000 A 
ATOM     12  C   UNL     1       0.764  14.244  19.583  0.00  0.00    +0.000 A 
ATOM     13  C   UNL     1       0.925  12.925  19.157  0.00  0.00    +0.000 A 
ATOM     14  N   UNL     1      -0.094  11.984  19.369  0.00  0.00    +0.000 N 
ATOM     15  C   UNL     1      -0.027  10.684  18.957  0.00  0.00    +0.000 A 
ATOM     16  O   UNL     1      -0.948   9.895  19.138  0.00  0.00    +0.000 OA
ATOM     17  H   UNL     1      -0.943  12.262  19.849  0.00  0.00    +0.000 HD
ENDBRANCH   5   6
ENDBRANCH   2   5
BRANCH   3  18
ATOM     18  C   UNL     1       3.475   5.974  19.151  0.00  0.00    +0.000 C 
BRANCH  18  19
ATOM     19  C   UNL     1       2.519   4.865  19.602  0.00  0.00    +0.000 A 
ATOM     20  C   UNL     1       1.664   4.207  18.701  0.00  0.00    +0.000 A 
ATOM     21  C   UNL     1       0.863   3.138  19.109  0.00  0.00    +0.000 A 
ATOM     22  C   UNL     1       0.900   2.709  20.432  0.00  0.00    +0.000 A 
ATOM     23  C   UNL     1       1.713   3.364  21.351  0.00  0.00    +0.000 A 
ATOM     24  C   UNL     1       2.503   4.444  20.944  0.00  0.00    +0.000 A 
ENDBRANCH  18  19
BRANCH  18  25
ATOM     25  C   UNL     1       4.784   5.466  18.399  0.00  0.00    +0.000 C 
ATOM     26  C   UNL     1       6.050   5.720  19.269  0.00  0.00    +0.000 C 
ATOM     27  C   UNL     1       7.380   5.504  18.548  0.00  0.00    +0.000 C 
ATOM     28  C   UNL     1       7.466   6.322  17.269  0.00  0.00    +0.000 C 
ATOM     29  C   UNL     1       6.305   6.009  16.335  0.00  0.00    +0.000 C 
ATOM     30  C   UNL     1       4.951   6.191  17.025  0.00  0.00    +0.000 C 
BRANCH  25  31
ATOM     31  C   UNL     1       4.640   3.933  18.157  0.00  0.00    +0.000 C 
BRANCH  31  32
ATOM     32  O   UNL     1       5.309   3.164  19.152  0.00  0.00    +0.000 OA
ATOM     33  H   UNL     1       4.670   2.995  19.875  0.00  0.00    +0.000 HD
ENDBRANCH  31  32
ENDBRANCH  25  31
ENDBRANCH  18  25
ENDBRANCH   3  18
TORSDOF 7
ENDMDL
MODEL 6
REMARK VINA RESULT:      -8.6      1.651      1.945
REMARK  Name = 
REMARK  7 active torsions:
REMARK  status: ('A' for Active; 'I' for Inactive)
REMARK    1  A    between atoms: C_2  and  C_3
REMARK    2  A    between atoms: C_3  and  C_4
REMARK    3  A    between atoms: N_15  and  C_16
REMARK    4  A    between atoms: C_16  and  C_17
REMARK    5  A    between atoms: C_16  and  C_23
REMARK    6  A    between atoms: C_23  and  C_24
REMARK    7  A    between atoms: C_24  and  O_25
REMARK                            x       y       z     vdW  Elec       q    Type
REMARK                         _______ _______ _______ _____ _____    ______ ____
ROOT
ATOM      1  O   UNL     1       1.812   8.144  19.961  0.00  0.00    +0.000 OA
ATOM      2  C   UNL     1       2.040   8.122  18.755  0.00  0.00    +0.000 C 
ATOM      3  N   UNL     1       2.896   7.225  18.165  0.00  0.00    +0.000 N 
ATOM      4  H   UNL     1       3.134   7.382  17.192  0.00  0.00    +0.000 HD
ENDROOT
BRANCH   2   5
ATOM      5  C   UNL     1       1.443   9.138  17.790  0.00  0.00    +0.000 C 
BRANCH   5   6
ATOM      6  C   UNL     1       0.526  10.051  18.549  0.00  0.00    +0.000 A 
ATOM      7  C   UNL     1       0.906  10.746  19.634  0.00  0.00    +0.000 A 
ATOM      8  C   UNL     1      -0.029  11.637  20.316  0.00  0.00    +0.000 A 
ATOM      9  C   UNL     1       0.361  12.394  21.425  0.00  0.00    +0.000 A 
ATOM     10  C   UNL     1      -0.555  13.249  22.047  0.00  0.00    +0.000 A 
ATOM     11  C   UNL     1      -1.861  13.347  21.562  0.00  0.00    +0.000 A 
ATOM     12  C   UNL     1      -2.260  12.593  20.458  0.00  0.00    +0.000 A 
ATOM     13  C   UNL     1      -1.342  11.743  19.840  0.00  0.00    +0.000 A 
ATOM     14  N   UNL     1      -1.722  10.988  18.719  0.00  0.00    +0.000 N 
ATOM     15  C   UNL     1      -0.878  10.158  18.039  0.00  0.00    +0.000 A 
ATOM     16  O   UNL     1      -1.238   9.532  17.048  0.00  0.00    +0.000 OA
ATOM     17  H   UNL     1      -2.672  11.050  18.370  0.00  0.00    +0.000 HD
ENDBRANCH   5   6
ENDBRANCH   2   5
BRANCH   3  18
ATOM     18  C   UNL     1       3.542   6.105  18.867  0.00  0.00    +0.000 C 
BRANCH  18  19
ATOM     19  C   UNL     1       2.491   5.043  19.204  0.00  0.00    +0.000 A 
ATOM     20  C   UNL     1       1.753   4.383  18.205  0.00  0.00    +0.000 A 
ATOM     21  C   UNL     1       0.864   3.354  18.521  0.00  0.00    +0.000 A 
ATOM     22  C   UNL     1       0.692   2.967  19.847  0.00  0.00    +0.000 A 
ATOM     23  C   UNL     1       1.387   3.626  20.857  0.00  0.00    +0.000 A 
ATOM     24  C   UNL     1       2.266   4.666  20.540  0.00  0.00    +0.000 A 
ENDBRANCH  18  19
BRANCH  18  25
ATOM     25  C   UNL     1       4.806   5.567  18.062  0.00  0.00    +0.000 C 
ATOM     26  C   UNL     1       5.515   6.731  17.310  0.00  0.00    +0.000 C 
ATOM     27  C   UNL     1       6.584   6.295  16.308  0.00  0.00    +0.000 C 
ATOM     28  C   UNL     1       6.037   5.294  15.302  0.00  0.00    +0.000 C 
ATOM     29  C   UNL     1       5.443   4.079  16.000  0.00  0.00    +0.000 C 
ATOM     30  C   UNL     1       4.382   4.472  17.030  0.00  0.00    +0.000 C 
BRANCH  25  31
ATOM     31  C   UNL     1       5.806   4.948  19.084  0.00  0.00    +0.000 C 
BRANCH  31  32
ATOM     32  O   UNL     1       5.607   3.547  19.253  0.00  0.00    +0.000 OA
ATOM     33  H   UNL     1       4.864   3.281  18.674  0.00  0.00    +0.000 HD
ENDBRANCH  31  32
ENDBRANCH  25  31
ENDBRANCH  18  25
ENDBRANCH   3  18
TORSDOF 7
ENDMDL
MODEL 7
REMARK VINA RESULT:      -8.6      2.381      4.732
REMARK  Name = 
REMARK  7 active torsions:
REMARK  status: ('A' for Active; 'I' for Inactive)
REMARK    1  A    between atoms: C_2  and  C_3
REMARK    2  A    between atoms: C_3  and  C_4
REMARK    3  A    between atoms: N_15  and  C_16
REMARK    4  A    between atoms: C_16  and  C_17
REMARK    5  A    between atoms: C_16  and  C_23
REMARK    6  A    between atoms: C_23  and  C_24
REMARK    7  A    between atoms: C_24  and  O_25
REMARK                            x       y       z     vdW  Elec       q    Type
REMARK                         _______ _______ _______ _____ _____    ______ ____
ROOT
ATOM      1  O   UNL     1       2.178   8.559  17.277  0.00  0.00    +0.000 OA
ATOM      2  C   UNL     1       2.165   8.341  18.486  0.00  0.00    +0.000 C 
ATOM      3  N   UNL     1       2.463   7.119  19.036  0.00  0.00    +0.000 N 
ATOM      4  H   UNL     1       2.279   6.998  20.026  0.00  0.00    +0.000 HD
ENDROOT
BRANCH   2   5
ATOM      5  C   UNL     1       1.748   9.396  19.503  0.00  0.00    +0.000 C 
BRANCH   5   6
ATOM      6  C   UNL     1       0.407   9.945  19.115  0.00  0.00    +0.000 A 
ATOM      7  C   UNL     1      -0.209   9.644  17.960  0.00  0.00    +0.000 A 
ATOM      8  C   UNL     1      -1.526  10.194  17.650  0.00  0.00    +0.000 A 
ATOM      9  C   UNL     1      -2.197   9.863  16.468  0.00  0.00    +0.000 A 
ATOM     10  C   UNL     1      -3.463  10.396  16.208  0.00  0.00    +0.000 A 
ATOM     11  C   UNL     1      -4.061  11.262  17.128  0.00  0.00    +0.000 A 
ATOM     12  C   UNL     1      -3.398  11.600  18.308  0.00  0.00    +0.000 A 
ATOM     13  C   UNL     1      -2.135  11.065  18.564  0.00  0.00    +0.000 A 
ATOM     14  N   UNL     1      -1.460  11.383  19.753  0.00  0.00    +0.000 N 
ATOM     15  C   UNL     1      -0.237  10.878  20.092  0.00  0.00    +0.000 A 
ATOM     16  O   UNL     1       0.312  11.159  21.152  0.00  0.00    +0.000 OA
ATOM     17  H   UNL     1      -1.886  12.018  20.419  0.00  0.00    +0.000 HD
ENDBRANCH   5   6
ENDBRANCH   2   5
BRANCH   3  18
ATOM     18  C   UNL     1       2.959   5.962  18.275  0.00  0.00    +0.000 C 
BRANCH  18  19
ATOM     19  C   UNL     1       4.485   6.037  18.173  0.00  0.00    +0.000 A 
ATOM     20  C   UNL     1       5.322   5.661  19.238  0.00  0.00    +0.000 A 
ATOM     21  C   UNL     1       6.712   5.650  19.099  0.00  0.00    +0.000 A 
ATOM     22  C   UNL     1       7.292   6.020  17.890  0.00  0.00    +0.000 A 
ATOM     23  C   UNL     1       6.487   6.427  16.830  0.00  0.00    +0.000 A 
ATOM     24  C   UNL     1       5.097   6.452  16.976  0.00  0.00    +0.000 A 
ENDBRANCH  18  19
BRANCH  18  25
ATOM     25  C   UNL     1       2.393   4.595  18.863  0.00  0.00    +0.000 C 
ATOM     26  C   UNL     1       1.623   4.845  20.193  0.00  0.00    +0.000 C 
ATOM     27  C   UNL     1       1.255   3.583  20.973  0.00  0.00    +0.000 C 
ATOM     28  C   UNL     1       2.473   2.715  21.243  0.00  0.00    +0.000 C 
ATOM     29  C   UNL     1       3.186   2.345  19.950  0.00  0.00    +0.000 C 
ATOM     30  C   UNL     1       3.553   3.581  19.126  0.00  0.00    +0.000 C 
BRANCH  25  31
ATOM     31  C   UNL     1       1.407   3.987  17.820  0.00  0.00    +0.000 C 
BRANCH  31  32
ATOM     32  O   UNL     1       2.083   3.248  16.807  0.00  0.00    +0.000 OA
ATOM     33  H   UNL     1       1.460   2.574  16.466  0.00  0.00    +0.000 HD
ENDBRANCH  31  32
ENDBRANCH  25  31
ENDBRANCH  18  25
ENDBRANCH   3  18
TORSDOF 7
ENDMDL
MODEL 8
REMARK VINA RESULT:      -8.5      1.659      2.616
REMARK  Name = 
REMARK  7 active torsions:
REMARK  status: ('A' for Active; 'I' for Inactive)
REMARK    1  A    between atoms: C_2  and  C_3
REMARK    2  A    between atoms: C_3  and  C_4
REMARK    3  A    between atoms: N_15  and  C_16
REMARK    4  A    between atoms: C_16  and  C_17
REMARK    5  A    between atoms: C_16  and  C_23
REMARK    6  A    between atoms: C_23  and  C_24
REMARK    7  A    between atoms: C_24  and  O_25
REMARK                            x       y       z     vdW  Elec       q    Type
REMARK                         _______ _______ _______ _____ _____    ______ ____
ROOT
ATOM      1  O   UNL     1       1.943   7.875  20.533  0.00  0.00    +0.000 OA
ATOM      2  C   UNL     1       2.056   7.872  19.310  0.00  0.00    +0.000 C 
ATOM      3  N   UNL     1       2.845   6.982  18.626  0.00  0.00    +0.000 N 
ATOM      4  H   UNL     1       2.991   7.154  17.637  0.00  0.00    +0.000 HD
ENDROOT
BRANCH   2   5
ATOM      5  C   UNL     1       1.376   8.909  18.424  0.00  0.00    +0.000 C 
BRANCH   5   6
ATOM      6  C   UNL     1       1.010  10.100  19.259  0.00  0.00    +0.000 A 
ATOM      7  C   UNL     1       0.145  10.045  20.285  0.00  0.00    +0.000 A 
ATOM      8  C   UNL     1      -0.153  11.237  21.075  0.00  0.00    +0.000 A 
ATOM      9  C   UNL     1      -1.024  11.189  22.169  0.00  0.00    +0.000 A 
ATOM     10  C   UNL     1      -1.278  12.345  22.913  0.00  0.00    +0.000 A 
ATOM     11  C   UNL     1      -0.663  13.551  22.565  0.00  0.00    +0.000 A 
ATOM     12  C   UNL     1       0.204  13.608  21.474  0.00  0.00    +0.000 A 
ATOM     13  C   UNL     1       0.456  12.452  20.735  0.00  0.00    +0.000 A 
ATOM     14  N   UNL     1       1.337  12.489  19.643  0.00  0.00    +0.000 N 
ATOM     15  C   UNL     1       1.660  11.397  18.889  0.00  0.00    +0.000 A 
ATOM     16  O   UNL     1       2.452  11.461  17.956  0.00  0.00    +0.000 OA
ATOM     17  H   UNL     1       1.777  13.363  19.381  0.00  0.00    +0.000 HD
ENDBRANCH   5   6
ENDBRANCH   2   5
BRANCH   3  18
ATOM     18  C   UNL     1       3.547   5.846  19.244  0.00  0.00    +0.000 C 
BRANCH  18  19
ATOM     19  C   UNL     1       2.556   4.702  19.477  0.00  0.00    +0.000 A 
ATOM     20  C   UNL     1       2.343   4.148  20.751  0.00  0.00    +0.000 A 
ATOM     21  C   UNL     1       1.372   3.167  20.963  0.00  0.00    +0.000 A 
ATOM     22  C   UNL     1       0.594   2.719  19.900  0.00  0.00    +0.000 A 
ATOM     23  C   UNL     1       0.806   3.228  18.623  0.00  0.00    +0.000 A 
ATOM     24  C   UNL     1       1.790   4.198  18.409  0.00  0.00    +0.000 A 
ENDBRANCH  18  19
BRANCH  18  25
ATOM     25  C   UNL     1       4.849   5.448  18.417  0.00  0.00    +0.000 C 
ATOM     26  C   UNL     1       6.135   5.726  19.249  0.00  0.00    +0.000 C 
ATOM     27  C   UNL     1       7.444   5.618  18.467  0.00  0.00    +0.000 C 
ATOM     28  C   UNL     1       7.433   6.503  17.230  0.00  0.00    +0.000 C 
ATOM     29  C   UNL     1       6.253   6.176  16.327  0.00  0.00    +0.000 C 
ATOM     30  C   UNL     1       4.921   6.249  17.077  0.00  0.00    +0.000 C 
BRANCH  25  31
ATOM     31  C   UNL     1       4.775   3.924  18.100  0.00  0.00    +0.000 C 
BRANCH  31  32
ATOM     32  O   UNL     1       5.405   3.133  19.103  0.00  0.00    +0.000 OA
ATOM     33  H   UNL     1       4.702   2.664  19.597  0.00  0.00    +0.000 HD
ENDBRANCH  31  32
ENDBRANCH  25  31
ENDBRANCH  18  25
ENDBRANCH   3  18
TORSDOF 7
ENDMDL
MODEL 9
REMARK VINA RESULT:      -8.4      1.125      1.868
REMARK  Name = 
REMARK  7 active torsions:
REMARK  status: ('A' for Active; 'I' for Inactive)
REMARK    1  A    between atoms: C_2  and  C_3
REMARK    2  A    between atoms: C_3  and  C_4
REMARK    3  A    between atoms: N_15  and  C_16
REMARK    4  A    between atoms: C_16  and  C_17
REMARK    5  A    between atoms: C_16  and  C_23
REMARK    6  A    between atoms: C_23  and  C_24
REMARK    7  A    between atoms: C_24  and  O_25
REMARK                            x       y       z     vdW  Elec       q    Type
REMARK                         _______ _______ _______ _____ _____    ______ ____
ROOT
ATOM      1  O   UNL     1       2.088   8.111  19.907  0.00  0.00    +0.000 OA
ATOM      2  C   UNL     1       2.157   7.929  18.695  0.00  0.00    +0.000 C 
ATOM      3  N   UNL     1       2.971   6.985  18.118  0.00  0.00    +0.000 N 
ATOM      4  H   UNL     1       3.072   7.013  17.110  0.00  0.00    +0.000 HD
ENDROOT
BRANCH   2   5
ATOM      5  C   UNL     1       1.390   8.784  17.694  0.00  0.00    +0.000 C 
BRANCH   5   6
ATOM      6  C   UNL     1       1.326  10.193  18.204  0.00  0.00    +0.000 A 
ATOM      7  C   UNL     1       2.300  11.096  18.005  0.00  0.00    +0.000 A 
ATOM      8  C   UNL     1       2.166  12.461  18.508  0.00  0.00    +0.000 A 
ATOM      9  C   UNL     1       3.156  13.423  18.280  0.00  0.00    +0.000 A 
ATOM     10  C   UNL     1       2.991  14.725  18.763  0.00  0.00    +0.000 A 
ATOM     11  C   UNL     1       1.839  15.067  19.476  0.00  0.00    +0.000 A 
ATOM     12  C   UNL     1       0.850  14.113  19.712  0.00  0.00    +0.000 A 
ATOM     13  C   UNL     1       1.017  12.815  19.226  0.00  0.00    +0.000 A 
ATOM     14  N   UNL     1       0.024  11.847  19.441  0.00  0.00    +0.000 N 
ATOM     15  C   UNL     1       0.097  10.565  18.974  0.00  0.00    +0.000 A 
ATOM     16  O   UNL     1      -0.801   9.752  19.160  0.00  0.00    +0.000 OA
ATOM     17  H   UNL     1      -0.809  12.088  19.966  0.00  0.00    +0.000 HD
ENDBRANCH   5   6
ENDBRANCH   2   5
BRANCH   3  18
ATOM     18  C   UNL     1       3.757   5.993  18.869  0.00  0.00    +0.000 C 
BRANCH  18  19
ATOM     19  C   UNL     1       2.965   4.686  18.965  0.00  0.00    +0.000 A 
ATOM     20  C   UNL     1       3.217   3.735  19.969  0.00  0.00    +0.000 A 
ATOM     21  C   UNL     1       2.427   2.590  20.100  0.00  0.00    +0.000 A 
ATOM     22  C   UNL     1       1.370   2.373  19.222  0.00  0.00    +0.000 A 
ATOM     23  C   UNL     1       1.119   3.283  18.199  0.00  0.00    +0.000 A 
ATOM     24  C   UNL     1       1.920   4.420  18.061  0.00  0.00    +0.000 A 
ENDBRANCH  18  19
BRANCH  18  25
ATOM     25  C   UNL     1       5.226   5.845  18.272  0.00  0.00    +0.000 C 
ATOM     26  C   UNL     1       6.237   5.455  19.390  0.00  0.00    +0.000 C 
ATOM     27  C   UNL     1       7.708   5.530  18.984  0.00  0.00    +0.000 C 
ATOM     28  C   UNL     1       8.067   6.898  18.425  0.00  0.00    +0.000 C 
ATOM     29  C   UNL     1       7.176   7.264  17.245  0.00  0.00    +0.000 C 
ATOM     30  C   UNL     1       5.691   7.179  17.602  0.00  0.00    +0.000 C 
BRANCH  25  31
ATOM     31  C   UNL     1       5.202   4.714  17.200  0.00  0.00    +0.000 C 
BRANCH  31  32
ATOM     32  O   UNL     1       4.704   5.169  15.946  0.00  0.00    +0.000 OA
ATOM     33  H   UNL     1       4.667   6.147  15.979  0.00  0.00    +0.000 HD
ENDBRANCH  31  32
ENDBRANCH  25  31
ENDBRANCH  18  25
ENDBRANCH   3  18
TORSDOF 7
ENDMDL
