MODEL 1
REMARK VINA RESULT:      -9.1      0.000      0.000
REMARK  Name = 
REMARK  6 active torsions:
REMARK  status: ('A' for Active; 'I' for Inactive)
REMARK    1  A    between atoms: S_2  and  N_4
REMARK    2  A    between atoms: S_2  and  C_11
REMARK    3  A    between atoms: N_4  and  C_5
REMARK    4  A    between atoms: C_5  and  C_6
REMARK    5  A    between atoms: C_15  and  N_16
REMARK    6  A    between atoms: N_16  and  C_17
REMARK                            x       y       z     vdW  Elec       q    Type
REMARK                         _______ _______ _______ _____ _____    ______ ____
ROOT
ATOM      1  C   UNL     1       2.931   3.281  19.693  0.00  0.00    +0.000 A 
ATOM      2  C   UNL     1       1.748   2.611  20.017  0.00  0.00    +0.000 A 
ATOM      3  C   UNL     1       0.658   3.332  20.480  0.00  0.00    +0.000 A 
ATOM      4  C   UNL     1       0.763   4.713  20.636  0.00  0.00    +0.000 A 
ATOM      5  C   UNL     1       1.944   5.408  20.329  0.00  0.00    +0.000 A 
ATOM      6  C   UNL     1       3.042   4.674  19.855  0.00  0.00    +0.000 A 
ENDROOT
BRANCH   1   8
ATOM      7  O   UNL     1       3.843   1.208  18.414  0.00  0.00    +0.000 OA
ATOM      8  S   UNL     1       4.341   2.295  19.233  0.00  0.00    +0.000 S 
ATOM      9  O   UNL     1       5.118   2.047  20.426  0.00  0.00    +0.000 OA
BRANCH   8  10
ATOM     10  N   UNL     1       5.204   3.324  18.210  0.00  0.00    +0.000 NA
ATOM     11  H   UNL     1       6.152   2.996  18.038  0.00  0.00    +0.000 HD
BRANCH  10  12
ATOM     12  C   UNL     1       4.499   3.654  16.962  0.00  0.00    +0.000 C 
BRANCH  12  13
ATOM     13  C   UNL     1       5.484   4.151  15.967  0.00  0.00    +0.000 A 
ATOM     14  C   UNL     1       5.513   4.170  14.586  0.00  0.00    +0.000 A 
ATOM     15  C   UNL     1       6.771   4.712  14.224  0.00  0.00    +0.000 A 
ATOM     16  C   UNL     1       7.420   4.993  15.404  0.00  0.00    +0.000 A 
ATOM     17  O   UNL     1       6.642   4.667  16.469  0.00  0.00    +0.000 OA
ENDBRANCH  12  13
ENDBRANCH  10  12
ENDBRANCH   8  10
ENDBRANCH   1   8
BRANCH   5  18
ATOM     18  N   UNL     1       2.054   6.788  20.620  0.00  0.00    +0.000 N 
ATOM     19  H   UNL     1       2.735   7.029  21.328  0.00  0.00    +0.000 HD
BRANCH  18  20
ATOM     20  C   UNL     1       1.900   7.848  19.700  0.00  0.00    +0.000 A 
ATOM     21  N   UNL     1       2.404   7.722  18.447  0.00  0.00    +0.000 NA
ATOM     22  C   UNL     1       2.301   8.745  17.589  0.00  0.00    +0.000 A 
ATOM     23  N   UNL     1       1.737   9.934  17.803  0.00  0.00    +0.000 NA
ATOM     24  C   UNL     1       1.233  10.040  19.043  0.00  0.00    +0.000 A 
ATOM     25  S   UNL     1       0.464  11.498  19.544  0.00  0.00    +0.000 S 
ATOM     26  C   UNL     1       0.163  10.842  21.048  0.00  0.00    +0.000 A 
ATOM     27  C   UNL     1       0.604   9.554  21.197  0.00  0.00    +0.000 A 
ATOM     28  C   UNL     1       1.269   9.063  20.041  0.00  0.00    +0.000 A 
ATOM     29  C   UNL     1       0.264   9.036  22.547  0.00  0.00    +0.000 C 
ATOM     30  C   UNL     1      -0.764  10.095  23.060  0.00  0.00    +0.000 C 
ATOM     31  C   UNL     1      -0.499  11.400  22.250  0.00  0.00    +0.000 C 
ENDBRANCH  18  20
ENDBRANCH   5  18
TORSDOF 6
ENDMDL
MODEL 2
REMARK VINA RESULT:      -9.0      1.197      1.367
REMARK  Name = 
REMARK  6 active torsions:
REMARK  status: ('A' for Active; 'I' for Inactive)
REMARK    1  A    between atoms: S_2  and  N_4
REMARK    2  A    between atoms: S_2  and  C_11
REMARK    3  A    between atoms: N_4  and  C_5
REMARK    4  A    between atoms: C_5  and  C_6
REMARK    5  A    between atoms: C_15  and  N_16
REMARK    6  A    between atoms: N_16  and  C_17
REMARK                            x       y       z     vdW  Elec       q    Type
REMARK                         _______ _______ _______ _____ _____    ______ ____
ROOT
ATOM      1  C   UNL     1       3.033   3.281  19.951  0.00  0.00    +0.000 A 
ATOM      2  C   UNL     1       1.805   2.615  20.006  0.00  0.00    +0.000 A 
ATOM      3  C   UNL     1       0.644   3.339  20.230  0.00  0.00    +0.000 A 
ATOM      4  C   UNL     1       0.719   4.717  20.418  0.00  0.00    +0.000 A 
ATOM      5  C   UNL     1       1.940   5.408  20.378  0.00  0.00    +0.000 A 
ATOM      6  C   UNL     1       3.112   4.671  20.145  0.00  0.00    +0.000 A 
ENDROOT
BRANCH   1   8
ATOM      7  O   UNL     1       4.269   1.356  18.713  0.00  0.00    +0.000 OA
ATOM      8  S   UNL     1       4.504   2.290  19.795  0.00  0.00    +0.000 S 
ATOM      9  O   UNL     1       4.875   1.836  21.116  0.00  0.00    +0.000 OA
BRANCH   8  10
ATOM     10  N   UNL     1       5.651   3.400  19.245  0.00  0.00    +0.000 NA
ATOM     11  H   UNL     1       6.569   2.980  19.117  0.00  0.00    +0.000 HD
BRANCH  10  12
ATOM     12  C   UNL     1       5.223   4.163  18.062  0.00  0.00    +0.000 C 
BRANCH  12  13
ATOM     13  C   UNL     1       6.145   5.311  17.868  0.00  0.00    +0.000 A 
ATOM     14  C   UNL     1       6.407   6.151  16.803  0.00  0.00    +0.000 A 
ATOM     15  C   UNL     1       7.457   7.005  17.220  0.00  0.00    +0.000 A 
ATOM     16  C   UNL     1       7.760   6.636  18.510  0.00  0.00    +0.000 A 
ATOM     17  O   UNL     1       6.961   5.615  18.918  0.00  0.00    +0.000 OA
ENDBRANCH  12  13
ENDBRANCH  10  12
ENDBRANCH   8  10
ENDBRANCH   1   8
BRANCH   5  18
ATOM     18  N   UNL     1       1.991   6.785  20.699  0.00  0.00    +0.000 N 
ATOM     19  H   UNL     1       2.634   7.035  21.438  0.00  0.00    +0.000 HD
BRANCH  18  20
ATOM     20  C   UNL     1       1.837   7.857  19.792  0.00  0.00    +0.000 A 
ATOM     21  N   UNL     1       2.340   7.747  18.538  0.00  0.00    +0.000 NA
ATOM     22  C   UNL     1       2.238   8.781  17.693  0.00  0.00    +0.000 A 
ATOM     23  N   UNL     1       1.675   9.968  17.923  0.00  0.00    +0.000 NA
ATOM     24  C   UNL     1       1.171  10.058  19.164  0.00  0.00    +0.000 A 
ATOM     25  S   UNL     1       0.404  11.509  19.684  0.00  0.00    +0.000 S 
ATOM     26  C   UNL     1       0.103  10.834  21.180  0.00  0.00    +0.000 A 
ATOM     27  C   UNL     1       0.543   9.545  21.312  0.00  0.00    +0.000 A 
ATOM     28  C   UNL     1       1.207   9.068  20.150  0.00  0.00    +0.000 A 
ATOM     29  C   UNL     1       0.203   9.009  22.655  0.00  0.00    +0.000 C 
ATOM     30  C   UNL     1      -0.824  10.062  23.183  0.00  0.00    +0.000 C 
ATOM     31  C   UNL     1      -0.558  11.377  22.390  0.00  0.00    +0.000 C 
ENDBRANCH  18  20
ENDBRANCH   5  18
TORSDOF 6
ENDMDL
MODEL 3
REMARK VINA RESULT:      -9.0      4.268      8.589
REMARK  Name = 
REMARK  6 active torsions:
REMARK  status: ('A' for Active; 'I' for Inactive)
REMARK    1  A    between atoms: S_2  and  N_4
REMARK    2  A    between atoms: S_2  and  C_11
REMARK    3  A    between atoms: N_4  and  C_5
REMARK    4  A    between atoms: C_5  and  C_6
REMARK    5  A    between atoms: C_15  and  N_16
REMARK    6  A    between atoms: N_16  and  C_17
REMARK                            x       y       z     vdW  Elec       q    Type
REMARK                         _______ _______ _______ _____ _____    ______ ____
ROOT
ATOM      1  C   UNL     1       0.994   9.947  19.785  0.00  0.00    +0.000 A 
ATOM      2  C   UNL     1       1.273  10.215  18.442  0.00  0.00    +0.000 A 
ATOM      3  C   UNL     1       1.940   9.268  17.680  0.00  0.00    +0.000 A 
ATOM      4  C   UNL     1       2.342   8.071  18.269  0.00  0.00    +0.000 A 
ATOM      5  C   UNL     1       2.083   7.782  19.618  0.00  0.00    +0.000 A 
ATOM      6  C   UNL     1       1.403   8.743  20.383  0.00  0.00    +0.000 A 
ENDROOT
BRANCH   1   8
ATOM      7  O   UNL     1       0.843  12.493  20.298  0.00  0.00    +0.000 OA
ATOM      8  S   UNL     1       0.256  11.249  20.751  0.00  0.00    +0.000 S 
ATOM      9  O   UNL     1       0.305  10.852  22.140  0.00  0.00    +0.000 OA
BRANCH   8  10
ATOM     10  N   UNL     1      -1.349  11.244  20.227  0.00  0.00    +0.000 NA
ATOM     11  H   UNL     1      -2.006  11.423  20.984  0.00  0.00    +0.000 HD
BRANCH  10  12
ATOM     12  C   UNL     1      -1.599  12.110  19.064  0.00  0.00    +0.000 C 
BRANCH  12  13
ATOM     13  C   UNL     1      -2.341  11.335  18.036  0.00  0.00    +0.000 A 
ATOM     14  C   UNL     1      -2.009  10.264  17.230  0.00  0.00    +0.000 A 
ATOM     15  C   UNL     1      -3.132  10.031  16.399  0.00  0.00    +0.000 A 
ATOM     16  C   UNL     1      -4.073  10.967  16.757  0.00  0.00    +0.000 A 
ATOM     17  O   UNL     1      -3.608  11.757  17.759  0.00  0.00    +0.000 OA
ENDBRANCH  12  13
ENDBRANCH  10  12
ENDBRANCH   8  10
ENDBRANCH   1   8
BRANCH   5  18
ATOM     18  N   UNL     1       2.617   6.615  20.212  0.00  0.00    +0.000 N 
ATOM     19  H   UNL     1       2.900   6.710  21.179  0.00  0.00    +0.000 HD
BRANCH  18  20
ATOM     20  C   UNL     1       2.221   5.287  19.940  0.00  0.00    +0.000 A 
ATOM     21  N   UNL     1       1.239   4.718  20.684  0.00  0.00    +0.000 NA
ATOM     22  C   UNL     1       0.896   3.444  20.459  0.00  0.00    +0.000 A 
ATOM     23  N   UNL     1       1.409   2.610  19.554  0.00  0.00    +0.000 NA
ATOM     24  C   UNL     1       2.371   3.189  18.818  0.00  0.00    +0.000 A 
ATOM     25  S   UNL     1       3.182   2.293  17.592  0.00  0.00    +0.000 S 
ATOM     26  C   UNL     1       4.114   3.623  17.212  0.00  0.00    +0.000 A 
ATOM     27  C   UNL     1       3.837   4.735  17.962  0.00  0.00    +0.000 A 
ATOM     28  C   UNL     1       2.834   4.502  18.941  0.00  0.00    +0.000 A 
ATOM     29  C   UNL     1       4.682   5.880  17.535  0.00  0.00    +0.000 C 
ATOM     30  C   UNL     1       5.262   5.376  16.174  0.00  0.00    +0.000 C 
ATOM     31  C   UNL     1       5.186   3.819  16.208  0.00  0.00    +0.000 C 
ENDBRANCH  18  20
ENDBRANCH   5  18
TORSDOF 6
ENDMDL
MODEL 4
REMARK VINA RESULT:      -8.8      4.117      9.381
REMARK  Name = 
REMARK  6 active torsions:
REMARK  status: ('A' for Active; 'I' for Inactive)
REMARK    1  A    between atoms: S_2  and  N_4
REMARK    2  A    between atoms: S_2  and  C_11
REMARK    3  A    between atoms: N_4  and  C_5
REMARK    4  A    between atoms: C_5  and  C_6
REMARK    5  A    between atoms: C_15  and  N_16
REMARK    6  A    between atoms: N_16  and  C_17
REMARK                            x       y       z     vdW  Elec       q    Type
REMARK                         _______ _______ _______ _____ _____    ______ ____
ROOT
ATOM      1  C   UNL     1       0.900   9.840  19.743  0.00  0.00    +0.000 A 
ATOM      2  C   UNL     1       1.123  10.070  18.382  0.00  0.00    +0.000 A 
ATOM      3  C   UNL     1       1.795   9.119  17.629  0.00  0.00    +0.000 A 
ATOM      4  C   UNL     1       2.257   7.957  18.243  0.00  0.00    +0.000 A 
ATOM      5  C   UNL     1       2.056   7.707  19.610  0.00  0.00    +0.000 A 
ATOM      6  C   UNL     1       1.370   8.671  20.366  0.00  0.00    +0.000 A 
ENDROOT
BRANCH   1   8
ATOM      7  O   UNL     1      -0.663  11.919  19.774  0.00  0.00    +0.000 OA
ATOM      8  S   UNL     1       0.153  11.150  20.690  0.00  0.00    +0.000 S 
ATOM      9  O   UNL     1       1.191  11.773  21.481  0.00  0.00    +0.000 OA
BRANCH   8  10
ATOM     10  N   UNL     1      -0.904  10.321  21.713  0.00  0.00    +0.000 NA
ATOM     11  H   UNL     1      -0.808   9.311  21.636  0.00  0.00    +0.000 HD
BRANCH  10  12
ATOM     12  C   UNL     1      -0.859  10.775  23.112  0.00  0.00    +0.000 C 
BRANCH  12  13
ATOM     13  C   UNL     1      -1.767  11.940  23.271  0.00  0.00    +0.000 A 
ATOM     14  C   UNL     1      -1.570  13.307  23.259  0.00  0.00    +0.000 A 
ATOM     15  C   UNL     1      -2.828  13.891  23.547  0.00  0.00    +0.000 A 
ATOM     16  C   UNL     1      -3.706  12.845  23.708  0.00  0.00    +0.000 A 
ATOM     17  O   UNL     1      -3.075  11.655  23.531  0.00  0.00    +0.000 OA
ENDBRANCH  12  13
ENDBRANCH  10  12
ENDBRANCH   8  10
ENDBRANCH   1   8
BRANCH   5  18
ATOM     18  N   UNL     1       2.649   6.579  20.224  0.00  0.00    +0.000 N 
ATOM     19  H   UNL     1       2.948   6.712  21.180  0.00  0.00    +0.000 HD
BRANCH  18  20
ATOM     20  C   UNL     1       2.302   5.229  19.996  0.00  0.00    +0.000 A 
ATOM     21  N   UNL     1       1.355   4.645  20.771  0.00  0.00    +0.000 NA
ATOM     22  C   UNL     1       1.059   3.351  20.589  0.00  0.00    +0.000 A 
ATOM     23  N   UNL     1       1.592   2.512  19.700  0.00  0.00    +0.000 NA
ATOM     24  C   UNL     1       2.518   3.108  18.932  0.00  0.00    +0.000 A 
ATOM     25  S   UNL     1       3.344   2.208  17.718  0.00  0.00    +0.000 S 
ATOM     26  C   UNL     1       4.217   3.563  17.284  0.00  0.00    +0.000 A 
ATOM     27  C   UNL     1       3.907   4.684  18.007  0.00  0.00    +0.000 A 
ATOM     28  C   UNL     1       2.930   4.441  19.010  0.00  0.00    +0.000 A 
ATOM     29  C   UNL     1       4.700   5.848  17.534  0.00  0.00    +0.000 C 
ATOM     30  C   UNL     1       5.278   5.328  16.179  0.00  0.00    +0.000 C 
ATOM     31  C   UNL     1       5.264   3.772  16.258  0.00  0.00    +0.000 C 
ENDBRANCH  18  20
ENDBRANCH   5  18
TORSDOF 6
ENDMDL
MODEL 5
REMARK VINA RESULT:      -8.8      1.450      1.749
REMARK  Name = 
REMARK  6 active torsions:
REMARK  status: ('A' for Active; 'I' for Inactive)
REMARK    1  A    between atoms: S_2  and  N_4
REMARK    2  A    between atoms: S_2  and  C_11
REMARK    3  A    between atoms: N_4  and  C_5
REMARK    4  A    between atoms: C_5  and  C_6
REMARK    5  A    between atoms: C_15  and  N_16
REMARK    6  A    between atoms: N_16  and  C_17
REMARK                            x       y       z     vdW  Elec       q    Type
REMARK                         _______ _______ _______ _____ _____    ______ ____
ROOT
ATOM      1  C   UNL     1       2.631   3.550  19.007  0.00  0.00    +0.000 A 
ATOM      2  C   UNL     1       1.801   2.769  19.817  0.00  0.00    +0.000 A 
ATOM      3  C   UNL     1       1.050   3.375  20.812  0.00  0.00    +0.000 A 
ATOM      4  C   UNL     1       1.148   4.751  21.006  0.00  0.00    +0.000 A 
ATOM      5  C   UNL     1       1.982   5.556  20.213  0.00  0.00    +0.000 A 
ATOM      6  C   UNL     1       2.736   4.938  19.203  0.00  0.00    +0.000 A 
ENDROOT
BRANCH   1   8
ATOM      7  O   UNL     1       3.278   3.162  16.517  0.00  0.00    +0.000 OA
ATOM      8  S   UNL     1       3.673   2.707  17.835  0.00  0.00    +0.000 S 
ATOM      9  O   UNL     1       3.680   1.303  18.177  0.00  0.00    +0.000 OA
BRANCH   8  10
ATOM     10  N   UNL     1       5.197   3.363  18.144  0.00  0.00    +0.000 NA
ATOM     11  H   UNL     1       5.890   2.651  18.367  0.00  0.00    +0.000 HD
BRANCH  10  12
ATOM     12  C   UNL     1       5.672   4.286  17.101  0.00  0.00    +0.000 C 
BRANCH  12  13
ATOM     13  C   UNL     1       6.577   5.289  17.719  0.00  0.00    +0.000 A 
ATOM     14  C   UNL     1       7.009   6.543  17.335  0.00  0.00    +0.000 A 
ATOM     15  C   UNL     1       7.933   6.964  18.323  0.00  0.00    +0.000 A 
ATOM     16  C   UNL     1       7.997   5.945  19.244  0.00  0.00    +0.000 A 
ATOM     17  O   UNL     1       7.168   4.927  18.893  0.00  0.00    +0.000 OA
ENDBRANCH  12  13
ENDBRANCH  10  12
ENDBRANCH   8  10
ENDBRANCH   1   8
BRANCH   5  18
ATOM     18  N   UNL     1       2.151   6.926  20.522  0.00  0.00    +0.000 N 
ATOM     19  H   UNL     1       2.921   7.140  21.141  0.00  0.00    +0.000 HD
BRANCH  18  20
ATOM     20  C   UNL     1       1.897   8.012  19.655  0.00  0.00    +0.000 A 
ATOM     21  N   UNL     1       2.358   7.969  18.380  0.00  0.00    +0.000 NA
ATOM     22  C   UNL     1       2.160   9.019  17.572  0.00  0.00    +0.000 A 
ATOM     23  N   UNL     1       1.535  10.161  17.859  0.00  0.00    +0.000 NA
ATOM     24  C   UNL     1       1.074  10.184  19.120  0.00  0.00    +0.000 A 
ATOM     25  S   UNL     1       0.240  11.570  19.712  0.00  0.00    +0.000 S 
ATOM     26  C   UNL     1       0.038  10.835  21.196  0.00  0.00    +0.000 A 
ATOM     27  C   UNL     1       0.562   9.572  21.272  0.00  0.00    +0.000 A 
ATOM     28  C   UNL     1       1.209   9.170  20.072  0.00  0.00    +0.000 A 
ATOM     29  C   UNL     1       0.307   8.978  22.610  0.00  0.00    +0.000 C 
ATOM     30  C   UNL     1      -0.762   9.950  23.207  0.00  0.00    +0.000 C 
ATOM     31  C   UNL     1      -0.607  11.301  22.445  0.00  0.00    +0.000 C 
ENDBRANCH  18  20
ENDBRANCH   5  18
TORSDOF 6
ENDMDL
MODEL 6
REMARK VINA RESULT:      -8.7      4.303      8.599
REMARK  Name = 
REMARK  6 active torsions:
REMARK  status: ('A' for Active; 'I' for Inactive)
REMARK    1  A    between atoms: S_2  and  N_4
REMARK    2  A    between atoms: S_2  and  C_11
REMARK    3  A    between atoms: N_4  and  C_5
REMARK    4  A    between atoms: C_5  and  C_6
REMARK    5  A    between atoms: C_15  and  N_16
REMARK    6  A    between atoms: N_16  and  C_17
REMARK                            x       y       z     vdW  Elec       q    Type
REMARK                         _______ _______ _______ _____ _____    ______ ____
ROOT
ATOM      1  C   UNL     1       0.790   9.887  20.140  0.00  0.00    +0.000 A 
ATOM      2  C   UNL     1       0.888  10.233  18.789  0.00  0.00    +0.000 A 
ATOM      3  C   UNL     1       1.511   9.366  17.905  0.00  0.00    +0.000 A 
ATOM      4  C   UNL     1       2.050   8.171  18.378  0.00  0.00    +0.000 A 
ATOM      5  C   UNL     1       1.973   7.805  19.731  0.00  0.00    +0.000 A 
ATOM      6  C   UNL     1       1.337   8.684  20.621  0.00  0.00    +0.000 A 
ENDROOT
BRANCH   1   8
ATOM      7  O   UNL     1       0.133  10.508  22.579  0.00  0.00    +0.000 OA
ATOM      8  S   UNL     1       0.101  11.093  21.254  0.00  0.00    +0.000 S 
ATOM      9  O   UNL     1      -1.129  11.581  20.675  0.00  0.00    +0.000 OA
BRANCH   8  10
ATOM     10  N   UNL     1       1.253  12.327  21.235  0.00  0.00    +0.000 NA
ATOM     11  H   UNL     1       2.104  12.057  20.747  0.00  0.00    +0.000 HD
BRANCH  10  12
ATOM     12  C   UNL     1       0.734  13.620  20.764  0.00  0.00    +0.000 C 
BRANCH  12  13
ATOM     13  C   UNL     1       1.609  14.125  19.675  0.00  0.00    +0.000 A 
ATOM     14  C   UNL     1       2.581  13.539  18.888  0.00  0.00    +0.000 A 
ATOM     15  C   UNL     1       3.112  14.574  18.079  0.00  0.00    +0.000 A 
ATOM     16  C   UNL     1       2.426  15.715  18.419  0.00  0.00    +0.000 A 
ATOM     17  O   UNL     1       1.502  15.452  19.380  0.00  0.00    +0.000 OA
ENDBRANCH  12  13
ENDBRANCH  10  12
ENDBRANCH   8  10
ENDBRANCH   1   8
BRANCH   5  18
ATOM     18  N   UNL     1       2.641   6.647  20.194  0.00  0.00    +0.000 N 
ATOM     19  H   UNL     1       3.061   6.726  21.111  0.00  0.00    +0.000 HD
BRANCH  18  20
ATOM     20  C   UNL     1       2.268   5.310  19.934  0.00  0.00    +0.000 A 
ATOM     21  N   UNL     1       1.316   4.723  20.700  0.00  0.00    +0.000 NA
ATOM     22  C   UNL     1       0.995   3.440  20.485  0.00  0.00    +0.000 A 
ATOM     23  N   UNL     1       1.507   2.616  19.571  0.00  0.00    +0.000 NA
ATOM     24  C   UNL     1       2.439   3.214  18.813  0.00  0.00    +0.000 A 
ATOM     25  S   UNL     1       3.242   2.333  17.570  0.00  0.00    +0.000 S 
ATOM     26  C   UNL     1       4.136   3.682  17.167  0.00  0.00    +0.000 A 
ATOM     27  C   UNL     1       3.852   4.789  17.921  0.00  0.00    +0.000 A 
ATOM     28  C   UNL     1       2.876   4.537  18.923  0.00  0.00    +0.000 A 
ATOM     29  C   UNL     1       4.662   5.951  17.474  0.00  0.00    +0.000 C 
ATOM     30  C   UNL     1       5.223   5.457  16.101  0.00  0.00    +0.000 C 
ATOM     31  C   UNL     1       5.181   3.899  16.139  0.00  0.00    +0.000 C 
ENDBRANCH  18  20
ENDBRANCH   5  18
TORSDOF 6
ENDMDL
MODEL 7
REMARK VINA RESULT:      -8.6      4.342      9.330
REMARK  Name = 
REMARK  6 active torsions:
REMARK  status: ('A' for Active; 'I' for Inactive)
REMARK    1  A    between atoms: S_2  and  N_4
REMARK    2  A    between atoms: S_2  and  C_11
REMARK    3  A    between atoms: N_4  and  C_5
REMARK    4  A    between atoms: C_5  and  C_6
REMARK    5  A    between atoms: C_15  and  N_16
REMARK    6  A    between atoms: N_16  and  C_17
REMARK                            x       y       z     vdW  Elec       q    Type
REMARK                         _______ _______ _______ _____ _____    ______ ____
ROOT
ATOM      1  C   UNL     1       0.751   9.827  20.049  0.00  0.00    +0.000 A 
ATOM      2  C   UNL     1       0.915  10.183  18.708  0.00  0.00    +0.000 A 
ATOM      3  C   UNL     1       1.599   9.333  17.853  0.00  0.00    +0.000 A 
ATOM      4  C   UNL     1       2.134   8.145  18.348  0.00  0.00    +0.000 A 
ATOM      5  C   UNL     1       1.993   7.770  19.693  0.00  0.00    +0.000 A 
ATOM      6  C   UNL     1       1.294   8.632  20.553  0.00  0.00    +0.000 A 
ENDROOT
BRANCH   1   8
ATOM      7  O   UNL     1       0.970  12.038  21.402  0.00  0.00    +0.000 OA
ATOM      8  S   UNL     1      -0.017  11.014  21.132  0.00  0.00    +0.000 S 
ATOM      9  O   UNL     1      -0.662  10.286  22.202  0.00  0.00    +0.000 OA
BRANCH   8  10
ATOM     10  N   UNL     1      -1.196  11.715  20.148  0.00  0.00    +0.000 NA
ATOM     11  H   UNL     1      -1.810  11.024  19.722  0.00  0.00    +0.000 HD
BRANCH  10  12
ATOM     12  C   UNL     1      -1.952  12.796  20.801  0.00  0.00    +0.000 C 
BRANCH  12  13
ATOM     13  C   UNL     1      -3.389  12.659  20.453  0.00  0.00    +0.000 A 
ATOM     14  C   UNL     1      -4.561  12.915  21.137  0.00  0.00    +0.000 A 
ATOM     15  C   UNL     1      -5.616  12.503  20.286  0.00  0.00    +0.000 A 
ATOM     16  C   UNL     1      -5.019  12.031  19.141  0.00  0.00    +0.000 A 
ATOM     17  O   UNL     1      -3.666  12.133  19.226  0.00  0.00    +0.000 OA
ENDBRANCH  12  13
ENDBRANCH  10  12
ENDBRANCH   8  10
ENDBRANCH   1   8
BRANCH   5  18
ATOM     18  N   UNL     1       2.657   6.622  20.186  0.00  0.00    +0.000 N 
ATOM     19  H   UNL     1       3.064   6.717  21.107  0.00  0.00    +0.000 HD
BRANCH  18  20
ATOM     20  C   UNL     1       2.291   5.280  19.942  0.00  0.00    +0.000 A 
ATOM     21  N   UNL     1       1.339   4.698  20.712  0.00  0.00    +0.000 NA
ATOM     22  C   UNL     1       1.025   3.411  20.514  0.00  0.00    +0.000 A 
ATOM     23  N   UNL     1       1.543   2.577  19.613  0.00  0.00    +0.000 NA
ATOM     24  C   UNL     1       2.476   3.169  18.850  0.00  0.00    +0.000 A 
ATOM     25  S   UNL     1       3.287   2.274  17.623  0.00  0.00    +0.000 S 
ATOM     26  C   UNL     1       4.178   3.622  17.205  0.00  0.00    +0.000 A 
ATOM     27  C   UNL     1       3.885   4.738  17.942  0.00  0.00    +0.000 A 
ATOM     28  C   UNL     1       2.906   4.495  18.944  0.00  0.00    +0.000 A 
ATOM     29  C   UNL     1       4.692   5.897  17.482  0.00  0.00    +0.000 C 
ATOM     30  C   UNL     1       5.260   5.387  16.119  0.00  0.00    +0.000 C 
ATOM     31  C   UNL     1       5.225   3.829  16.178  0.00  0.00    +0.000 C 
ENDBRANCH  18  20
ENDBRANCH   5  18
TORSDOF 6
ENDMDL
MODEL 8
REMARK VINA RESULT:      -8.6      4.385      9.566
REMARK  Name = 
REMARK  6 active torsions:
REMARK  status: ('A' for Active; 'I' for Inactive)
REMARK    1  A    between atoms: S_2  and  N_4
REMARK    2  A    between atoms: S_2  and  C_11
REMARK    3  A    between atoms: N_4  and  C_5
REMARK    4  A    between atoms: C_5  and  C_6
REMARK    5  A    between atoms: C_15  and  N_16
REMARK    6  A    between atoms: N_16  and  C_17
REMARK                            x       y       z     vdW  Elec       q    Type
REMARK                         _______ _______ _______ _____ _____    ______ ____
ROOT
ATOM      1  C   UNL     1       0.888  10.000  20.169  0.00  0.00    +0.000 A 
ATOM      2  C   UNL     1       0.942  10.362  18.820  0.00  0.00    +0.000 A 
ATOM      3  C   UNL     1       1.504   9.491  17.900  0.00  0.00    +0.000 A 
ATOM      4  C   UNL     1       2.027   8.275  18.335  0.00  0.00    +0.000 A 
ATOM      5  C   UNL     1       1.996   7.892  19.686  0.00  0.00    +0.000 A 
ATOM      6  C   UNL     1       1.421   8.776  20.612  0.00  0.00    +0.000 A 
ENDROOT
BRANCH   1   8
ATOM      7  O   UNL     1       0.994  12.441  21.062  0.00  0.00    +0.000 OA
ATOM      8  S   UNL     1       0.279  11.209  21.326  0.00  0.00    +0.000 S 
ATOM      9  O   UNL     1       0.276  10.604  22.639  0.00  0.00    +0.000 OA
BRANCH   8  10
ATOM     10  N   UNL     1      -1.313  11.448  20.821  0.00  0.00    +0.000 NA
ATOM     11  H   UNL     1      -1.952  10.754  21.203  0.00  0.00    +0.000 HD
BRANCH  10  12
ATOM     12  C   UNL     1      -1.804  12.820  21.024  0.00  0.00    +0.000 C 
BRANCH  12  13
ATOM     13  C   UNL     1      -2.705  12.841  22.205  0.00  0.00    +0.000 A 
ATOM     14  C   UNL     1      -2.804  12.059  23.339  0.00  0.00    +0.000 A 
ATOM     15  C   UNL     1      -3.927  12.542  24.056  0.00  0.00    +0.000 A 
ATOM     16  C   UNL     1      -4.431  13.586  23.318  0.00  0.00    +0.000 A 
ATOM     17  O   UNL     1      -3.689  13.785  22.196  0.00  0.00    +0.000 OA
ENDBRANCH  12  13
ENDBRANCH  10  12
ENDBRANCH   8  10
ENDBRANCH   1   8
BRANCH   5  18
ATOM     18  N   UNL     1       2.650   6.711  20.107  0.00  0.00    +0.000 N 
ATOM     19  H   UNL     1       3.082   6.756  21.020  0.00  0.00    +0.000 HD
BRANCH  18  20
ATOM     20  C   UNL     1       2.251   5.388  19.812  0.00  0.00    +0.000 A 
ATOM     21  N   UNL     1       1.270   4.808  20.548  0.00  0.00    +0.000 NA
ATOM     22  C   UNL     1       0.924   3.538  20.302  0.00  0.00    +0.000 A 
ATOM     23  N   UNL     1       1.433   2.720  19.380  0.00  0.00    +0.000 NA
ATOM     24  C   UNL     1       2.393   3.311  18.652  0.00  0.00    +0.000 A 
ATOM     25  S   UNL     1       3.199   2.436  17.407  0.00  0.00    +0.000 S 
ATOM     26  C   UNL     1       4.132   3.771  17.048  0.00  0.00    +0.000 A 
ATOM     27  C   UNL     1       3.859   4.869  17.818  0.00  0.00    +0.000 A 
ATOM     28  C   UNL     1       2.859   4.621  18.797  0.00  0.00    +0.000 A 
ATOM     29  C   UNL     1       4.705   6.021  17.410  0.00  0.00    +0.000 C 
ATOM     30  C   UNL     1       5.279   5.541  16.038  0.00  0.00    +0.000 C 
ATOM     31  C   UNL     1       5.201   3.984  16.044  0.00  0.00    +0.000 C 
ENDBRANCH  18  20
ENDBRANCH   5  18
TORSDOF 6
ENDMDL
MODEL 9
REMARK VINA RESULT:      -8.5      1.107      1.222
REMARK  Name = 
REMARK  6 active torsions:
REMARK  status: ('A' for Active; 'I' for Inactive)
REMARK    1  A    between atoms: S_2  and  N_4
REMARK    2  A    between atoms: S_2  and  C_11
REMARK    3  A    between atoms: N_4  and  C_5
REMARK    4  A    between atoms: C_5  and  C_6
REMARK    5  A    between atoms: C_15  and  N_16
REMARK    6  A    between atoms: N_16  and  C_17
REMARK                            x       y       z     vdW  Elec       q    Type
REMARK                         _______ _______ _______ _____ _____    ______ ____
ROOT
ATOM      1  C   UNL     1       3.195   3.915  19.635  0.00  0.00    +0.000 A 
ATOM      2  C   UNL     1       2.119   3.062  19.896  0.00  0.00    +0.000 A 
ATOM      3  C   UNL     1       0.929   3.588  20.372  0.00  0.00    +0.000 A 
ATOM      4  C   UNL     1       0.827   4.958  20.606  0.00  0.00    +0.000 A 
ATOM      5  C   UNL     1       1.896   5.835  20.363  0.00  0.00    +0.000 A 
ATOM      6  C   UNL     1       3.098   5.297  19.875  0.00  0.00    +0.000 A 
ENDROOT
BRANCH   1   8
ATOM      7  O   UNL     1       4.624   2.833  17.749  0.00  0.00    +0.000 OA
ATOM      8  S   UNL     1       4.741   3.174  19.153  0.00  0.00    +0.000 S 
ATOM      9  O   UNL     1       5.085   2.180  20.145  0.00  0.00    +0.000 OA
BRANCH   8  10
ATOM     10  N   UNL     1       5.827   4.462  19.256  0.00  0.00    +0.000 NA
ATOM     11  H   UNL     1       6.255   4.537  20.176  0.00  0.00    +0.000 HD
BRANCH  10  12
ATOM     12  C   UNL     1       6.828   4.485  18.178  0.00  0.00    +0.000 C 
BRANCH  12  13
ATOM     13  C   UNL     1       6.257   5.193  17.003  0.00  0.00    +0.000 A 
ATOM     14  C   UNL     1       5.436   6.295  16.864  0.00  0.00    +0.000 A 
ATOM     15  C   UNL     1       5.182   6.428  15.477  0.00  0.00    +0.000 A 
ATOM     16  C   UNL     1       5.868   5.406  14.864  0.00  0.00    +0.000 A 
ATOM     17  O   UNL     1       6.535   4.656  15.781  0.00  0.00    +0.000 OA
ENDBRANCH  12  13
ENDBRANCH  10  12
ENDBRANCH   8  10
ENDBRANCH   1   8
BRANCH   5  18
ATOM     18  N   UNL     1       1.798   7.197  20.731  0.00  0.00    +0.000 N 
ATOM     19  H   UNL     1       2.339   7.468  21.541  0.00  0.00    +0.000 HD
BRANCH  18  20
ATOM     20  C   UNL     1       1.648   8.289  19.848  0.00  0.00    +0.000 A 
ATOM     21  N   UNL     1       2.163   8.210  18.597  0.00  0.00    +0.000 NA
ATOM     22  C   UNL     1       2.064   9.263  17.775  0.00  0.00    +0.000 A 
ATOM     23  N   UNL     1       1.494  10.442  18.027  0.00  0.00    +0.000 NA
ATOM     24  C   UNL     1       0.978  10.501  19.265  0.00  0.00    +0.000 A 
ATOM     25  S   UNL     1       0.200  11.937  19.811  0.00  0.00    +0.000 S 
ATOM     26  C   UNL     1      -0.113  11.226  21.288  0.00  0.00    +0.000 A 
ATOM     27  C   UNL     1       0.332   9.936  21.394  0.00  0.00    +0.000 A 
ATOM     28  C   UNL     1       1.010   9.488  20.228  0.00  0.00    +0.000 A 
ATOM     29  C   UNL     1      -0.018   9.367  22.722  0.00  0.00    +0.000 C 
ATOM     30  C   UNL     1      -1.054  10.404  23.264  0.00  0.00    +0.000 C 
ATOM     31  C   UNL     1      -0.787  11.738  22.504  0.00  0.00    +0.000 C 
ENDBRANCH  18  20
ENDBRANCH   5  18
TORSDOF 6
ENDMDL
