MODEL 1
REMARK VINA RESULT:      -8.2      0.000      0.000
REMARK  Name = 
REMARK  7 active torsions:
REMARK  status: ('A' for Active; 'I' for Inactive)
REMARK    1  A    between atoms: C_1  and  N_2
REMARK    2  A    between atoms: C_6  and  C_7
REMARK    3  A    between atoms: C_7  and  C_8
REMARK    4  A    between atoms: C_8  and  C_9
REMARK    5  A    between atoms: C_13  and  C_14
REMARK    6  A    between atoms: C_14  and  C_15
REMARK    7  A    between atoms: C_17  and  C_18
REMARK                            x       y       z     vdW  Elec       q    Type
REMARK                         _______ _______ _______ _____ _____    ______ ____
ROOT
ATOM      1  C   UNL     1       4.566   5.736  18.104  0.00  0.00    +0.000 A 
ATOM      2  C   UNL     1       5.305   5.356  19.243  0.00  0.00    +0.000 A 
ATOM      3  C   UNL     1       6.612   4.882  19.147  0.00  0.00    +0.000 A 
ATOM      4  C   UNL     1       7.224   4.778  17.900  0.00  0.00    +0.000 A 
ATOM      5  C   UNL     1       6.538   5.154  16.741  0.00  0.00    +0.000 A 
ATOM      6  C   UNL     1       5.228   5.637  16.862  0.00  0.00    +0.000 A 
ENDROOT
BRANCH   1   7
ATOM      7  C   UNL     1       3.045   6.240  18.201  0.00  0.00    +0.000 C 
ATOM      8  C   UNL     1       2.647   7.058  19.461  0.00  0.00    +0.000 C 
ATOM      9  O   UNL     1       2.361   8.240  18.685  0.00  0.00    +0.000 OA
ATOM     10  C   UNL     1       2.736   7.577  17.464  0.00  0.00    +0.000 C 
BRANCH   7  11
ATOM     11  C   UNL     1       2.063   5.125  17.790  0.00  0.00    +0.000 C 
BRANCH  11  17
ATOM     12  C   UNL     1       3.473   2.261  17.895  0.00  0.00    +0.000 C 
ATOM     13  N   UNL     1       2.466   2.785  18.778  0.00  0.00    +0.000 N 
ATOM     14  C   UNL     1       1.878   2.080  19.787  0.00  0.00    +0.000 A 
ATOM     15  N   UNL     1       1.012   2.840  20.408  0.00  0.00    +0.000 NA
ATOM     16  N   UNL     1       1.015   4.064  19.787  0.00  0.00    +0.000 NA
ATOM     17  C   UNL     1       1.878   4.028  18.790  0.00  0.00    +0.000 A 
ENDBRANCH  11  17
ENDBRANCH   7  11
ENDBRANCH   1   7
BRANCH   5  18
ATOM     18  C   UNL     1       7.240   5.179  15.416  0.00  0.00    +0.000 C 
BRANCH  18  19
ATOM     19  C   UNL     1       6.562   4.589  14.192  0.00  0.00    +0.000 C 
ATOM     20  C   UNL     1       6.786   4.309  12.891  0.00  0.00    +0.000 C 
ATOM     21  C   UNL     1       5.452   3.779  12.766  0.00  0.00    +0.000 C 
ATOM     22  C   UNL     1       5.240   4.043  14.068  0.00  0.00    +0.000 C 
BRANCH  21  23
ATOM     23  C   UNL     1       4.601   3.173  11.670  0.00  0.00    +0.000 C 
ATOM     24  F   UNL     1       4.493   3.938  10.565  0.00  0.00    +0.000 F 
ATOM     25  F   UNL     1       5.096   1.962  11.295  0.00  0.00    +0.000 F 
ATOM     26  F   UNL     1       3.349   2.903  12.126  0.00  0.00    +0.000 F 
ENDBRANCH  21  23
ENDBRANCH  18  19
ENDBRANCH   5  18
TORSDOF 6
ENDMDL
MODEL 2
REMARK VINA RESULT:      -8.1      6.310      9.090
REMARK  Name = 
REMARK  7 active torsions:
REMARK  status: ('A' for Active; 'I' for Inactive)
REMARK    1  A    between atoms: C_1  and  N_2
REMARK    2  A    between atoms: C_6  and  C_7
REMARK    3  A    between atoms: C_7  and  C_8
REMARK    4  A    between atoms: C_8  and  C_9
REMARK    5  A    between atoms: C_13  and  C_14
REMARK    6  A    between atoms: C_14  and  C_15
REMARK    7  A    between atoms: C_17  and  C_18
REMARK                            x       y       z     vdW  Elec       q    Type
REMARK                         _______ _______ _______ _____ _____    ______ ____
ROOT
ATOM      1  C   UNL     1       2.567   7.295  18.594  0.00  0.00    +0.000 A 
ATOM      2  C   UNL     1       2.294   8.292  17.635  0.00  0.00    +0.000 A 
ATOM      3  C   UNL     1       1.590   9.451  17.959  0.00  0.00    +0.000 A 
ATOM      4  C   UNL     1       1.140   9.648  19.262  0.00  0.00    +0.000 A 
ATOM      5  C   UNL     1       1.397   8.695  20.253  0.00  0.00    +0.000 A 
ATOM      6  C   UNL     1       2.115   7.543  19.907  0.00  0.00    +0.000 A 
ENDROOT
BRANCH   1   7
ATOM      7  C   UNL     1       3.338   5.937  18.219  0.00  0.00    +0.000 C 
ATOM      8  C   UNL     1       4.568   6.057  17.275  0.00  0.00    +0.000 C 
ATOM      9  O   UNL     1       5.477   5.588  18.293  0.00  0.00    +0.000 OA
ATOM     10  C   UNL     1       4.409   5.470  19.250  0.00  0.00    +0.000 C 
BRANCH   7  11
ATOM     11  C   UNL     1       2.344   4.810  17.882  0.00  0.00    +0.000 C 
BRANCH  11  17
ATOM     12  C   UNL     1       3.370   1.822  18.354  0.00  0.00    +0.000 C 
ATOM     13  N   UNL     1       2.443   2.576  19.153  0.00  0.00    +0.000 N 
ATOM     14  C   UNL     1       1.770   2.081  20.232  0.00  0.00    +0.000 A 
ATOM     15  N   UNL     1       1.011   3.017  20.744  0.00  0.00    +0.000 NA
ATOM     16  N   UNL     1       1.172   4.145  19.978  0.00  0.00    +0.000 NA
ATOM     17  C   UNL     1       2.021   3.877  19.004  0.00  0.00    +0.000 A 
ENDBRANCH  11  17
ENDBRANCH   7  11
ENDBRANCH   1   7
BRANCH   5  18
ATOM     18  C   UNL     1       1.040   8.970  21.684  0.00  0.00    +0.000 C 
BRANCH  18  19
ATOM     19  C   UNL     1       0.108  10.120  22.022  0.00  0.00    +0.000 C 
ATOM     20  C   UNL     1      -0.221  11.367  21.623  0.00  0.00    +0.000 C 
ATOM     21  C   UNL     1      -1.207  11.451  22.670  0.00  0.00    +0.000 C 
ATOM     22  C   UNL     1      -0.889  10.201  23.052  0.00  0.00    +0.000 C 
BRANCH  21  23
ATOM     23  C   UNL     1      -2.201  12.477  23.172  0.00  0.00    +0.000 C 
ATOM     24  F   UNL     1      -2.846  13.148  22.196  0.00  0.00    +0.000 F 
ATOM     25  F   UNL     1      -3.137  11.888  23.965  0.00  0.00    +0.000 F 
ATOM     26  F   UNL     1      -1.591  13.384  23.981  0.00  0.00    +0.000 F 
ENDBRANCH  21  23
ENDBRANCH  18  19
ENDBRANCH   5  18
TORSDOF 6
ENDMDL
MODEL 3
REMARK VINA RESULT:      -8.1      0.570      1.082
REMARK  Name = 
REMARK  7 active torsions:
REMARK  status: ('A' for Active; 'I' for Inactive)
REMARK    1  A    between atoms: C_1  and  N_2
REMARK    2  A    between atoms: C_6  and  C_7
REMARK    3  A    between atoms: C_7  and  C_8
REMARK    4  A    between atoms: C_8  and  C_9
REMARK    5  A    between atoms: C_13  and  C_14
REMARK    6  A    between atoms: C_14  and  C_15
REMARK    7  A    between atoms: C_17  and  C_18
REMARK                            x       y       z     vdW  Elec       q    Type
REMARK                         _______ _______ _______ _____ _____    ______ ____
ROOT
ATOM      1  C   UNL     1       4.715   5.661  18.208  0.00  0.00    +0.000 A 
ATOM      2  C   UNL     1       5.625   5.654  19.285  0.00  0.00    +0.000 A 
ATOM      3  C   UNL     1       6.966   5.314  19.112  0.00  0.00    +0.000 A 
ATOM      4  C   UNL     1       7.438   4.973  17.847  0.00  0.00    +0.000 A 
ATOM      5  C   UNL     1       6.579   4.979  16.743  0.00  0.00    +0.000 A 
ATOM      6  C   UNL     1       5.238   5.334  16.939  0.00  0.00    +0.000 A 
ENDROOT
BRANCH   1   7
ATOM      7  C   UNL     1       3.160   6.008  18.406  0.00  0.00    +0.000 C 
ATOM      8  C   UNL     1       2.776   6.871  19.641  0.00  0.00    +0.000 C 
ATOM      9  O   UNL     1       2.299   7.955  18.818  0.00  0.00    +0.000 OA
ATOM     10  C   UNL     1       2.645   7.247  17.614  0.00  0.00    +0.000 C 
BRANCH   7  11
ATOM     11  C   UNL     1       2.279   4.769  18.157  0.00  0.00    +0.000 C 
BRANCH  11  17
ATOM     12  C   UNL     1       3.980   2.336  19.336  0.00  0.00    +0.000 C 
ATOM     13  N   UNL     1       2.725   2.853  19.812  0.00  0.00    +0.000 N 
ATOM     14  C   UNL     1       2.002   2.308  20.833  0.00  0.00    +0.000 A 
ATOM     15  N   UNL     1       0.916   3.013  21.028  0.00  0.00    +0.000 NA
ATOM     16  N   UNL     1       0.914   4.032  20.107  0.00  0.00    +0.000 NA
ATOM     17  C   UNL     1       1.995   3.926  19.359  0.00  0.00    +0.000 A 
ENDBRANCH  11  17
ENDBRANCH   7  11
ENDBRANCH   1   7
BRANCH   5  18
ATOM     18  C   UNL     1       7.114   4.753  15.361  0.00  0.00    +0.000 C 
BRANCH  18  19
ATOM     19  C   UNL     1       6.182   4.277  14.260  0.00  0.00    +0.000 C 
ATOM     20  C   UNL     1       4.876   4.057  14.002  0.00  0.00    +0.000 C 
ATOM     21  C   UNL     1       5.203   3.628  12.666  0.00  0.00    +0.000 C 
ATOM     22  C   UNL     1       6.502   3.867  12.922  0.00  0.00    +0.000 C 
BRANCH  21  23
ATOM     23  C   UNL     1       4.452   3.119  11.453  0.00  0.00    +0.000 C 
ATOM     24  F   UNL     1       3.164   2.799  11.693  0.00  0.00    +0.000 F 
ATOM     25  F   UNL     1       4.476   4.043  10.455  0.00  0.00    +0.000 F 
ATOM     26  F   UNL     1       5.071   2.030  10.926  0.00  0.00    +0.000 F 
ENDBRANCH  21  23
ENDBRANCH  18  19
ENDBRANCH   5  18
TORSDOF 6
ENDMDL
MODEL 4
REMARK VINA RESULT:      -8.1      1.011      1.510
REMARK  Name = 
REMARK  7 active torsions:
REMARK  status: ('A' for Active; 'I' for Inactive)
REMARK    1  A    between atoms: C_1  and  N_2
REMARK    2  A    between atoms: C_6  and  C_7
REMARK    3  A    between atoms: C_7  and  C_8
REMARK    4  A    between atoms: C_8  and  C_9
REMARK    5  A    between atoms: C_13  and  C_14
REMARK    6  A    between atoms: C_14  and  C_15
REMARK    7  A    between atoms: C_17  and  C_18
REMARK                            x       y       z     vdW  Elec       q    Type
REMARK                         _______ _______ _______ _____ _____    ______ ____
ROOT
ATOM      1  C   UNL     1       4.050   5.935  18.400  0.00  0.00    +0.000 A 
ATOM      2  C   UNL     1       4.644   5.267  19.491  0.00  0.00    +0.000 A 
ATOM      3  C   UNL     1       5.929   4.734  19.415  0.00  0.00    +0.000 A 
ATOM      4  C   UNL     1       6.664   4.857  18.239  0.00  0.00    +0.000 A 
ATOM      5  C   UNL     1       6.126   5.522  17.132  0.00  0.00    +0.000 A 
ATOM      6  C   UNL     1       4.836   6.059  17.235  0.00  0.00    +0.000 A 
ENDROOT
BRANCH   1   7
ATOM      7  C   UNL     1       2.554   6.514  18.463  0.00  0.00    +0.000 C 
ATOM      8  C   UNL     1       2.075   7.095  19.823  0.00  0.00    +0.000 C 
ATOM      9  O   UNL     1       1.926   8.422  19.278  0.00  0.00    +0.000 OA
ATOM     10  C   UNL     1       2.386   7.987  17.986  0.00  0.00    +0.000 C 
BRANCH   7  11
ATOM     11  C   UNL     1       1.564   5.570  17.753  0.00  0.00    +0.000 C 
BRANCH  11  17
ATOM     12  C   UNL     1       0.952   3.821  20.355  0.00  0.00    +0.000 C 
ATOM     13  N   UNL     1       1.563   3.395  19.125  0.00  0.00    +0.000 N 
ATOM     14  C   UNL     1       2.069   2.148  18.904  0.00  0.00    +0.000 A 
ATOM     15  N   UNL     1       2.547   2.076  17.688  0.00  0.00    +0.000 NA
ATOM     16  N   UNL     1       2.370   3.305  17.101  0.00  0.00    +0.000 NA
ATOM     17  C   UNL     1       1.793   4.110  17.973  0.00  0.00    +0.000 A 
ENDBRANCH  11  17
ENDBRANCH   7  11
ENDBRANCH   1   7
BRANCH   5  18
ATOM     18  C   UNL     1       6.966   5.781  15.917  0.00  0.00    +0.000 C 
BRANCH  18  19
ATOM     19  C   UNL     1       6.734   4.971  14.654  0.00  0.00    +0.000 C 
ATOM     20  C   UNL     1       7.339   4.613  13.502  0.00  0.00    +0.000 C 
ATOM     21  C   UNL     1       6.176   3.854  13.117  0.00  0.00    +0.000 C 
ATOM     22  C   UNL     1       5.585   4.199  14.275  0.00  0.00    +0.000 C 
BRANCH  21  23
ATOM     23  C   UNL     1       5.748   3.011  11.934  0.00  0.00    +0.000 C 
ATOM     24  F   UNL     1       4.532   3.323  11.442  0.00  0.00    +0.000 F 
ATOM     25  F   UNL     1       6.650   3.116  10.921  0.00  0.00    +0.000 F 
ATOM     26  F   UNL     1       5.751   1.690  12.258  0.00  0.00    +0.000 F 
ENDBRANCH  21  23
ENDBRANCH  18  19
ENDBRANCH   5  18
TORSDOF 6
ENDMDL
MODEL 5
REMARK VINA RESULT:      -8.1      4.993      6.358
REMARK  Name = 
REMARK  7 active torsions:
REMARK  status: ('A' for Active; 'I' for Inactive)
REMARK    1  A    between atoms: C_1  and  N_2
REMARK    2  A    between atoms: C_6  and  C_7
REMARK    3  A    between atoms: C_7  and  C_8
REMARK    4  A    between atoms: C_8  and  C_9
REMARK    5  A    between atoms: C_13  and  C_14
REMARK    6  A    between atoms: C_14  and  C_15
REMARK    7  A    between atoms: C_17  and  C_18
REMARK                            x       y       z     vdW  Elec       q    Type
REMARK                         _______ _______ _______ _____ _____    ______ ____
ROOT
ATOM      1  C   UNL     1       4.823   4.154  17.435  0.00  0.00    +0.000 A 
ATOM      2  C   UNL     1       5.024   4.178  16.039  0.00  0.00    +0.000 A 
ATOM      3  C   UNL     1       6.040   4.934  15.456  0.00  0.00    +0.000 A 
ATOM      4  C   UNL     1       6.891   5.690  16.258  0.00  0.00    +0.000 A 
ATOM      5  C   UNL     1       6.742   5.690  17.648  0.00  0.00    +0.000 A 
ATOM      6  C   UNL     1       5.721   4.914  18.214  0.00  0.00    +0.000 A 
ENDROOT
BRANCH   1   7
ATOM      7  C   UNL     1       3.629   3.322  18.112  0.00  0.00    +0.000 C 
ATOM      8  C   UNL     1       3.513   1.817  17.740  0.00  0.00    +0.000 C 
ATOM      9  O   UNL     1       3.775   1.395  19.094  0.00  0.00    +0.000 OA
ATOM     10  C   UNL     1       3.929   2.756  19.532  0.00  0.00    +0.000 C 
BRANCH   7  11
ATOM     11  C   UNL     1       2.311   4.120  18.085  0.00  0.00    +0.000 C 
BRANCH  11  17
ATOM     12  C   UNL     1       1.850   5.140  21.077  0.00  0.00    +0.000 C 
ATOM     13  N   UNL     1       2.138   5.926  19.908  0.00  0.00    +0.000 N 
ATOM     14  C   UNL     1       2.178   7.290  19.884  0.00  0.00    +0.000 A 
ATOM     15  N   UNL     1       2.473   7.699  18.675  0.00  0.00    +0.000 NA
ATOM     16  N   UNL     1       2.611   6.586  17.884  0.00  0.00    +0.000 NA
ATOM     17  C   UNL     1       2.390   5.514  18.620  0.00  0.00    +0.000 A 
ENDBRANCH  11  17
ENDBRANCH   7  11
ENDBRANCH   1   7
BRANCH   5  18
ATOM     18  C   UNL     1       7.743   6.386  18.522  0.00  0.00    +0.000 C 
BRANCH  18  19
ATOM     19  C   UNL     1       8.059   7.853  18.286  0.00  0.00    +0.000 C 
ATOM     20  C   UNL     1       7.811   8.863  17.426  0.00  0.00    +0.000 C 
ATOM     21  C   UNL     1       8.621   9.750  18.221  0.00  0.00    +0.000 C 
ATOM     22  C   UNL     1       8.849   8.745  19.086  0.00  0.00    +0.000 C 
BRANCH  21  23
ATOM     23  C   UNL     1       9.060  11.198  18.160  0.00  0.00    +0.000 C 
ATOM     24  F   UNL     1       9.091  11.819  19.357  0.00  0.00    +0.000 F 
ATOM     25  F   UNL     1      10.298  11.299  17.603  0.00  0.00    +0.000 F 
ATOM     26  F   UNL     1       8.254  11.911  17.330  0.00  0.00    +0.000 F 
ENDBRANCH  21  23
ENDBRANCH  18  19
ENDBRANCH   5  18
TORSDOF 6
ENDMDL
MODEL 6
REMARK VINA RESULT:      -8.1      5.267      7.704
REMARK  Name = 
REMARK  7 active torsions:
REMARK  status: ('A' for Active; 'I' for Inactive)
REMARK    1  A    between atoms: C_1  and  N_2
REMARK    2  A    between atoms: C_6  and  C_7
REMARK    3  A    between atoms: C_7  and  C_8
REMARK    4  A    between atoms: C_8  and  C_9
REMARK    5  A    between atoms: C_13  and  C_14
REMARK    6  A    between atoms: C_14  and  C_15
REMARK    7  A    between atoms: C_17  and  C_18
REMARK                            x       y       z     vdW  Elec       q    Type
REMARK                         _______ _______ _______ _____ _____    ______ ____
ROOT
ATOM      1  C   UNL     1       2.712   5.005  18.857  0.00  0.00    +0.000 A 
ATOM      2  C   UNL     1       2.222   5.082  20.177  0.00  0.00    +0.000 A 
ATOM      3  C   UNL     1       1.824   6.291  20.744  0.00  0.00    +0.000 A 
ATOM      4  C   UNL     1       1.901   7.466  20.001  0.00  0.00    +0.000 A 
ATOM      5  C   UNL     1       2.367   7.442  18.682  0.00  0.00    +0.000 A 
ATOM      6  C   UNL     1       2.753   6.213  18.129  0.00  0.00    +0.000 A 
ENDROOT
BRANCH   1   7
ATOM      7  C   UNL     1       3.215   3.624  18.210  0.00  0.00    +0.000 C 
ATOM      8  C   UNL     1       3.633   2.493  19.191  0.00  0.00    +0.000 C 
ATOM      9  O   UNL     1       2.572   1.624  18.743  0.00  0.00    +0.000 OA
ATOM     10  C   UNL     1       2.090   2.619  17.823  0.00  0.00    +0.000 C 
BRANCH   7  11
ATOM     11  C   UNL     1       4.178   3.880  17.035  0.00  0.00    +0.000 C 
BRANCH  11  17
ATOM     12  C   UNL     1       6.690   4.412  15.135  0.00  0.00    +0.000 C 
ATOM     13  N   UNL     1       6.647   4.433  16.572  0.00  0.00    +0.000 N 
ATOM     14  C   UNL     1       7.734   4.610  17.377  0.00  0.00    +0.000 A 
ATOM     15  N   UNL     1       7.362   4.586  18.631  0.00  0.00    +0.000 NA
ATOM     16  N   UNL     1       6.006   4.370  18.656  0.00  0.00    +0.000 NA
ATOM     17  C   UNL     1       5.574   4.258  17.415  0.00  0.00    +0.000 A 
ENDBRANCH  11  17
ENDBRANCH   7  11
ENDBRANCH   1   7
BRANCH   5  18
ATOM     18  C   UNL     1       2.317   8.678  17.834  0.00  0.00    +0.000 C 
BRANCH  18  19
ATOM     19  C   UNL     1       1.359   9.800  18.192  0.00  0.00    +0.000 C 
ATOM     20  C   UNL     1       1.338  11.052  18.697  0.00  0.00    +0.000 C 
ATOM     21  C   UNL     1      -0.096  11.090  18.564  0.00  0.00    +0.000 C 
ATOM     22  C   UNL     1      -0.068   9.850  18.044  0.00  0.00    +0.000 C 
BRANCH  21  23
ATOM     23  C   UNL     1      -1.208  12.075  18.863  0.00  0.00    +0.000 C 
ATOM     24  F   UNL     1      -1.965  12.396  17.795  0.00  0.00    +0.000 F 
ATOM     25  F   UNL     1      -2.031  11.586  19.830  0.00  0.00    +0.000 F 
ATOM     26  F   UNL     1      -0.705  13.223  19.390  0.00  0.00    +0.000 F 
ENDBRANCH  21  23
ENDBRANCH  18  19
ENDBRANCH   5  18
TORSDOF 6
ENDMDL
MODEL 7
REMARK VINA RESULT:      -8.0      4.918      5.922
REMARK  Name = 
REMARK  7 active torsions:
REMARK  status: ('A' for Active; 'I' for Inactive)
REMARK    1  A    between atoms: C_1  and  N_2
REMARK    2  A    between atoms: C_6  and  C_7
REMARK    3  A    between atoms: C_7  and  C_8
REMARK    4  A    between atoms: C_8  and  C_9
REMARK    5  A    between atoms: C_13  and  C_14
REMARK    6  A    between atoms: C_14  and  C_15
REMARK    7  A    between atoms: C_17  and  C_18
REMARK                            x       y       z     vdW  Elec       q    Type
REMARK                         _______ _______ _______ _____ _____    ______ ____
ROOT
ATOM      1  C   UNL     1       4.377   5.898  17.578  0.00  0.00    +0.000 A 
ATOM      2  C   UNL     1       4.631   5.056  16.476  0.00  0.00    +0.000 A 
ATOM      3  C   UNL     1       5.915   4.888  15.960  0.00  0.00    +0.000 A 
ATOM      4  C   UNL     1       6.990   5.561  16.539  0.00  0.00    +0.000 A 
ATOM      5  C   UNL     1       6.792   6.397  17.642  0.00  0.00    +0.000 A 
ATOM      6  C   UNL     1       5.494   6.542  18.150  0.00  0.00    +0.000 A 
ENDROOT
BRANCH   1   7
ATOM      7  C   UNL     1       2.895   6.132  18.151  0.00  0.00    +0.000 C 
ATOM      8  C   UNL     1       2.772   6.741  19.576  0.00  0.00    +0.000 C 
ATOM      9  O   UNL     1       2.124   7.931  19.082  0.00  0.00    +0.000 OA
ATOM     10  C   UNL     1       2.216   7.467  17.724  0.00  0.00    +0.000 C 
BRANCH   7  11
ATOM     11  C   UNL     1       1.991   4.917  17.864  0.00  0.00    +0.000 C 
BRANCH  11  17
ATOM     12  C   UNL     1       3.457   2.120  18.345  0.00  0.00    +0.000 C 
ATOM     13  N   UNL     1       2.436   2.734  19.149  0.00  0.00    +0.000 N 
ATOM     14  C   UNL     1       1.856   2.154  20.239  0.00  0.00    +0.000 A 
ATOM     15  N   UNL     1       0.971   2.970  20.753  0.00  0.00    +0.000 NA
ATOM     16  N   UNL     1       0.953   4.103  19.977  0.00  0.00    +0.000 NA
ATOM     17  C   UNL     1       1.823   3.956  18.996  0.00  0.00    +0.000 A 
ENDBRANCH  11  17
ENDBRANCH   7  11
ENDBRANCH   1   7
BRANCH   5  18
ATOM     18  C   UNL     1       7.962   7.008  18.354  0.00  0.00    +0.000 C 
BRANCH  18  19
ATOM     19  C   UNL     1       8.254   8.489  18.192  0.00  0.00    +0.000 C 
ATOM     20  C   UNL     1       7.937   9.552  17.423  0.00  0.00    +0.000 C 
ATOM     21  C   UNL     1       8.806  10.391  18.208  0.00  0.00    +0.000 C 
ATOM     22  C   UNL     1       9.105   9.332  18.984  0.00  0.00    +0.000 C 
BRANCH  21  23
ATOM     23  C   UNL     1       9.235  11.843  18.209  0.00  0.00    +0.000 C 
ATOM     24  F   UNL     1       8.376  12.676  17.588  0.00  0.00    +0.000 F 
ATOM     25  F   UNL     1       9.407  12.289  19.483  0.00  0.00    +0.000 F 
ATOM     26  F   UNL     1      10.458  11.983  17.631  0.00  0.00    +0.000 F 
ENDBRANCH  21  23
ENDBRANCH  18  19
ENDBRANCH   5  18
TORSDOF 6
ENDMDL
MODEL 8
REMARK VINA RESULT:      -8.0      5.530      7.829
REMARK  Name = 
REMARK  7 active torsions:
REMARK  status: ('A' for Active; 'I' for Inactive)
REMARK    1  A    between atoms: C_1  and  N_2
REMARK    2  A    between atoms: C_6  and  C_7
REMARK    3  A    between atoms: C_7  and  C_8
REMARK    4  A    between atoms: C_8  and  C_9
REMARK    5  A    between atoms: C_13  and  C_14
REMARK    6  A    between atoms: C_14  and  C_15
REMARK    7  A    between atoms: C_17  and  C_18
REMARK                            x       y       z     vdW  Elec       q    Type
REMARK                         _______ _______ _______ _____ _____    ______ ____
ROOT
ATOM      1  C   UNL     1       2.868   5.118  18.881  0.00  0.00    +0.000 A 
ATOM      2  C   UNL     1       2.347   5.162  20.191  0.00  0.00    +0.000 A 
ATOM      3  C   UNL     1       1.855   6.341  20.748  0.00  0.00    +0.000 A 
ATOM      4  C   UNL     1       1.865   7.518  20.003  0.00  0.00    +0.000 A 
ATOM      5  C   UNL     1       2.358   7.525  18.694  0.00  0.00    +0.000 A 
ATOM      6  C   UNL     1       2.839   6.326  18.152  0.00  0.00    +0.000 A 
ENDROOT
BRANCH   1   7
ATOM      7  C   UNL     1       3.478   3.775  18.247  0.00  0.00    +0.000 C 
ATOM      8  C   UNL     1       3.485   2.507  19.146  0.00  0.00    +0.000 C 
ATOM      9  O   UNL     1       2.585   1.800  18.267  0.00  0.00    +0.000 OA
ATOM     10  C   UNL     1       2.490   2.933  17.386  0.00  0.00    +0.000 C 
BRANCH   7  11
ATOM     11  C   UNL     1       4.788   4.065  17.489  0.00  0.00    +0.000 C 
BRANCH  11  17
ATOM     12  C   UNL     1       6.601   6.516  16.537  0.00  0.00    +0.000 C 
ATOM     13  N   UNL     1       6.627   5.835  17.803  0.00  0.00    +0.000 N 
ATOM     14  C   UNL     1       7.521   6.091  18.801  0.00  0.00    +0.000 A 
ATOM     15  N   UNL     1       7.275   5.310  19.823  0.00  0.00    +0.000 NA
ATOM     16  N   UNL     1       6.210   4.512  19.486  0.00  0.00    +0.000 NA
ATOM     17  C   UNL     1       5.828   4.813  18.260  0.00  0.00    +0.000 A 
ENDBRANCH  11  17
ENDBRANCH   7  11
ENDBRANCH   1   7
BRANCH   5  18
ATOM     18  C   UNL     1       2.238   8.753  17.842  0.00  0.00    +0.000 C 
BRANCH  18  19
ATOM     19  C   UNL     1       1.161   9.780  18.145  0.00  0.00    +0.000 C 
ATOM     20  C   UNL     1      -0.175   9.962  18.079  0.00  0.00    +0.000 C 
ATOM     21  C   UNL     1      -0.031  11.284  18.634  0.00  0.00    +0.000 C 
ATOM     22  C   UNL     1       1.298  11.090  18.716  0.00  0.00    +0.000 C 
BRANCH  21  23
ATOM     23  C   UNL     1      -0.944  12.437  18.994  0.00  0.00    +0.000 C 
ATOM     24  F   UNL     1      -2.257  12.133  18.969  0.00  0.00    +0.000 F 
ATOM     25  F   UNL     1      -0.647  12.912  20.234  0.00  0.00    +0.000 F 
ATOM     26  F   UNL     1      -0.735  13.493  18.165  0.00  0.00    +0.000 F 
ENDBRANCH  21  23
ENDBRANCH  18  19
ENDBRANCH   5  18
TORSDOF 6
ENDMDL
MODEL 9
REMARK VINA RESULT:      -7.9      2.093      3.292
REMARK  Name = 
REMARK  7 active torsions:
REMARK  status: ('A' for Active; 'I' for Inactive)
REMARK    1  A    between atoms: C_1  and  N_2
REMARK    2  A    between atoms: C_6  and  C_7
REMARK    3  A    between atoms: C_7  and  C_8
REMARK    4  A    between atoms: C_8  and  C_9
REMARK    5  A    between atoms: C_13  and  C_14
REMARK    6  A    between atoms: C_14  and  C_15
REMARK    7  A    between atoms: C_17  and  C_18
REMARK                            x       y       z     vdW  Elec       q    Type
REMARK                         _______ _______ _______ _____ _____    ______ ____
ROOT
ATOM      1  C   UNL     1       4.798   4.845  18.377  0.00  0.00    +0.000 A 
ATOM      2  C   UNL     1       5.698   5.292  19.367  0.00  0.00    +0.000 A 
ATOM      3  C   UNL     1       7.050   5.497  19.093  0.00  0.00    +0.000 A 
ATOM      4  C   UNL     1       7.542   5.261  17.812  0.00  0.00    +0.000 A 
ATOM      5  C   UNL     1       6.688   4.830  16.791  0.00  0.00    +0.000 A 
ATOM      6  C   UNL     1       5.331   4.641  17.087  0.00  0.00    +0.000 A 
ENDROOT
BRANCH   1   7
ATOM      7  C   UNL     1       3.250   4.565  18.695  0.00  0.00    +0.000 C 
ATOM      8  C   UNL     1       2.342   4.159  17.499  0.00  0.00    +0.000 C 
ATOM      9  O   UNL     1       2.075   2.857  18.059  0.00  0.00    +0.000 OA
ATOM     10  C   UNL     1       2.919   3.127  19.193  0.00  0.00    +0.000 C 
BRANCH   7  11
ATOM     11  C   UNL     1       2.673   5.640  19.637  0.00  0.00    +0.000 C 
BRANCH  11  17
ATOM     12  C   UNL     1       1.318   8.230  20.925  0.00  0.00    +0.000 C 
ATOM     13  N   UNL     1       1.851   8.076  19.598  0.00  0.00    +0.000 N 
ATOM     14  C   UNL     1       1.782   9.027  18.622  0.00  0.00    +0.000 A 
ATOM     15  N   UNL     1       2.363   8.584  17.535  0.00  0.00    +0.000 NA
ATOM     16  N   UNL     1       2.808   7.311  17.794  0.00  0.00    +0.000 NA
ATOM     17  C   UNL     1       2.483   6.994  19.032  0.00  0.00    +0.000 A 
ENDBRANCH  11  17
ENDBRANCH   7  11
ENDBRANCH   1   7
BRANCH   5  18
ATOM     18  C   UNL     1       7.184   4.715  15.381  0.00  0.00    +0.000 C 
BRANCH  18  19
ATOM     19  C   UNL     1       6.235   4.268  14.282  0.00  0.00    +0.000 C 
ATOM     20  C   UNL     1       4.925   4.059  14.037  0.00  0.00    +0.000 C 
ATOM     21  C   UNL     1       5.232   3.662  12.686  0.00  0.00    +0.000 C 
ATOM     22  C   UNL     1       6.535   3.890  12.930  0.00  0.00    +0.000 C 
BRANCH  21  23
ATOM     23  C   UNL     1       4.462   3.185  11.472  0.00  0.00    +0.000 C 
ATOM     24  F   UNL     1       4.416   4.076  10.461  0.00  0.00    +0.000 F 
ATOM     25  F   UNL     1       4.996   2.030  10.991  0.00  0.00    +0.000 F 
ATOM     26  F   UNL     1       3.187   2.857  11.809  0.00  0.00    +0.000 F 
ENDBRANCH  21  23
ENDBRANCH  18  19
ENDBRANCH   5  18
TORSDOF 6
ENDMDL
