MODEL 1
REMARK VINA RESULT:      -8.7      0.000      0.000
REMARK  Name = 
REMARK  5 active torsions:
REMARK  status: ('A' for Active; 'I' for Inactive)
REMARK    1  A    between atoms: C_2  and  C_3
REMARK    2  A    between atoms: C_3  and  N_4
REMARK    3  A    between atoms: N_11  and  C_12
REMARK    4  A    between atoms: N_21  and  C_22
REMARK    5  A    between atoms: C_22  and  C_23
REMARK                            x       y       z     vdW  Elec       q    Type
REMARK                         _______ _______ _______ _____ _____    ______ ____
ROOT
ATOM      1  N   UNL     1       6.436   6.554  17.208  0.00  0.00    +0.000 N 
ATOM      2  C   UNL     1       5.908   6.504  18.488  0.00  0.00    +0.000 A 
ATOM      3  N   UNL     1       5.038   5.642  18.917  0.00  0.00    +0.000 NA
ATOM      4  C   UNL     1       4.686   4.708  17.996  0.00  0.00    +0.000 A 
ATOM      5  C   UNL     1       5.158   4.632  16.709  0.00  0.00    +0.000 A 
ATOM      6  C   UNL     1       4.592   3.478  16.168  0.00  0.00    +0.000 A 
ATOM      7  N   UNL     1       3.801   2.845  17.041  0.00  0.00    +0.000 NA
ATOM      8  N   UNL     1       3.821   3.628  18.168  0.00  0.00    +0.000 N 
ATOM      9  C   UNL     1       6.069   5.633  16.225  0.00  0.00    +0.000 A 
ATOM     10  O   UNL     1       6.459   5.672  15.062  0.00  0.00    +0.000 OA
ENDROOT
BRANCH   8  11
ATOM     11  C   UNL     1       3.008   3.299  19.294  0.00  0.00    +0.000 A 
ATOM     12  C   UNL     1       1.640   3.623  19.285  0.00  0.00    +0.000 A 
ATOM     13  C   UNL     1       0.840   3.327  20.394  0.00  0.00    +0.000 A 
ATOM     14  C   UNL     1       1.406   2.723  21.511  0.00  0.00    +0.000 A 
ATOM     15  F   UNL     1       0.645   2.458  22.581  0.00  0.00    +0.000 F 
ATOM     16  C   UNL     1       2.753   2.395  21.537  0.00  0.00    +0.000 A 
ATOM     17  C   UNL     1       3.553   2.678  20.429  0.00  0.00    +0.000 A 
ENDBRANCH   8  11
BRANCH   1  18
ATOM     18  C   UNL     1       7.398   7.592  16.868  0.00  0.00    +0.000 C 
BRANCH  18  20
ATOM     19  O   UNL     1       8.563   7.241  18.970  0.00  0.00    +0.000 OA
ATOM     20  C   UNL     1       8.205   8.027  18.100  0.00  0.00    +0.000 C 
ATOM     21  N   UNL     1       8.406   9.391  18.175  0.00  0.00    +0.000 N 
ATOM     22  H   UNL     1       8.154   9.980  17.392  0.00  0.00    +0.000 HD
BRANCH  21  23
ATOM     23  C   UNL     1       9.121  10.020  19.265  0.00  0.00    +0.000 C 
BRANCH  23  24
ATOM     24  C   UNL     1       9.922  11.200  18.772  0.00  0.00    +0.000 A 
ATOM     25  C   UNL     1      11.231  11.407  19.232  0.00  0.00    +0.000 A 
ATOM     26  C   UNL     1      11.978  12.502  18.787  0.00  0.00    +0.000 A 
ATOM     27  C   UNL     1      11.416  13.403  17.885  0.00  0.00    +0.000 A 
ATOM     28 CL   UNL     1      12.333  14.752  17.338  0.00  0.00    +0.000 Cl
ATOM     29  C   UNL     1      10.114  13.218  17.424  0.00  0.00    +0.000 A 
ATOM     30  C   UNL     1       9.367  12.121  17.868  0.00  0.00    +0.000 A 
ENDBRANCH  23  24
ENDBRANCH  21  23
ENDBRANCH  18  20
ENDBRANCH   1  18
TORSDOF 5
ENDMDL
MODEL 2
REMARK VINA RESULT:      -8.3      7.823     10.454
REMARK  Name = 
REMARK  5 active torsions:
REMARK  status: ('A' for Active; 'I' for Inactive)
REMARK    1  A    between atoms: C_2  and  C_3
REMARK    2  A    between atoms: C_3  and  N_4
REMARK    3  A    between atoms: N_11  and  C_12
REMARK    4  A    between atoms: N_21  and  C_22
REMARK    5  A    between atoms: C_22  and  C_23
REMARK                            x       y       z     vdW  Elec       q    Type
REMARK                         _______ _______ _______ _____ _____    ______ ____
ROOT
ATOM      1  N   UNL     1       1.153   9.478  19.018  0.00  0.00    +0.000 N 
ATOM      2  C   UNL     1       1.935   9.331  17.884  0.00  0.00    +0.000 A 
ATOM      3  N   UNL     1       2.756   8.354  17.649  0.00  0.00    +0.000 NA
ATOM      4  C   UNL     1       2.774   7.403  18.619  0.00  0.00    +0.000 A 
ATOM      5  C   UNL     1       2.028   7.418  19.771  0.00  0.00    +0.000 A 
ATOM      6  C   UNL     1       2.307   6.214  20.416  0.00  0.00    +0.000 A 
ATOM      7  N   UNL     1       3.178   5.464  19.732  0.00  0.00    +0.000 NA
ATOM      8  N   UNL     1       3.505   6.217  18.632  0.00  0.00    +0.000 N 
ATOM      9  C   UNL     1       1.173   8.539  20.051  0.00  0.00    +0.000 A 
ATOM     10  O   UNL     1       0.549   8.655  21.101  0.00  0.00    +0.000 OA
ENDROOT
BRANCH   8  11
ATOM     11  C   UNL     1       4.493   5.760  17.709  0.00  0.00    +0.000 A 
ATOM     12  C   UNL     1       5.720   6.439  17.606  0.00  0.00    +0.000 A 
ATOM     13  C   UNL     1       6.684   6.013  16.685  0.00  0.00    +0.000 A 
ATOM     14  C   UNL     1       6.419   4.924  15.863  0.00  0.00    +0.000 A 
ATOM     15  F   UNL     1       7.334   4.529  14.968  0.00  0.00    +0.000 F 
ATOM     16  C   UNL     1       5.215   4.241  15.951  0.00  0.00    +0.000 A 
ATOM     17  C   UNL     1       4.254   4.655  16.876  0.00  0.00    +0.000 A 
ENDBRANCH   8  11
BRANCH   1  18
ATOM     18  C   UNL     1       0.285  10.639  19.146  0.00  0.00    +0.000 C 
BRANCH  18  20
ATOM     19  O   UNL     1      -1.110   9.589  17.458  0.00  0.00    +0.000 OA
ATOM     20  C   UNL     1      -0.966  10.499  18.268  0.00  0.00    +0.000 C 
ATOM     21  N   UNL     1      -1.862  11.539  18.412  0.00  0.00    +0.000 N 
ATOM     22  H   UNL     1      -1.727  12.220  19.147  0.00  0.00    +0.000 HD
BRANCH  21  23
ATOM     23  C   UNL     1      -3.098  11.620  17.662  0.00  0.00    +0.000 C 
BRANCH  23  24
ATOM     24  C   UNL     1      -4.288  11.646  18.590  0.00  0.00    +0.000 A 
ATOM     25  C   UNL     1      -5.443  10.912  18.277  0.00  0.00    +0.000 A 
ATOM     26  C   UNL     1      -6.554  10.937  19.126  0.00  0.00    +0.000 A 
ATOM     27  C   UNL     1      -6.520  11.704  20.289  0.00  0.00    +0.000 A 
ATOM     28 CL   UNL     1      -7.886  11.736  21.334  0.00  0.00    +0.000 Cl
ATOM     29  C   UNL     1      -5.385  12.446  20.610  0.00  0.00    +0.000 A 
ATOM     30  C   UNL     1      -4.272  12.420  19.761  0.00  0.00    +0.000 A 
ENDBRANCH  23  24
ENDBRANCH  21  23
ENDBRANCH  18  20
ENDBRANCH   1  18
TORSDOF 5
ENDMDL
MODEL 3
REMARK VINA RESULT:      -8.3      6.443      7.576
REMARK  Name = 
REMARK  5 active torsions:
REMARK  status: ('A' for Active; 'I' for Inactive)
REMARK    1  A    between atoms: C_2  and  C_3
REMARK    2  A    between atoms: C_3  and  N_4
REMARK    3  A    between atoms: N_11  and  C_12
REMARK    4  A    between atoms: N_21  and  C_22
REMARK    5  A    between atoms: C_22  and  C_23
REMARK                            x       y       z     vdW  Elec       q    Type
REMARK                         _______ _______ _______ _____ _____    ______ ____
ROOT
ATOM      1  N   UNL     1       1.295   9.213  19.197  0.00  0.00    +0.000 N 
ATOM      2  C   UNL     1       2.057   9.140  18.041  0.00  0.00    +0.000 A 
ATOM      3  N   UNL     1       2.878   8.183  17.732  0.00  0.00    +0.000 NA
ATOM      4  C   UNL     1       2.917   7.175  18.642  0.00  0.00    +0.000 A 
ATOM      5  C   UNL     1       2.193   7.115  19.806  0.00  0.00    +0.000 A 
ATOM      6  C   UNL     1       2.489   5.875  20.371  0.00  0.00    +0.000 A 
ATOM      7  N   UNL     1       3.350   5.173  19.626  0.00  0.00    +0.000 NA
ATOM      8  N   UNL     1       3.654   5.994  18.569  0.00  0.00    +0.000 N 
ATOM      9  C   UNL     1       1.339   8.213  20.170  0.00  0.00    +0.000 A 
ATOM     10  O   UNL     1       0.734   8.261  21.237  0.00  0.00    +0.000 OA
ENDROOT
BRANCH   8  11
ATOM     11  C   UNL     1       4.626   5.599  17.601  0.00  0.00    +0.000 A 
ATOM     12  C   UNL     1       5.852   6.282  17.525  0.00  0.00    +0.000 A 
ATOM     13  C   UNL     1       6.801   5.919  16.563  0.00  0.00    +0.000 A 
ATOM     14  C   UNL     1       6.521   4.888  15.672  0.00  0.00    +0.000 A 
ATOM     15  F   UNL     1       7.421   4.554  14.739  0.00  0.00    +0.000 F 
ATOM     16  C   UNL     1       5.318   4.203  15.733  0.00  0.00    +0.000 A 
ATOM     17  C   UNL     1       4.372   4.554  16.699  0.00  0.00    +0.000 A 
ENDBRANCH   8  11
BRANCH   1  18
ATOM     18  C   UNL     1       0.425  10.359  19.412  0.00  0.00    +0.000 C 
BRANCH  18  20
ATOM     19  O   UNL     1       1.153  11.563  21.392  0.00  0.00    +0.000 OA
ATOM     20  C   UNL     1       1.156  11.477  20.169  0.00  0.00    +0.000 C 
ATOM     21  N   UNL     1       1.733  12.419  19.340  0.00  0.00    +0.000 N 
ATOM     22  H   UNL     1       1.768  12.257  18.343  0.00  0.00    +0.000 HD
BRANCH  21  23
ATOM     23  C   UNL     1       2.452  13.571  19.843  0.00  0.00    +0.000 C 
BRANCH  23  24
ATOM     24  C   UNL     1       2.008  14.830  19.139  0.00  0.00    +0.000 A 
ATOM     25  C   UNL     1       2.942  15.623  18.454  0.00  0.00    +0.000 A 
ATOM     26  C   UNL     1       2.542  16.795  17.806  0.00  0.00    +0.000 A 
ATOM     27  C   UNL     1       1.206  17.187  17.846  0.00  0.00    +0.000 A 
ATOM     28 CL   UNL     1       0.713  18.630  17.050  0.00  0.00    +0.000 Cl
ATOM     29  C   UNL     1       0.267  16.417  18.529  0.00  0.00    +0.000 A 
ATOM     30  C   UNL     1       0.667  15.243  19.177  0.00  0.00    +0.000 A 
ENDBRANCH  23  24
ENDBRANCH  21  23
ENDBRANCH  18  20
ENDBRANCH   1  18
TORSDOF 5
ENDMDL
MODEL 4
REMARK VINA RESULT:      -8.2      7.441      9.390
REMARK  Name = 
REMARK  5 active torsions:
REMARK  status: ('A' for Active; 'I' for Inactive)
REMARK    1  A    between atoms: C_2  and  C_3
REMARK    2  A    between atoms: C_3  and  N_4
REMARK    3  A    between atoms: N_11  and  C_12
REMARK    4  A    between atoms: N_21  and  C_22
REMARK    5  A    between atoms: C_22  and  C_23
REMARK                            x       y       z     vdW  Elec       q    Type
REMARK                         _______ _______ _______ _____ _____    ______ ____
ROOT
ATOM      1  N   UNL     1       0.793  10.381  20.877  0.00  0.00    +0.000 N 
ATOM      2  C   UNL     1       0.790   9.121  21.454  0.00  0.00    +0.000 A 
ATOM      3  N   UNL     1       1.180   8.024  20.883  0.00  0.00    +0.000 NA
ATOM      4  C   UNL     1       1.663   8.198  19.625  0.00  0.00    +0.000 A 
ATOM      5  C   UNL     1       1.747   9.393  18.956  0.00  0.00    +0.000 A 
ATOM      6  C   UNL     1       2.377   9.104  17.745  0.00  0.00    +0.000 A 
ATOM      7  N   UNL     1       2.682   7.807  17.631  0.00  0.00    +0.000 NA
ATOM      8  N   UNL     1       2.202   7.229  18.780  0.00  0.00    +0.000 N 
ATOM      9  C   UNL     1       1.248  10.591  19.573  0.00  0.00    +0.000 A 
ATOM     10  O   UNL     1       1.212  11.673  18.996  0.00  0.00    +0.000 OA
ENDROOT
BRANCH   8  11
ATOM     11  C   UNL     1       2.276   5.815  18.966  0.00  0.00    +0.000 A 
ATOM     12  C   UNL     1       1.863   4.953  17.934  0.00  0.00    +0.000 A 
ATOM     13  C   UNL     1       1.908   3.567  18.116  0.00  0.00    +0.000 A 
ATOM     14  C   UNL     1       2.350   3.044  19.326  0.00  0.00    +0.000 A 
ATOM     15  F   UNL     1       2.374   1.717  19.507  0.00  0.00    +0.000 F 
ATOM     16  C   UNL     1       2.762   3.878  20.354  0.00  0.00    +0.000 A 
ATOM     17  C   UNL     1       2.730   5.262  20.174  0.00  0.00    +0.000 A 
ENDBRANCH   8  11
BRANCH   1  18
ATOM     18  C   UNL     1       0.311  11.522  21.640  0.00  0.00    +0.000 C 
BRANCH  18  20
ATOM     19  O   UNL     1      -2.002  11.720  22.355  0.00  0.00    +0.000 OA
ATOM     20  C   UNL     1      -1.195  11.734  21.432  0.00  0.00    +0.000 C 
ATOM     21  N   UNL     1      -1.558  11.848  20.105  0.00  0.00    +0.000 N 
ATOM     22  H   UNL     1      -0.844  11.928  19.393  0.00  0.00    +0.000 HD
BRANCH  21  23
ATOM     23  C   UNL     1      -2.931  12.030  19.679  0.00  0.00    +0.000 C 
BRANCH  23  24
ATOM     24  C   UNL     1      -3.133  11.506  18.278  0.00  0.00    +0.000 A 
ATOM     25  C   UNL     1      -2.121  10.765  17.649  0.00  0.00    +0.000 A 
ATOM     26  C   UNL     1      -2.295  10.282  16.348  0.00  0.00    +0.000 A 
ATOM     27  C   UNL     1      -3.479  10.547  15.665  0.00  0.00    +0.000 A 
ATOM     28 CL   UNL     1      -3.694   9.954  14.064  0.00  0.00    +0.000 Cl
ATOM     29  C   UNL     1      -4.491  11.288  16.271  0.00  0.00    +0.000 A 
ATOM     30  C   UNL     1      -4.318  11.770  17.573  0.00  0.00    +0.000 A 
ENDBRANCH  23  24
ENDBRANCH  21  23
ENDBRANCH  18  20
ENDBRANCH   1  18
TORSDOF 5
ENDMDL
MODEL 5
REMARK VINA RESULT:      -8.2      4.718      6.292
REMARK  Name = 
REMARK  5 active torsions:
REMARK  status: ('A' for Active; 'I' for Inactive)
REMARK    1  A    between atoms: C_2  and  C_3
REMARK    2  A    between atoms: C_3  and  N_4
REMARK    3  A    between atoms: N_11  and  C_12
REMARK    4  A    between atoms: N_21  and  C_22
REMARK    5  A    between atoms: C_22  and  C_23
REMARK                            x       y       z     vdW  Elec       q    Type
REMARK                         _______ _______ _______ _____ _____    ______ ____
ROOT
ATOM      1  N   UNL     1       2.778   5.390  19.166  0.00  0.00    +0.000 N 
ATOM      2  C   UNL     1       2.039   5.637  20.312  0.00  0.00    +0.000 A 
ATOM      3  N   UNL     1       1.488   6.768  20.630  0.00  0.00    +0.000 NA
ATOM      4  C   UNL     1       1.649   7.742  19.698  0.00  0.00    +0.000 A 
ATOM      5  C   UNL     1       2.332   7.615  18.514  0.00  0.00    +0.000 A 
ATOM      6  C   UNL     1       2.164   8.830  17.850  0.00  0.00    +0.000 A 
ATOM      7  N   UNL     1       1.424   9.693  18.554  0.00  0.00    +0.000 NA
ATOM      8  N   UNL     1       1.135   9.038  19.725  0.00  0.00    +0.000 N 
ATOM      9  C   UNL     1       2.996   6.379  18.205  0.00  0.00    +0.000 A 
ATOM     10  O   UNL     1       3.694   6.229  17.207  0.00  0.00    +0.000 OA
ENDROOT
BRANCH   8  11
ATOM     11  C   UNL     1       0.421   9.700  20.769  0.00  0.00    +0.000 A 
ATOM     12  C   UNL     1       0.382   9.133  22.056  0.00  0.00    +0.000 A 
ATOM     13  C   UNL     1      -0.336   9.762  23.079  0.00  0.00    +0.000 A 
ATOM     14  C   UNL     1      -1.023  10.942  22.816  0.00  0.00    +0.000 A 
ATOM     15  F   UNL     1      -1.727  11.532  23.790  0.00  0.00    +0.000 F 
ATOM     16  C   UNL     1      -0.995  11.515  21.554  0.00  0.00    +0.000 A 
ATOM     17  C   UNL     1      -0.270  10.898  20.532  0.00  0.00    +0.000 A 
ENDBRANCH   8  11
BRANCH   1  18
ATOM     18  C   UNL     1       3.349   4.069  18.951  0.00  0.00    +0.000 C 
BRANCH  18  20
ATOM     19  O   UNL     1       5.495   4.114  20.086  0.00  0.00    +0.000 OA
ATOM     20  C   UNL     1       4.881   4.106  19.025  0.00  0.00    +0.000 C 
ATOM     21  N   UNL     1       5.491   4.223  17.792  0.00  0.00    +0.000 N 
ATOM     22  H   UNL     1       4.940   4.136  16.948  0.00  0.00    +0.000 HD
BRANCH  21  23
ATOM     23  C   UNL     1       6.928   4.299  17.631  0.00  0.00    +0.000 C 
BRANCH  23  24
ATOM     24  C   UNL     1       7.420   5.709  17.854  0.00  0.00    +0.000 A 
ATOM     25  C   UNL     1       8.099   6.040  19.036  0.00  0.00    +0.000 A 
ATOM     26  C   UNL     1       8.551   7.345  19.256  0.00  0.00    +0.000 A 
ATOM     27  C   UNL     1       8.317   8.329  18.298  0.00  0.00    +0.000 A 
ATOM     28 CL   UNL     1       8.872   9.935  18.568  0.00  0.00    +0.000 Cl
ATOM     29  C   UNL     1       7.636   8.020  17.122  0.00  0.00    +0.000 A 
ATOM     30  C   UNL     1       7.186   6.713  16.902  0.00  0.00    +0.000 A 
ENDBRANCH  23  24
ENDBRANCH  21  23
ENDBRANCH  18  20
ENDBRANCH   1  18
TORSDOF 5
ENDMDL
MODEL 6
REMARK VINA RESULT:      -8.2      7.775     10.131
REMARK  Name = 
REMARK  5 active torsions:
REMARK  status: ('A' for Active; 'I' for Inactive)
REMARK    1  A    between atoms: C_2  and  C_3
REMARK    2  A    between atoms: C_3  and  N_4
REMARK    3  A    between atoms: N_11  and  C_12
REMARK    4  A    between atoms: N_21  and  C_22
REMARK    5  A    between atoms: C_22  and  C_23
REMARK                            x       y       z     vdW  Elec       q    Type
REMARK                         _______ _______ _______ _____ _____    ______ ____
ROOT
ATOM      1  N   UNL     1       1.140   9.522  19.630  0.00  0.00    +0.000 N 
ATOM      2  C   UNL     1       1.760   9.438  18.394  0.00  0.00    +0.000 A 
ATOM      3  N   UNL     1       2.441   8.425  17.954  0.00  0.00    +0.000 NA
ATOM      4  C   UNL     1       2.477   7.370  18.809  0.00  0.00    +0.000 A 
ATOM      5  C   UNL     1       1.882   7.318  20.045  0.00  0.00    +0.000 A 
ATOM      6  C   UNL     1       2.110   6.027  20.519  0.00  0.00    +0.000 A 
ATOM      7  N   UNL     1       2.810   5.286  19.653  0.00  0.00    +0.000 NA
ATOM      8  N   UNL     1       3.078   6.130  18.603  0.00  0.00    +0.000 N 
ATOM      9  C   UNL     1       1.188   8.472  20.550  0.00  0.00    +0.000 A 
ATOM     10  O   UNL     1       0.711   8.521  21.679  0.00  0.00    +0.000 OA
ENDROOT
BRANCH   8  11
ATOM     11  C   UNL     1       3.894   5.695  17.515  0.00  0.00    +0.000 A 
ATOM     12  C   UNL     1       3.983   4.325  17.213  0.00  0.00    +0.000 A 
ATOM     13  C   UNL     1       4.799   3.888  16.165  0.00  0.00    +0.000 A 
ATOM     14  C   UNL     1       5.534   4.812  15.430  0.00  0.00    +0.000 A 
ATOM     15  F   UNL     1       6.331   4.392  14.440  0.00  0.00    +0.000 F 
ATOM     16  C   UNL     1       5.458   6.167  15.713  0.00  0.00    +0.000 A 
ATOM     17  C   UNL     1       4.636   6.610  16.751  0.00  0.00    +0.000 A 
ENDBRANCH   8  11
BRANCH   1  18
ATOM     18  C   UNL     1       0.420  10.733  19.992  0.00  0.00    +0.000 C 
BRANCH  18  20
ATOM     19  O   UNL     1      -0.011  12.400  18.279  0.00  0.00    +0.000 OA
ATOM     20  C   UNL     1      -0.316  11.324  18.781  0.00  0.00    +0.000 C 
ATOM     21  N   UNL     1      -1.403  10.576  18.376  0.00  0.00    +0.000 N 
ATOM     22  H   UNL     1      -1.562   9.662  18.778  0.00  0.00    +0.000 HD
BRANCH  21  23
ATOM     23  C   UNL     1      -2.253  10.961  17.269  0.00  0.00    +0.000 C 
BRANCH  23  24
ATOM     24  C   UNL     1      -3.579  11.485  17.766  0.00  0.00    +0.000 A 
ATOM     25  C   UNL     1      -4.682  11.546  16.901  0.00  0.00    +0.000 A 
ATOM     26  C   UNL     1      -5.912  12.036  17.349  0.00  0.00    +0.000 A 
ATOM     27  C   UNL     1      -6.044  12.478  18.664  0.00  0.00    +0.000 A 
ATOM     28 CL   UNL     1      -7.557  13.082  19.217  0.00  0.00    +0.000 Cl
ATOM     29  C   UNL     1      -4.956  12.432  19.534  0.00  0.00    +0.000 A 
ATOM     30  C   UNL     1      -3.726  11.940  19.085  0.00  0.00    +0.000 A 
ENDBRANCH  23  24
ENDBRANCH  21  23
ENDBRANCH  18  20
ENDBRANCH   1  18
TORSDOF 5
ENDMDL
MODEL 7
REMARK VINA RESULT:      -8.2      6.244      8.673
REMARK  Name = 
REMARK  5 active torsions:
REMARK  status: ('A' for Active; 'I' for Inactive)
REMARK    1  A    between atoms: C_2  and  C_3
REMARK    2  A    between atoms: C_3  and  N_4
REMARK    3  A    between atoms: N_11  and  C_12
REMARK    4  A    between atoms: N_21  and  C_22
REMARK    5  A    between atoms: C_22  and  C_23
REMARK                            x       y       z     vdW  Elec       q    Type
REMARK                         _______ _______ _______ _____ _____    ______ ____
ROOT
ATOM      1  N   UNL     1       1.987   6.077  20.294  0.00  0.00    +0.000 N 
ATOM      2  C   UNL     1       2.710   6.740  19.316  0.00  0.00    +0.000 A 
ATOM      3  N   UNL     1       3.506   6.186  18.454  0.00  0.00    +0.000 NA
ATOM      4  C   UNL     1       3.560   4.832  18.544  0.00  0.00    +0.000 A 
ATOM      5  C   UNL     1       2.873   4.059  19.447  0.00  0.00    +0.000 A 
ATOM      6  C   UNL     1       3.169   2.738  19.113  0.00  0.00    +0.000 A 
ATOM      7  N   UNL     1       3.996   2.653  18.066  0.00  0.00    +0.000 NA
ATOM      8  N   UNL     1       4.277   3.955  17.732  0.00  0.00    +0.000 N 
ATOM      9  C   UNL     1       2.047   4.690  20.440  0.00  0.00    +0.000 A 
ATOM     10  O   UNL     1       1.477   4.063  21.328  0.00  0.00    +0.000 OA
ENDROOT
BRANCH   8  11
ATOM     11  C   UNL     1       5.212   4.251  16.695  0.00  0.00    +0.000 A 
ATOM     12  C   UNL     1       6.520   4.647  17.026  0.00  0.00    +0.000 A 
ATOM     13  C   UNL     1       7.435   4.964  16.016  0.00  0.00    +0.000 A 
ATOM     14  C   UNL     1       7.043   4.899  14.684  0.00  0.00    +0.000 A 
ATOM     15  F   UNL     1       7.914   5.221  13.719  0.00  0.00    +0.000 F 
ATOM     16  C   UNL     1       5.759   4.509  14.339  0.00  0.00    +0.000 A 
ATOM     17  C   UNL     1       4.844   4.181  15.342  0.00  0.00    +0.000 A 
ENDBRANCH   8  11
BRANCH   1  18
ATOM     18  C   UNL     1       1.141   6.838  21.202  0.00  0.00    +0.000 C 
BRANCH  18  20
ATOM     19  O   UNL     1       1.768   9.110  21.787  0.00  0.00    +0.000 OA
ATOM     20  C   UNL     1       1.281   8.347  20.960  0.00  0.00    +0.000 C 
ATOM     21  N   UNL     1       0.726   8.769  19.768  0.00  0.00    +0.000 N 
ATOM     22  H   UNL     1       0.406   8.088  19.093  0.00  0.00    +0.000 HD
BRANCH  21  23
ATOM     23  C   UNL     1       0.726  10.156  19.350  0.00  0.00    +0.000 C 
BRANCH  23  24
ATOM     24  C   UNL     1      -0.621  10.549  18.793  0.00  0.00    +0.000 A 
ATOM     25  C   UNL     1      -1.086   9.976  17.600  0.00  0.00    +0.000 A 
ATOM     26  C   UNL     1      -2.328  10.339  17.072  0.00  0.00    +0.000 A 
ATOM     27  C   UNL     1      -3.110  11.285  17.730  0.00  0.00    +0.000 A 
ATOM     28 CL   UNL     1      -4.639  11.734  17.081  0.00  0.00    +0.000 Cl
ATOM     29  C   UNL     1      -2.660  11.871  18.912  0.00  0.00    +0.000 A 
ATOM     30  C   UNL     1      -1.418  11.506  19.441  0.00  0.00    +0.000 A 
ENDBRANCH  23  24
ENDBRANCH  21  23
ENDBRANCH  18  20
ENDBRANCH   1  18
TORSDOF 5
ENDMDL
MODEL 8
REMARK VINA RESULT:      -8.1      7.694     10.042
REMARK  Name = 
REMARK  5 active torsions:
REMARK  status: ('A' for Active; 'I' for Inactive)
REMARK    1  A    between atoms: C_2  and  C_3
REMARK    2  A    between atoms: C_3  and  N_4
REMARK    3  A    between atoms: N_11  and  C_12
REMARK    4  A    between atoms: N_21  and  C_22
REMARK    5  A    between atoms: C_22  and  C_23
REMARK                            x       y       z     vdW  Elec       q    Type
REMARK                         _______ _______ _______ _____ _____    ______ ____
ROOT
ATOM      1  N   UNL     1       1.237   9.358  19.750  0.00  0.00    +0.000 N 
ATOM      2  C   UNL     1       1.862   9.310  18.514  0.00  0.00    +0.000 A 
ATOM      3  N   UNL     1       2.536   8.306  18.043  0.00  0.00    +0.000 NA
ATOM      4  C   UNL     1       2.560   7.224  18.863  0.00  0.00    +0.000 A 
ATOM      5  C   UNL     1       1.958   7.135  20.094  0.00  0.00    +0.000 A 
ATOM      6  C   UNL     1       2.174   5.827  20.525  0.00  0.00    +0.000 A 
ATOM      7  N   UNL     1       2.871   5.110  19.638  0.00  0.00    +0.000 NA
ATOM      8  N   UNL     1       3.152   5.985  18.618  0.00  0.00    +0.000 N 
ATOM      9  C   UNL     1       1.272   8.277  20.633  0.00  0.00    +0.000 A 
ATOM     10  O   UNL     1       0.790   8.292  21.762  0.00  0.00    +0.000 OA
ENDROOT
BRANCH   8  11
ATOM     11  C   UNL     1       3.969   5.581  17.520  0.00  0.00    +0.000 A 
ATOM     12  C   UNL     1       4.603   6.554  16.727  0.00  0.00    +0.000 A 
ATOM     13  C   UNL     1       5.385   6.168  15.633  0.00  0.00    +0.000 A 
ATOM     14  C   UNL     1       5.523   4.819  15.324  0.00  0.00    +0.000 A 
ATOM     15  F   UNL     1       6.256   4.451  14.266  0.00  0.00    +0.000 F 
ATOM     16  C   UNL     1       4.906   3.846  16.095  0.00  0.00    +0.000 A 
ATOM     17  C   UNL     1       4.133   4.225  17.195  0.00  0.00    +0.000 A 
ENDBRANCH   8  11
BRANCH   1  18
ATOM     18  C   UNL     1       0.524  10.562  20.148  0.00  0.00    +0.000 C 
BRANCH  18  20
ATOM     19  O   UNL     1       0.262  12.282  18.454  0.00  0.00    +0.000 OA
ATOM     20  C   UNL     1      -0.147  11.235  18.943  0.00  0.00    +0.000 C 
ATOM     21  N   UNL     1      -1.300  10.600  18.527  0.00  0.00    +0.000 N 
ATOM     22  H   UNL     1      -1.547   9.701  18.918  0.00  0.00    +0.000 HD
BRANCH  21  23
ATOM     23  C   UNL     1      -2.105  11.078  17.422  0.00  0.00    +0.000 C 
BRANCH  23  24
ATOM     24  C   UNL     1      -3.480  11.483  17.895  0.00  0.00    +0.000 A 
ATOM     25  C   UNL     1      -3.650  12.051  19.167  0.00  0.00    +0.000 A 
ATOM     26  C   UNL     1      -4.920  12.422  19.618  0.00  0.00    +0.000 A 
ATOM     27  C   UNL     1      -6.031  12.218  18.802  0.00  0.00    +0.000 A 
ATOM     28 CL   UNL     1      -7.595  12.672  19.355  0.00  0.00    +0.000 Cl
ATOM     29  C   UNL     1      -5.882  11.647  17.539  0.00  0.00    +0.000 A 
ATOM     30  C   UNL     1      -4.610  11.277  17.088  0.00  0.00    +0.000 A 
ENDBRANCH  23  24
ENDBRANCH  21  23
ENDBRANCH  18  20
ENDBRANCH   1  18
TORSDOF 5
ENDMDL
MODEL 9
REMARK VINA RESULT:      -8.1      8.023     10.447
REMARK  Name = 
REMARK  5 active torsions:
REMARK  status: ('A' for Active; 'I' for Inactive)
REMARK    1  A    between atoms: C_2  and  C_3
REMARK    2  A    between atoms: C_3  and  N_4
REMARK    3  A    between atoms: N_11  and  C_12
REMARK    4  A    between atoms: N_21  and  C_22
REMARK    5  A    between atoms: C_22  and  C_23
REMARK                            x       y       z     vdW  Elec       q    Type
REMARK                         _______ _______ _______ _____ _____    ______ ____
ROOT
ATOM      1  N   UNL     1       1.049  10.487  19.380  0.00  0.00    +0.000 N 
ATOM      2  C   UNL     1       1.700  10.166  18.200  0.00  0.00    +0.000 A 
ATOM      3  N   UNL     1       2.269   9.032  17.932  0.00  0.00    +0.000 NA
ATOM      4  C   UNL     1       2.147   8.106  18.918  0.00  0.00    +0.000 A 
ATOM      5  C   UNL     1       1.504   8.290  20.117  0.00  0.00    +0.000 A 
ATOM      6  C   UNL     1       1.558   7.057  20.766  0.00  0.00    +0.000 A 
ATOM      7  N   UNL     1       2.195   6.131  20.042  0.00  0.00    +0.000 NA
ATOM      8  N   UNL     1       2.601   6.788  18.907  0.00  0.00    +0.000 N 
ATOM      9  C   UNL     1       0.937   9.573  20.430  0.00  0.00    +0.000 A 
ATOM     10  O   UNL     1       0.428   9.829  21.516  0.00  0.00    +0.000 OA
ENDROOT
BRANCH   8  11
ATOM     11  C   UNL     1       3.398   6.120  17.929  0.00  0.00    +0.000 A 
ATOM     12  C   UNL     1       3.243   4.737  17.728  0.00  0.00    +0.000 A 
ATOM     13  C   UNL     1       4.037   4.069  16.790  0.00  0.00    +0.000 A 
ATOM     14  C   UNL     1       4.991   4.775  16.066  0.00  0.00    +0.000 A 
ATOM     15  F   UNL     1       5.765   4.132  15.183  0.00  0.00    +0.000 F 
ATOM     16  C   UNL     1       5.158   6.139  16.250  0.00  0.00    +0.000 A 
ATOM     17  C   UNL     1       4.360   6.813  17.177  0.00  0.00    +0.000 A 
ENDBRANCH   8  11
BRANCH   1  18
ATOM     18  C   UNL     1       0.467  11.811  19.542  0.00  0.00    +0.000 C 
BRANCH  18  20
ATOM     19  O   UNL     1      -0.649  13.038  17.768  0.00  0.00    +0.000 OA
ATOM     20  C   UNL     1      -0.640  12.061  18.509  0.00  0.00    +0.000 C 
ATOM     21  N   UNL     1      -1.663  11.136  18.560  0.00  0.00    +0.000 N 
ATOM     22  H   UNL     1      -1.567  10.311  19.138  0.00  0.00    +0.000 HD
BRANCH  21  23
ATOM     23  C   UNL     1      -2.820  11.195  17.691  0.00  0.00    +0.000 C 
BRANCH  23  24
ATOM     24  C   UNL     1      -4.074  11.472  18.484  0.00  0.00    +0.000 A 
ATOM     25  C   UNL     1      -5.300  10.922  18.079  0.00  0.00    +0.000 A 
ATOM     26  C   UNL     1      -6.469  11.178  18.802  0.00  0.00    +0.000 A 
ATOM     27  C   UNL     1      -6.420  11.995  19.930  0.00  0.00    +0.000 A 
ATOM     28 CL   UNL     1      -7.858  12.313  20.820  0.00  0.00    +0.000 Cl
ATOM     29  C   UNL     1      -5.213  12.557  20.340  0.00  0.00    +0.000 A 
ATOM     30  C   UNL     1      -4.043  12.298  19.618  0.00  0.00    +0.000 A 
ENDBRANCH  23  24
ENDBRANCH  21  23
ENDBRANCH  18  20
ENDBRANCH   1  18
TORSDOF 5
ENDMDL
