MODEL 1
REMARK VINA RESULT:      -8.7      0.000      0.000
REMARK  Name = 
REMARK  4 active torsions:
REMARK  status: ('A' for Active; 'I' for Inactive)
REMARK    1  A    between atoms: C_1  and  C_2
REMARK    2  A    between atoms: C_4  and  N_5
REMARK    3  A    between atoms: N_5  and  C_6
REMARK    4  A    between atoms: C_8  and  C_9
REMARK                            x       y       z     vdW  Elec       q    Type
REMARK                         _______ _______ _______ _____ _____    ______ ____
ROOT
ATOM      1  C   UNL     1       5.185   4.363  18.117  0.00  0.00    +0.000 A 
ATOM      2  N   UNL     1       5.726   4.128  16.913  0.00  0.00    +0.000 NA
ATOM      3  C   UNL     1       5.556   5.046  15.927  0.00  0.00    +0.000 A 
ATOM      4  N   UNL     1       4.841   6.188  16.063  0.00  0.00    +0.000 NA
ATOM      5  C   UNL     1       4.315   6.371  17.278  0.00  0.00    +0.000 A 
ATOM      6  C   UNL     1       4.480   5.512  18.342  0.00  0.00    +0.000 A 
ATOM      7  C   UNL     1       3.757   5.986  19.553  0.00  0.00    +0.000 C 
ATOM      8  C   UNL     1       2.764   6.980  18.932  0.00  0.00    +0.000 C 
ATOM      9  C   UNL     1       3.418   7.516  17.649  0.00  0.00    +0.000 C 
ENDROOT
BRANCH   3  10
ATOM     10  C   UNL     1       6.152   4.750  14.598  0.00  0.00    +0.000 A 
ATOM     11  C   UNL     1       5.572   3.830  13.718  0.00  0.00    +0.000 A 
ATOM     12  C   UNL     1       6.186   3.560  12.495  0.00  0.00    +0.000 A 
ATOM     13  C   UNL     1       7.364   4.219  12.166  0.00  0.00    +0.000 A 
ATOM     14  C   UNL     1       7.880   5.124  13.076  0.00  0.00    +0.000 A 
ATOM     15  N   UNL     1       7.309   5.398  14.268  0.00  0.00    +0.000 NA
ENDBRANCH   3  10
BRANCH   1  16
ATOM     16  N   UNL     1       5.257   3.395  19.124  0.00  0.00    +0.000 N 
ATOM     17  H   UNL     1       6.160   2.927  19.093  0.00  0.00    +0.000 HD
BRANCH  16  21
ATOM     18  C   UNL     1       0.665   2.377  17.961  0.00  0.00    +0.000 C 
ATOM     19  C   UNL     1       1.824   3.165  18.547  0.00  0.00    +0.000 C 
ATOM     20  C   UNL     1       3.180   2.739  17.937  0.00  0.00    +0.000 C 
ATOM     21  C   UNL     1       4.165   2.423  19.113  0.00  0.00    +0.000 C 
ATOM     22  C   UNL     1       3.270   2.535  20.297  0.00  0.00    +0.000 A 
ATOM     23  N   UNL     1       3.396   2.388  21.596  0.00  0.00    +0.000 NA
ATOM     24  C   UNL     1       2.149   2.733  22.088  0.00  0.00    +0.000 A 
ATOM     25  C   UNL     1       1.281   3.095  21.075  0.00  0.00    +0.000 A 
ATOM     26  N   UNL     1       2.016   2.929  19.961  0.00  0.00    +0.000 N 
ENDBRANCH  16  21
ENDBRANCH   1  16
TORSDOF 3
ENDMDL
MODEL 2
REMARK VINA RESULT:      -8.5      2.538      6.743
REMARK  Name = 
REMARK  4 active torsions:
REMARK  status: ('A' for Active; 'I' for Inactive)
REMARK    1  A    between atoms: C_1  and  C_2
REMARK    2  A    between atoms: C_4  and  N_5
REMARK    3  A    between atoms: N_5  and  C_6
REMARK    4  A    between atoms: C_8  and  C_9
REMARK                            x       y       z     vdW  Elec       q    Type
REMARK                         _______ _______ _______ _____ _____    ______ ____
ROOT
ATOM      1  C   UNL     1       2.933   5.063  18.579  0.00  0.00    +0.000 A 
ATOM      2  N   UNL     1       2.560   6.342  18.737  0.00  0.00    +0.000 NA
ATOM      3  C   UNL     1       2.003   6.721  19.916  0.00  0.00    +0.000 A 
ATOM      4  N   UNL     1       1.763   5.882  20.952  0.00  0.00    +0.000 NA
ATOM      5  C   UNL     1       2.144   4.619  20.740  0.00  0.00    +0.000 A 
ATOM      6  C   UNL     1       2.757   4.164  19.593  0.00  0.00    +0.000 A 
ATOM      7  C   UNL     1       3.041   2.705  19.658  0.00  0.00    +0.000 C 
ATOM      8  C   UNL     1       2.095   2.272  20.787  0.00  0.00    +0.000 C 
ATOM      9  C   UNL     1       1.910   3.492  21.704  0.00  0.00    +0.000 C 
ENDROOT
BRANCH   3  10
ATOM     10  C   UNL     1       1.583   8.140  20.055  0.00  0.00    +0.000 A 
ATOM     11  C   UNL     1       1.191   8.676  21.285  0.00  0.00    +0.000 A 
ATOM     12  C   UNL     1       0.772  10.005  21.361  0.00  0.00    +0.000 A 
ATOM     13  C   UNL     1       0.762  10.780  20.207  0.00  0.00    +0.000 A 
ATOM     14  C   UNL     1       1.171  10.192  19.024  0.00  0.00    +0.000 A 
ATOM     15  N   UNL     1       1.574   8.907  18.924  0.00  0.00    +0.000 NA
ENDBRANCH   3  10
BRANCH   1  16
ATOM     16  N   UNL     1       3.418   4.617  17.345  0.00  0.00    +0.000 N 
ATOM     17  H   UNL     1       3.684   3.637  17.410  0.00  0.00    +0.000 HD
BRANCH  16  21
ATOM     18  C   UNL     1       7.328   4.841  14.493  0.00  0.00    +0.000 C 
ATOM     19  C   UNL     1       6.403   4.298  15.568  0.00  0.00    +0.000 C 
ATOM     20  C   UNL     1       4.960   4.831  15.414  0.00  0.00    +0.000 C 
ATOM     21  C   UNL     1       4.508   5.419  16.793  0.00  0.00    +0.000 C 
ATOM     22  C   UNL     1       5.763   5.327  17.589  0.00  0.00    +0.000 A 
ATOM     23  N   UNL     1       6.137   5.645  18.806  0.00  0.00    +0.000 NA
ATOM     24  C   UNL     1       7.444   5.191  18.878  0.00  0.00    +0.000 A 
ATOM     25  C   UNL     1       7.843   4.594  17.696  0.00  0.00    +0.000 A 
ATOM     26  N   UNL     1       6.766   4.726  16.901  0.00  0.00    +0.000 N 
ENDBRANCH  16  21
ENDBRANCH   1  16
TORSDOF 3
ENDMDL
MODEL 3
REMARK VINA RESULT:      -8.3      1.670      4.817
REMARK  Name = 
REMARK  4 active torsions:
REMARK  status: ('A' for Active; 'I' for Inactive)
REMARK    1  A    between atoms: C_1  and  C_2
REMARK    2  A    between atoms: C_4  and  N_5
REMARK    3  A    between atoms: N_5  and  C_6
REMARK    4  A    between atoms: C_8  and  C_9
REMARK                            x       y       z     vdW  Elec       q    Type
REMARK                         _______ _______ _______ _____ _____    ______ ____
ROOT
ATOM      1  C   UNL     1       4.677   4.402  18.355  0.00  0.00    +0.000 A 
ATOM      2  N   UNL     1       3.846   5.313  18.883  0.00  0.00    +0.000 NA
ATOM      3  C   UNL     1       3.540   6.420  18.158  0.00  0.00    +0.000 A 
ATOM      4  N   UNL     1       4.046   6.693  16.932  0.00  0.00    +0.000 NA
ATOM      5  C   UNL     1       4.876   5.760  16.455  0.00  0.00    +0.000 A 
ATOM      6  C   UNL     1       5.200   4.590  17.107  0.00  0.00    +0.000 A 
ATOM      7  C   UNL     1       6.161   3.768  16.323  0.00  0.00    +0.000 C 
ATOM      8  C   UNL     1       6.722   4.818  15.353  0.00  0.00    +0.000 C 
ATOM      9  C   UNL     1       5.623   5.875  15.158  0.00  0.00    +0.000 C 
ENDROOT
BRANCH   3  10
ATOM     10  C   UNL     1       2.630   7.420  18.776  0.00  0.00    +0.000 A 
ATOM     11  C   UNL     1       2.178   8.540  18.073  0.00  0.00    +0.000 A 
ATOM     12  C   UNL     1       1.352   9.469  18.706  0.00  0.00    +0.000 A 
ATOM     13  C   UNL     1       0.983   9.259  20.029  0.00  0.00    +0.000 A 
ATOM     14  C   UNL     1       1.458   8.126  20.665  0.00  0.00    +0.000 A 
ATOM     15  N   UNL     1       2.263   7.216  20.077  0.00  0.00    +0.000 NA
ENDBRANCH   3  10
BRANCH   1  16
ATOM     16  N   UNL     1       5.090   3.301  19.112  0.00  0.00    +0.000 N 
ATOM     17  H   UNL     1       5.951   2.918  18.728  0.00  0.00    +0.000 HD
BRANCH  16  21
ATOM     18  C   UNL     1       0.592   1.755  18.194  0.00  0.00    +0.000 C 
ATOM     19  C   UNL     1       1.686   2.714  18.630  0.00  0.00    +0.000 C 
ATOM     20  C   UNL     1       3.070   2.304  18.075  0.00  0.00    +0.000 C 
ATOM     21  C   UNL     1       4.079   2.258  19.272  0.00  0.00    +0.000 C 
ATOM     22  C   UNL     1       3.181   2.487  20.437  0.00  0.00    +0.000 A 
ATOM     23  N   UNL     1       3.321   2.559  21.740  0.00  0.00    +0.000 NA
ATOM     24  C   UNL     1       2.051   2.880  22.190  0.00  0.00    +0.000 A 
ATOM     25  C   UNL     1       1.155   3.006  21.145  0.00  0.00    +0.000 A 
ATOM     26  N   UNL     1       1.899   2.722  20.061  0.00  0.00    +0.000 N 
ENDBRANCH  16  21
ENDBRANCH   1  16
TORSDOF 3
ENDMDL
MODEL 4
REMARK VINA RESULT:      -8.2      3.185      5.913
REMARK  Name = 
REMARK  4 active torsions:
REMARK  status: ('A' for Active; 'I' for Inactive)
REMARK    1  A    between atoms: C_1  and  C_2
REMARK    2  A    between atoms: C_4  and  N_5
REMARK    3  A    between atoms: N_5  and  C_6
REMARK    4  A    between atoms: C_8  and  C_9
REMARK                            x       y       z     vdW  Elec       q    Type
REMARK                         _______ _______ _______ _____ _____    ______ ____
ROOT
ATOM      1  C   UNL     1       2.188   5.574  19.951  0.00  0.00    +0.000 A 
ATOM      2  N   UNL     1       3.415   6.039  19.674  0.00  0.00    +0.000 NA
ATOM      3  C   UNL     1       4.318   5.207  19.094  0.00  0.00    +0.000 A 
ATOM      4  N   UNL     1       4.077   3.908  18.797  0.00  0.00    +0.000 NA
ATOM      5  C   UNL     1       2.844   3.491  19.099  0.00  0.00    +0.000 A 
ATOM      6  C   UNL     1       1.858   4.283  19.646  0.00  0.00    +0.000 A 
ATOM      7  C   UNL     1       0.602   3.520  19.882  0.00  0.00    +0.000 C 
ATOM      8  C   UNL     1       1.125   2.077  19.846  0.00  0.00    +0.000 C 
ATOM      9  C   UNL     1       2.366   2.076  18.940  0.00  0.00    +0.000 C 
ENDROOT
BRANCH   3  10
ATOM     10  C   UNL     1       5.675   5.746  18.817  0.00  0.00    +0.000 A 
ATOM     11  C   UNL     1       5.931   6.571  17.717  0.00  0.00    +0.000 A 
ATOM     12  C   UNL     1       7.227   7.025  17.478  0.00  0.00    +0.000 A 
ATOM     13  C   UNL     1       8.247   6.658  18.349  0.00  0.00    +0.000 A 
ATOM     14  C   UNL     1       7.926   5.848  19.423  0.00  0.00    +0.000 A 
ATOM     15  N   UNL     1       6.681   5.390  19.672  0.00  0.00    +0.000 NA
ENDBRANCH   3  10
BRANCH   1  16
ATOM     16  N   UNL     1       1.268   6.372  20.637  0.00  0.00    +0.000 N 
ATOM     17  H   UNL     1       0.357   6.319  20.186  0.00  0.00    +0.000 HD
BRANCH  16  21
ATOM     18  C   UNL     1       0.075  10.891  21.913  0.00  0.00    +0.000 C 
ATOM     19  C   UNL     1      -0.047   9.553  21.205  0.00  0.00    +0.000 C 
ATOM     20  C   UNL     1       0.788   8.453  21.900  0.00  0.00    +0.000 C 
ATOM     21  C   UNL     1       1.682   7.763  20.815  0.00  0.00    +0.000 C 
ATOM     22  C   UNL     1       1.418   8.610  19.620  0.00  0.00    +0.000 A 
ATOM     23  N   UNL     1       1.828   8.641  18.373  0.00  0.00    +0.000 NA
ATOM     24  C   UNL     1       1.089   9.668  17.810  0.00  0.00    +0.000 A 
ATOM     25  C   UNL     1       0.231  10.243  18.728  0.00  0.00    +0.000 A 
ATOM     26  N   UNL     1       0.490   9.568  19.862  0.00  0.00    +0.000 N 
ENDBRANCH  16  21
ENDBRANCH   1  16
TORSDOF 3
ENDMDL
MODEL 5
REMARK VINA RESULT:      -8.2      2.354      6.741
REMARK  Name = 
REMARK  4 active torsions:
REMARK  status: ('A' for Active; 'I' for Inactive)
REMARK    1  A    between atoms: C_1  and  C_2
REMARK    2  A    between atoms: C_4  and  N_5
REMARK    3  A    between atoms: N_5  and  C_6
REMARK    4  A    between atoms: C_8  and  C_9
REMARK                            x       y       z     vdW  Elec       q    Type
REMARK                         _______ _______ _______ _____ _____    ______ ____
ROOT
ATOM      1  C   UNL     1       3.325   4.696  18.662  0.00  0.00    +0.000 A 
ATOM      2  N   UNL     1       2.947   5.978  18.549  0.00  0.00    +0.000 NA
ATOM      3  C   UNL     1       2.220   6.538  19.551  0.00  0.00    +0.000 A 
ATOM      4  N   UNL     1       1.815   5.877  20.661  0.00  0.00    +0.000 NA
ATOM      5  C   UNL     1       2.209   4.602  20.721  0.00  0.00    +0.000 A 
ATOM      6  C   UNL     1       2.984   3.973  19.772  0.00  0.00    +0.000 A 
ATOM      7  C   UNL     1       3.238   2.549  20.119  0.00  0.00    +0.000 C 
ATOM      8  C   UNL     1       2.125   2.295  21.146  0.00  0.00    +0.000 C 
ATOM      9  C   UNL     1       1.817   3.646  21.810  0.00  0.00    +0.000 C 
ENDROOT
BRANCH   3  10
ATOM     10  C   UNL     1       1.801   7.955  19.388  0.00  0.00    +0.000 A 
ATOM     11  C   UNL     1       1.999   8.651  18.192  0.00  0.00    +0.000 A 
ATOM     12  C   UNL     1       1.620   9.989  18.098  0.00  0.00    +0.000 A 
ATOM     13  C   UNL     1       1.038  10.610  19.198  0.00  0.00    +0.000 A 
ATOM     14  C   UNL     1       0.862   9.863  20.348  0.00  0.00    +0.000 A 
ATOM     15  N   UNL     1       1.226   8.568  20.467  0.00  0.00    +0.000 NA
ENDBRANCH   3  10
BRANCH   1  16
ATOM     16  N   UNL     1       3.987   4.059  17.608  0.00  0.00    +0.000 N 
ATOM     17  H   UNL     1       3.747   3.071  17.593  0.00  0.00    +0.000 HD
BRANCH  16  21
ATOM     18  C   UNL     1       7.743   7.114  17.430  0.00  0.00    +0.000 C 
ATOM     19  C   UNL     1       6.415   6.497  17.029  0.00  0.00    +0.000 C 
ATOM     20  C   UNL     1       5.798   5.658  18.172  0.00  0.00    +0.000 C 
ATOM     21  C   UNL     1       5.437   4.246  17.599  0.00  0.00    +0.000 C 
ATOM     22  C   UNL     1       6.009   4.319  16.227  0.00  0.00    +0.000 A 
ATOM     23  N   UNL     1       6.100   3.513  15.195  0.00  0.00    +0.000 NA
ATOM     24  C   UNL     1       6.698   4.293  14.220  0.00  0.00    +0.000 A 
ATOM     25  C   UNL     1       6.956   5.572  14.675  0.00  0.00    +0.000 A 
ATOM     26  N   UNL     1       6.534   5.539  15.952  0.00  0.00    +0.000 N 
ENDBRANCH  16  21
ENDBRANCH   1  16
TORSDOF 3
ENDMDL
MODEL 6
REMARK VINA RESULT:      -8.2      2.546      7.118
REMARK  Name = 
REMARK  4 active torsions:
REMARK  status: ('A' for Active; 'I' for Inactive)
REMARK    1  A    between atoms: C_1  and  C_2
REMARK    2  A    between atoms: C_4  and  N_5
REMARK    3  A    between atoms: N_5  and  C_6
REMARK    4  A    between atoms: C_8  and  C_9
REMARK                            x       y       z     vdW  Elec       q    Type
REMARK                         _______ _______ _______ _____ _____    ______ ____
ROOT
ATOM      1  C   UNL     1       2.980   5.041  18.782  0.00  0.00    +0.000 A 
ATOM      2  N   UNL     1       2.622   6.319  18.981  0.00  0.00    +0.000 NA
ATOM      3  C   UNL     1       1.908   6.635  20.092  0.00  0.00    +0.000 A 
ATOM      4  N   UNL     1       1.495   5.735  21.015  0.00  0.00    +0.000 NA
ATOM      5  C   UNL     1       1.868   4.476  20.767  0.00  0.00    +0.000 A 
ATOM      6  C   UNL     1       2.630   4.081  19.690  0.00  0.00    +0.000 A 
ATOM      7  C   UNL     1       2.862   2.611  19.685  0.00  0.00    +0.000 C 
ATOM      8  C   UNL     1       1.747   2.136  20.630  0.00  0.00    +0.000 C 
ATOM      9  C   UNL     1       1.463   3.294  21.599  0.00  0.00    +0.000 C 
ENDROOT
BRANCH   3  10
ATOM     10  C   UNL     1       1.512   8.056  20.275  0.00  0.00    +0.000 A 
ATOM     11  C   UNL     1       1.156   8.567  21.527  0.00  0.00    +0.000 A 
ATOM     12  C   UNL     1       0.759   9.899  21.644  0.00  0.00    +0.000 A 
ATOM     13  C   UNL     1       0.732  10.703  20.510  0.00  0.00    +0.000 A 
ATOM     14  C   UNL     1       1.105  10.138  19.304  0.00  0.00    +0.000 A 
ATOM     15  N   UNL     1       1.487   8.851  19.163  0.00  0.00    +0.000 NA
ENDBRANCH   3  10
BRANCH   1  16
ATOM     16  N   UNL     1       3.629   4.665  17.602  0.00  0.00    +0.000 N 
ATOM     17  H   UNL     1       3.272   3.768  17.281  0.00  0.00    +0.000 HD
BRANCH  16  21
ATOM     18  C   UNL     1       7.794   7.130  17.392  0.00  0.00    +0.000 C 
ATOM     19  C   UNL     1       6.418   6.658  16.956  0.00  0.00    +0.000 C 
ATOM     20  C   UNL     1       5.614   6.055  18.131  0.00  0.00    +0.000 C 
ATOM     21  C   UNL     1       5.088   4.647  17.689  0.00  0.00    +0.000 C 
ATOM     22  C   UNL     1       5.750   4.477  16.367  0.00  0.00    +0.000 A 
ATOM     23  N   UNL     1       5.788   3.548  15.440  0.00  0.00    +0.000 NA
ATOM     24  C   UNL     1       6.554   4.115  14.436  0.00  0.00    +0.000 A 
ATOM     25  C   UNL     1       6.966   5.392  14.768  0.00  0.00    +0.000 A 
ATOM     26  N   UNL     1       6.464   5.571  16.002  0.00  0.00    +0.000 N 
ENDBRANCH  16  21
ENDBRANCH   1  16
TORSDOF 3
ENDMDL
MODEL 7
REMARK VINA RESULT:      -8.1      3.179      5.115
REMARK  Name = 
REMARK  4 active torsions:
REMARK  status: ('A' for Active; 'I' for Inactive)
REMARK    1  A    between atoms: C_1  and  C_2
REMARK    2  A    between atoms: C_4  and  N_5
REMARK    3  A    between atoms: N_5  and  C_6
REMARK    4  A    between atoms: C_8  and  C_9
REMARK                            x       y       z     vdW  Elec       q    Type
REMARK                         _______ _______ _______ _____ _____    ______ ____
ROOT
ATOM      1  C   UNL     1       2.780   6.025  19.373  0.00  0.00    +0.000 A 
ATOM      2  N   UNL     1       3.725   6.012  18.421  0.00  0.00    +0.000 NA
ATOM      3  C   UNL     1       4.009   4.840  17.796  0.00  0.00    +0.000 A 
ATOM      4  N   UNL     1       3.421   3.656  18.090  0.00  0.00    +0.000 NA
ATOM      5  C   UNL     1       2.495   3.721  19.050  0.00  0.00    +0.000 A 
ATOM      6  C   UNL     1       2.116   4.876  19.700  0.00  0.00    +0.000 A 
ATOM      7  C   UNL     1       1.073   4.616  20.729  0.00  0.00    +0.000 C 
ATOM      8  C   UNL     1       1.230   3.101  20.929  0.00  0.00    +0.000 C 
ATOM      9  C   UNL     1       1.765   2.532  19.605  0.00  0.00    +0.000 C 
ENDROOT
BRANCH   3  10
ATOM     10  C   UNL     1       5.074   4.853  16.759  0.00  0.00    +0.000 A 
ATOM     11  C   UNL     1       4.935   4.163  15.551  0.00  0.00    +0.000 A 
ATOM     12  C   UNL     1       5.975   4.176  14.621  0.00  0.00    +0.000 A 
ATOM     13  C   UNL     1       7.134   4.888  14.909  0.00  0.00    +0.000 A 
ATOM     14  C   UNL     1       7.204   5.557  16.117  0.00  0.00    +0.000 A 
ATOM     15  N   UNL     1       6.215   5.554  17.036  0.00  0.00    +0.000 NA
ENDBRANCH   3  10
BRANCH   1  16
ATOM     16  N   UNL     1       2.532   7.191  20.105  0.00  0.00    +0.000 N 
ATOM     17  H   UNL     1       2.554   6.988  21.101  0.00  0.00    +0.000 HD
BRANCH  16  21
ATOM     18  C   UNL     1       0.408  11.253  18.535  0.00  0.00    +0.000 C 
ATOM     19  C   UNL     1       1.318  10.381  19.383  0.00  0.00    +0.000 C 
ATOM     20  C   UNL     1       1.610   9.021  18.706  0.00  0.00    +0.000 C 
ATOM     21  C   UNL     1       1.299   7.887  19.741  0.00  0.00    +0.000 C 
ATOM     22  C   UNL     1       0.707   8.658  20.868  0.00  0.00    +0.000 A 
ATOM     23  N   UNL     1       0.206   8.374  22.048  0.00  0.00    +0.000 NA
ATOM     24  C   UNL     1      -0.081   9.616  22.590  0.00  0.00    +0.000 A 
ATOM     25  C   UNL     1       0.259  10.641  21.728  0.00  0.00    +0.000 A 
ATOM     26  N   UNL     1       0.725   9.995  20.644  0.00  0.00    +0.000 N 
ENDBRANCH  16  21
ENDBRANCH   1  16
TORSDOF 3
ENDMDL
MODEL 8
REMARK VINA RESULT:      -8.0      1.593      2.904
REMARK  Name = 
REMARK  4 active torsions:
REMARK  status: ('A' for Active; 'I' for Inactive)
REMARK    1  A    between atoms: C_1  and  C_2
REMARK    2  A    between atoms: C_4  and  N_5
REMARK    3  A    between atoms: N_5  and  C_6
REMARK    4  A    between atoms: C_8  and  C_9
REMARK                            x       y       z     vdW  Elec       q    Type
REMARK                         _______ _______ _______ _____ _____    ______ ____
ROOT
ATOM      1  C   UNL     1       5.000   5.642  17.164  0.00  0.00    +0.000 A 
ATOM      2  N   UNL     1       5.167   5.343  15.867  0.00  0.00    +0.000 NA
ATOM      3  C   UNL     1       6.342   4.794  15.467  0.00  0.00    +0.000 A 
ATOM      4  N   UNL     1       7.390   4.549  16.290  0.00  0.00    +0.000 NA
ATOM      5  C   UNL     1       7.176   4.873  17.569  0.00  0.00    +0.000 A 
ATOM      6  C   UNL     1       5.999   5.391  18.062  0.00  0.00    +0.000 A 
ATOM      7  C   UNL     1       6.082   5.661  19.523  0.00  0.00    +0.000 C 
ATOM      8  C   UNL     1       7.604   5.681  19.731  0.00  0.00    +0.000 C 
ATOM      9  C   UNL     1       8.211   4.771  18.652  0.00  0.00    +0.000 C 
ENDROOT
BRANCH   3  10
ATOM     10  C   UNL     1       6.505   4.490  14.021  0.00  0.00    +0.000 A 
ATOM     11  C   UNL     1       5.729   3.520  13.379  0.00  0.00    +0.000 A 
ATOM     12  C   UNL     1       5.940   3.247  12.028  0.00  0.00    +0.000 A 
ATOM     13  C   UNL     1       6.917   3.953  11.336  0.00  0.00    +0.000 A 
ATOM     14  C   UNL     1       7.644   4.905  12.027  0.00  0.00    +0.000 A 
ATOM     15  N   UNL     1       7.463   5.184  13.336  0.00  0.00    +0.000 NA
ENDBRANCH   3  10
BRANCH   1  16
ATOM     16  N   UNL     1       3.842   6.299  17.593  0.00  0.00    +0.000 N 
ATOM     17  H   UNL     1       4.069   6.949  18.343  0.00  0.00    +0.000 HD
BRANCH  16  21
ATOM     18  C   UNL     1       1.544   3.905  21.123  0.00  0.00    +0.000 C 
ATOM     19  C   UNL     1       2.716   4.388  20.286  0.00  0.00    +0.000 C 
ATOM     20  C   UNL     1       2.365   5.662  19.482  0.00  0.00    +0.000 C 
ATOM     21  C   UNL     1       2.748   5.412  17.984  0.00  0.00    +0.000 C 
ATOM     22  C   UNL     1       3.138   3.976  18.005  0.00  0.00    +0.000 A 
ATOM     23  N   UNL     1       3.548   3.094  17.124  0.00  0.00    +0.000 NA
ATOM     24  C   UNL     1       3.801   1.964  17.883  0.00  0.00    +0.000 A 
ATOM     25  C   UNL     1       3.547   2.181  19.224  0.00  0.00    +0.000 A 
ATOM     26  N   UNL     1       3.105   3.451  19.255  0.00  0.00    +0.000 N 
ENDBRANCH  16  21
ENDBRANCH   1  16
TORSDOF 3
ENDMDL
MODEL 9
REMARK VINA RESULT:      -8.0      1.638      2.726
REMARK  Name = 
REMARK  4 active torsions:
REMARK  status: ('A' for Active; 'I' for Inactive)
REMARK    1  A    between atoms: C_1  and  C_2
REMARK    2  A    between atoms: C_4  and  N_5
REMARK    3  A    between atoms: N_5  and  C_6
REMARK    4  A    between atoms: C_8  and  C_9
REMARK                            x       y       z     vdW  Elec       q    Type
REMARK                         _______ _______ _______ _____ _____    ______ ____
ROOT
ATOM      1  C   UNL     1       5.172   3.842  17.187  0.00  0.00    +0.000 A 
ATOM      2  N   UNL     1       5.439   3.884  15.873  0.00  0.00    +0.000 NA
ATOM      3  C   UNL     1       6.593   4.464  15.456  0.00  0.00    +0.000 A 
ATOM      4  N   UNL     1       7.498   5.043  16.281  0.00  0.00    +0.000 NA
ATOM      5  C   UNL     1       7.182   4.982  17.578  0.00  0.00    +0.000 A 
ATOM      6  C   UNL     1       6.055   4.373  18.085  0.00  0.00    +0.000 A 
ATOM      7  C   UNL     1       5.980   4.491  19.567  0.00  0.00    +0.000 C 
ATOM      8  C   UNL     1       6.955   5.651  19.817  0.00  0.00    +0.000 C 
ATOM      9  C   UNL     1       7.983   5.622  18.676  0.00  0.00    +0.000 C 
ENDROOT
BRANCH   3  10
ATOM     10  C   UNL     1       6.853   4.512  13.993  0.00  0.00    +0.000 A 
ATOM     11  C   UNL     1       6.246   3.616  13.107  0.00  0.00    +0.000 A 
ATOM     12  C   UNL     1       6.546   3.678  11.746  0.00  0.00    +0.000 A 
ATOM     13  C   UNL     1       7.440   4.639  11.290  0.00  0.00    +0.000 A 
ATOM     14  C   UNL     1       7.998   5.500  12.217  0.00  0.00    +0.000 A 
ATOM     15  N   UNL     1       7.730   5.458  13.540  0.00  0.00    +0.000 NA
ENDBRANCH   3  10
BRANCH   1  16
ATOM     16  N   UNL     1       3.948   3.342  17.643  0.00  0.00    +0.000 N 
ATOM     17  H   UNL     1       3.710   2.491  17.138  0.00  0.00    +0.000 HD
BRANCH  16  21
ATOM     18  C   UNL     1       2.355   7.825  18.556  0.00  0.00    +0.000 C 
ATOM     19  C   UNL     1       3.036   6.495  18.825  0.00  0.00    +0.000 C 
ATOM     20  C   UNL     1       3.408   5.760  17.517  0.00  0.00    +0.000 C 
ATOM     21  C   UNL     1       2.845   4.300  17.602  0.00  0.00    +0.000 C 
ATOM     22  C   UNL     1       2.065   4.349  18.868  0.00  0.00    +0.000 A 
ATOM     23  N   UNL     1       1.321   3.512  19.554  0.00  0.00    +0.000 NA
ATOM     24  C   UNL     1       0.976   4.230  20.686  0.00  0.00    +0.000 A 
ATOM     25  C   UNL     1       1.527   5.498  20.675  0.00  0.00    +0.000 A 
ATOM     26  N   UNL     1       2.181   5.543  19.500  0.00  0.00    +0.000 N 
ENDBRANCH  16  21
ENDBRANCH   1  16
TORSDOF 3
ENDMDL
