MODEL 1
REMARK VINA RESULT:      -8.8      0.000      0.000
REMARK  Name = 
REMARK  5 active torsions:
REMARK  status: ('A' for Active; 'I' for Inactive)
REMARK    1  A    between atoms: C_2  and  O_3
REMARK    2  A    between atoms: C_2  and  C_4
REMARK    3  A    between atoms: C_8  and  C_9
REMARK    4  A    between atoms: C_9  and  C_10
REMARK    5  A    between atoms: C_16  and  C_17
REMARK                            x       y       z     vdW  Elec       q    Type
REMARK                         _______ _______ _______ _____ _____    ______ ____
ROOT
ATOM      1  C   UNL     1       3.224   5.277  19.715  0.00  0.00    +0.000 C 
ATOM      2  O   UNL     1       4.365   5.589  20.071  0.00  0.00    +0.000 OA
ATOM      3  N   UNL     1       3.000   4.217  18.861  0.00  0.00    +0.000 N 
ATOM      4  C   UNL     1       1.736   3.724  18.341  0.00  0.00    +0.000 C 
ATOM      5  C   UNL     1       1.928   2.217  18.330  0.00  0.00    +0.000 C 
ATOM      6  C   UNL     1       3.401   2.039  17.967  0.00  0.00    +0.000 C 
ATOM      7  C   UNL     1       4.093   3.303  18.511  0.00  0.00    +0.000 C 
ENDROOT
BRANCH   7   8
ATOM      8  C   UNL     1       5.075   3.931  17.537  0.00  0.00    +0.000 A 
ATOM      9  C   UNL     1       6.320   4.456  17.965  0.00  0.00    +0.000 A 
ATOM     10  C   UNL     1       7.263   4.926  17.044  0.00  0.00    +0.000 A 
ATOM     11  C   UNL     1       6.947   4.848  15.707  0.00  0.00    +0.000 A 
ATOM     12  C   UNL     1       5.735   4.364  15.278  0.00  0.00    +0.000 A 
ATOM     13  C   UNL     1       4.779   3.914  16.162  0.00  0.00    +0.000 A 
ATOM     14  O   UNL     1       5.630   4.356  13.922  0.00  0.00    +0.000 OA
ATOM     15  C   UNL     1       6.961   4.768  13.550  0.00  0.00    +0.000 C 
ATOM     16  O   UNL     1       7.760   5.195  14.674  0.00  0.00    +0.000 OA
ENDBRANCH   7   8
BRANCH   1  17
ATOM     17  C   UNL     1       2.042   6.068  20.255  0.00  0.00    +0.000 C 
BRANCH  17  22
ATOM     18  C   UNL     1       1.113   9.766  19.853  0.00  0.00    +0.000 A 
ATOM     19  C   UNL     1       1.497   9.994  18.527  0.00  0.00    +0.000 A 
ATOM     20  C   UNL     1       2.036   8.954  17.770  0.00  0.00    +0.000 A 
ATOM     21  C   UNL     1       2.215   7.694  18.345  0.00  0.00    +0.000 A 
ATOM     22  C   UNL     1       1.867   7.456  19.684  0.00  0.00    +0.000 A 
ATOM     23  C   UNL     1       1.269   8.493  20.419  0.00  0.00    +0.000 A 
BRANCH  18  25
ATOM     24  O   UNL     1       1.157  11.651  21.305  0.00  0.00    +0.000 OA
ATOM     25  C   UNL     1       0.507  10.893  20.600  0.00  0.00    +0.000 C 
BRANCH  25  26
ATOM     26  O   UNL     1      -0.839  10.970  20.489  0.00  0.00    +0.000 OA
ATOM     27  H   UNL     1      -1.190  10.907  19.581  0.00  0.00    +0.000 HD
ENDBRANCH  25  26
ENDBRANCH  18  25
ENDBRANCH  17  22
ENDBRANCH   1  17
TORSDOF 5
ENDMDL
MODEL 2
REMARK VINA RESULT:      -8.5      3.109      4.869
REMARK  Name = 
REMARK  5 active torsions:
REMARK  status: ('A' for Active; 'I' for Inactive)
REMARK    1  A    between atoms: C_2  and  O_3
REMARK    2  A    between atoms: C_2  and  C_4
REMARK    3  A    between atoms: C_8  and  C_9
REMARK    4  A    between atoms: C_9  and  C_10
REMARK    5  A    between atoms: C_16  and  C_17
REMARK                            x       y       z     vdW  Elec       q    Type
REMARK                         _______ _______ _______ _____ _____    ______ ____
ROOT
ATOM      1  C   UNL     1       4.283   6.524  17.712  0.00  0.00    +0.000 C 
ATOM      2  O   UNL     1       4.170   7.053  16.602  0.00  0.00    +0.000 OA
ATOM      3  N   UNL     1       5.454   5.904  18.098  0.00  0.00    +0.000 N 
ATOM      4  C   UNL     1       5.753   5.233  19.351  0.00  0.00    +0.000 C 
ATOM      5  C   UNL     1       7.201   5.607  19.610  0.00  0.00    +0.000 C 
ATOM      6  C   UNL     1       7.825   5.642  18.216  0.00  0.00    +0.000 C 
ATOM      7  C   UNL     1       6.665   6.030  17.280  0.00  0.00    +0.000 C 
ENDROOT
BRANCH   7   8
ATOM      8  C   UNL     1       6.591   5.192  16.015  0.00  0.00    +0.000 A 
ATOM      9  C   UNL     1       5.694   4.102  15.891  0.00  0.00    +0.000 A 
ATOM     10  C   UNL     1       5.555   3.411  14.682  0.00  0.00    +0.000 A 
ATOM     11  C   UNL     1       6.310   3.836  13.611  0.00  0.00    +0.000 A 
ATOM     12  C   UNL     1       7.201   4.876  13.723  0.00  0.00    +0.000 A 
ATOM     13  C   UNL     1       7.375   5.560  14.905  0.00  0.00    +0.000 A 
ATOM     14  O   UNL     1       7.830   5.147  12.548  0.00  0.00    +0.000 OA
ATOM     15  C   UNL     1       7.138   4.245  11.661  0.00  0.00    +0.000 C 
ATOM     16  O   UNL     1       6.259   3.331  12.350  0.00  0.00    +0.000 OA
ENDBRANCH   7   8
BRANCH   1  17
ATOM     17  C   UNL     1       3.112   6.585  18.681  0.00  0.00    +0.000 C 
BRANCH  17  22
ATOM     18  C   UNL     1       1.854   3.388  20.384  0.00  0.00    +0.000 A 
ATOM     19  C   UNL     1       1.150   2.787  19.334  0.00  0.00    +0.000 A 
ATOM     20  C   UNL     1       1.100   3.407  18.086  0.00  0.00    +0.000 A 
ATOM     21  C   UNL     1       1.729   4.639  17.893  0.00  0.00    +0.000 A 
ATOM     22  C   UNL     1       2.411   5.272  18.944  0.00  0.00    +0.000 A 
ATOM     23  C   UNL     1       2.508   4.611  20.179  0.00  0.00    +0.000 A 
BRANCH  18  25
ATOM     24  O   UNL     1       0.949   2.554  22.420  0.00  0.00    +0.000 OA
ATOM     25  C   UNL     1       1.912   2.668  21.678  0.00  0.00    +0.000 C 
BRANCH  25  26
ATOM     26  O   UNL     1       3.142   2.204  21.997  0.00  0.00    +0.000 OA
ATOM     27  H   UNL     1       3.216   1.237  22.089  0.00  0.00    +0.000 HD
ENDBRANCH  25  26
ENDBRANCH  18  25
ENDBRANCH  17  22
ENDBRANCH   1  17
TORSDOF 5
ENDMDL
MODEL 3
REMARK VINA RESULT:      -8.0      3.008      4.918
REMARK  Name = 
REMARK  5 active torsions:
REMARK  status: ('A' for Active; 'I' for Inactive)
REMARK    1  A    between atoms: C_2  and  O_3
REMARK    2  A    between atoms: C_2  and  C_4
REMARK    3  A    between atoms: C_8  and  C_9
REMARK    4  A    between atoms: C_9  and  C_10
REMARK    5  A    between atoms: C_16  and  C_17
REMARK                            x       y       z     vdW  Elec       q    Type
REMARK                         _______ _______ _______ _____ _____    ______ ____
ROOT
ATOM      1  C   UNL     1       4.436   6.884  17.414  0.00  0.00    +0.000 C 
ATOM      2  O   UNL     1       4.488   7.371  16.279  0.00  0.00    +0.000 OA
ATOM      3  N   UNL     1       5.457   6.097  17.907  0.00  0.00    +0.000 N 
ATOM      4  C   UNL     1       5.554   5.448  19.202  0.00  0.00    +0.000 C 
ATOM      5  C   UNL     1       7.025   5.587  19.553  0.00  0.00    +0.000 C 
ATOM      6  C   UNL     1       7.736   5.451  18.208  0.00  0.00    +0.000 C 
ATOM      7  C   UNL     1       6.723   5.981  17.175  0.00  0.00    +0.000 C 
ENDROOT
BRANCH   7   8
ATOM      8  C   UNL     1       6.592   5.106  15.939  0.00  0.00    +0.000 A 
ATOM      9  C   UNL     1       5.665   4.037  15.875  0.00  0.00    +0.000 A 
ATOM     10  C   UNL     1       5.474   3.314  14.692  0.00  0.00    +0.000 A 
ATOM     11  C   UNL     1       6.208   3.686  13.589  0.00  0.00    +0.000 A 
ATOM     12  C   UNL     1       7.128   4.704  13.643  0.00  0.00    +0.000 A 
ATOM     13  C   UNL     1       7.353   5.420  14.798  0.00  0.00    +0.000 A 
ATOM     14  O   UNL     1       7.731   4.922  12.443  0.00  0.00    +0.000 OA
ATOM     15  C   UNL     1       6.991   4.012  11.604  0.00  0.00    +0.000 C 
ATOM     16  O   UNL     1       6.109   3.143  12.346  0.00  0.00    +0.000 OA
ENDBRANCH   7   8
BRANCH   1  17
ATOM     17  C   UNL     1       3.231   7.186  18.292  0.00  0.00    +0.000 C 
BRANCH  17  22
ATOM     18  C   UNL     1       1.779   3.689  18.895  0.00  0.00    +0.000 A 
ATOM     19  C   UNL     1       1.286   3.827  20.197  0.00  0.00    +0.000 A 
ATOM     20  C   UNL     1       1.411   5.046  20.862  0.00  0.00    +0.000 A 
ATOM     21  C   UNL     1       2.051   6.119  20.238  0.00  0.00    +0.000 A 
ATOM     22  C   UNL     1       2.581   5.988  18.945  0.00  0.00    +0.000 A 
ATOM     23  C   UNL     1       2.397   4.776  18.260  0.00  0.00    +0.000 A 
BRANCH  18  25
ATOM     24  O   UNL     1       2.441   1.864  17.519  0.00  0.00    +0.000 OA
ATOM     25  C   UNL     1       1.584   2.386  18.216  0.00  0.00    +0.000 C 
BRANCH  25  26
ATOM     26  O   UNL     1       0.350   1.857  18.379  0.00  0.00    +0.000 OA
ATOM     27  H   UNL     1      -0.388   2.403  18.051  0.00  0.00    +0.000 HD
ENDBRANCH  25  26
ENDBRANCH  18  25
ENDBRANCH  17  22
ENDBRANCH   1  17
TORSDOF 5
ENDMDL
MODEL 4
REMARK VINA RESULT:      -7.9      1.857      7.996
REMARK  Name = 
REMARK  5 active torsions:
REMARK  status: ('A' for Active; 'I' for Inactive)
REMARK    1  A    between atoms: C_2  and  O_3
REMARK    2  A    between atoms: C_2  and  C_4
REMARK    3  A    between atoms: C_8  and  C_9
REMARK    4  A    between atoms: C_9  and  C_10
REMARK    5  A    between atoms: C_16  and  C_17
REMARK                            x       y       z     vdW  Elec       q    Type
REMARK                         _______ _______ _______ _____ _____    ______ ____
ROOT
ATOM      1  C   UNL     1       4.868   5.520  16.573  0.00  0.00    +0.000 C 
ATOM      2  O   UNL     1       4.348   6.429  15.917  0.00  0.00    +0.000 OA
ATOM      3  N   UNL     1       4.175   4.862  17.568  0.00  0.00    +0.000 N 
ATOM      4  C   UNL     1       4.631   3.788  18.432  0.00  0.00    +0.000 C 
ATOM      5  C   UNL     1       3.406   2.901  18.563  0.00  0.00    +0.000 C 
ATOM      6  C   UNL     1       2.239   3.887  18.572  0.00  0.00    +0.000 C 
ATOM      7  C   UNL     1       2.735   5.085  17.739  0.00  0.00    +0.000 C 
ENDROOT
BRANCH   7   8
ATOM      8  C   UNL     1       2.434   6.435  18.368  0.00  0.00    +0.000 A 
ATOM      9  C   UNL     1       2.270   7.604  17.585  0.00  0.00    +0.000 A 
ATOM     10  C   UNL     1       1.880   8.817  18.166  0.00  0.00    +0.000 A 
ATOM     11  C   UNL     1       1.648   8.831  19.522  0.00  0.00    +0.000 A 
ATOM     12  C   UNL     1       1.826   7.712  20.298  0.00  0.00    +0.000 A 
ATOM     13  C   UNL     1       2.230   6.510  19.758  0.00  0.00    +0.000 A 
ATOM     14  O   UNL     1       1.527   7.934  21.606  0.00  0.00    +0.000 OA
ATOM     15  C   UNL     1       1.018   9.282  21.537  0.00  0.00    +0.000 C 
ATOM     16  O   UNL     1       1.203   9.895  20.243  0.00  0.00    +0.000 OA
ENDBRANCH   7   8
BRANCH   1  17
ATOM     17  C   UNL     1       6.296   5.104  16.254  0.00  0.00    +0.000 C 
BRANCH  17  22
ATOM     18  C   UNL     1       6.160   3.677  12.698  0.00  0.00    +0.000 A 
ATOM     19  C   UNL     1       7.247   4.330  12.108  0.00  0.00    +0.000 A 
ATOM     20  C   UNL     1       8.022   5.211  12.861  0.00  0.00    +0.000 A 
ATOM     21  C   UNL     1       7.697   5.459  14.196  0.00  0.00    +0.000 A 
ATOM     22  C   UNL     1       6.590   4.838  14.795  0.00  0.00    +0.000 A 
ATOM     23  C   UNL     1       5.852   3.907  14.047  0.00  0.00    +0.000 A 
BRANCH  18  25
ATOM     24  O   UNL     1       4.306   2.983  11.378  0.00  0.00    +0.000 OA
ATOM     25  C   UNL     1       5.395   2.718  11.866  0.00  0.00    +0.000 C 
BRANCH  25  26
ATOM     26  O   UNL     1       5.974   1.502  11.749  0.00  0.00    +0.000 OA
ATOM     27  H   UNL     1       5.618   0.809  12.335  0.00  0.00    +0.000 HD
ENDBRANCH  25  26
ENDBRANCH  18  25
ENDBRANCH  17  22
ENDBRANCH   1  17
TORSDOF 5
ENDMDL
MODEL 5
REMARK VINA RESULT:      -7.7      1.808      2.491
REMARK  Name = 
REMARK  5 active torsions:
REMARK  status: ('A' for Active; 'I' for Inactive)
REMARK    1  A    between atoms: C_2  and  O_3
REMARK    2  A    between atoms: C_2  and  C_4
REMARK    3  A    between atoms: C_8  and  C_9
REMARK    4  A    between atoms: C_9  and  C_10
REMARK    5  A    between atoms: C_16  and  C_17
REMARK                            x       y       z     vdW  Elec       q    Type
REMARK                         _______ _______ _______ _____ _____    ______ ____
ROOT
ATOM      1  C   UNL     1       2.636   7.854  18.024  0.00  0.00    +0.000 C 
ATOM      2  O   UNL     1       3.638   8.573  17.938  0.00  0.00    +0.000 OA
ATOM      3  N   UNL     1       2.734   6.522  18.372  0.00  0.00    +0.000 N 
ATOM      4  C   UNL     1       1.671   5.543  18.511  0.00  0.00    +0.000 C 
ATOM      5  C   UNL     1       2.116   4.711  19.701  0.00  0.00    +0.000 C 
ATOM      6  C   UNL     1       3.636   4.658  19.561  0.00  0.00    +0.000 C 
ATOM      7  C   UNL     1       4.008   5.971  18.845  0.00  0.00    +0.000 C 
ENDROOT
BRANCH   7   8
ATOM      8  C   UNL     1       5.009   5.790  17.716  0.00  0.00    +0.000 A 
ATOM      9  C   UNL     1       6.373   6.143  17.863  0.00  0.00    +0.000 A 
ATOM     10  C   UNL     1       7.306   5.866  16.857  0.00  0.00    +0.000 A 
ATOM     11  C   UNL     1       6.856   5.225  15.725  0.00  0.00    +0.000 A 
ATOM     12  C   UNL     1       5.532   4.898  15.558  0.00  0.00    +0.000 A 
ATOM     13  C   UNL     1       4.588   5.178  16.521  0.00  0.00    +0.000 A 
ATOM     14  O   UNL     1       5.301   4.256  14.382  0.00  0.00    +0.000 OA
ATOM     15  C   UNL     1       6.649   4.104  13.892  0.00  0.00    +0.000 C 
ATOM     16  O   UNL     1       7.625   4.819  14.680  0.00  0.00    +0.000 OA
ENDBRANCH   7   8
BRANCH   1  17
ATOM     17  C   UNL     1       1.267   8.464  17.768  0.00  0.00    +0.000 C 
BRANCH  17  22
ATOM     18  C   UNL     1       0.483   9.849  21.256  0.00  0.00    +0.000 A 
ATOM     19  C   UNL     1      -0.456  10.838  20.945  0.00  0.00    +0.000 A 
ATOM     20  C   UNL     1      -0.840  11.040  19.619  0.00  0.00    +0.000 A 
ATOM     21  C   UNL     1      -0.267  10.273  18.603  0.00  0.00    +0.000 A 
ATOM     22  C   UNL     1       0.701   9.299  18.894  0.00  0.00    +0.000 A 
ATOM     23  C   UNL     1       1.036   9.062  20.236  0.00  0.00    +0.000 A 
BRANCH  18  25
ATOM     24  O   UNL     1       0.052   9.900  23.596  0.00  0.00    +0.000 OA
ATOM     25  C   UNL     1       0.825   9.646  22.684  0.00  0.00    +0.000 C 
BRANCH  25  26
ATOM     26  O   UNL     1       2.091   9.220  22.894  0.00  0.00    +0.000 OA
ATOM     27  H   UNL     1       2.377   8.465  22.347  0.00  0.00    +0.000 HD
ENDBRANCH  25  26
ENDBRANCH  18  25
ENDBRANCH  17  22
ENDBRANCH   1  17
TORSDOF 5
ENDMDL
MODEL 6
REMARK VINA RESULT:      -7.7      2.613      4.620
REMARK  Name = 
REMARK  5 active torsions:
REMARK  status: ('A' for Active; 'I' for Inactive)
REMARK    1  A    between atoms: C_2  and  O_3
REMARK    2  A    between atoms: C_2  and  C_4
REMARK    3  A    between atoms: C_8  and  C_9
REMARK    4  A    between atoms: C_9  and  C_10
REMARK    5  A    between atoms: C_16  and  C_17
REMARK                            x       y       z     vdW  Elec       q    Type
REMARK                         _______ _______ _______ _____ _____    ______ ____
ROOT
ATOM      1  C   UNL     1       2.645   6.989  17.822  0.00  0.00    +0.000 C 
ATOM      2  O   UNL     1       1.585   6.387  18.025  0.00  0.00    +0.000 OA
ATOM      3  N   UNL     1       3.802   6.318  17.486  0.00  0.00    +0.000 N 
ATOM      4  C   UNL     1       5.122   6.865  17.223  0.00  0.00    +0.000 C 
ATOM      5  C   UNL     1       5.640   5.995  16.091  0.00  0.00    +0.000 C 
ATOM      6  C   UNL     1       5.076   4.611  16.405  0.00  0.00    +0.000 C 
ATOM      7  C   UNL     1       3.763   4.888  17.162  0.00  0.00    +0.000 C 
ENDROOT
BRANCH   7   8
ATOM      8  C   UNL     1       3.575   4.025  18.399  0.00  0.00    +0.000 A 
ATOM      9  C   UNL     1       4.675   3.465  19.094  0.00  0.00    +0.000 A 
ATOM     10  C   UNL     1       4.496   2.770  20.295  0.00  0.00    +0.000 A 
ATOM     11  C   UNL     1       3.214   2.660  20.787  0.00  0.00    +0.000 A 
ATOM     12  C   UNL     1       2.135   3.177  20.112  0.00  0.00    +0.000 A 
ATOM     13  C   UNL     1       2.279   3.848  18.917  0.00  0.00    +0.000 A 
ATOM     14  O   UNL     1       0.965   2.976  20.774  0.00  0.00    +0.000 OA
ATOM     15  C   UNL     1       1.450   2.391  22.000  0.00  0.00    +0.000 C 
ATOM     16  O   UNL     1       2.859   2.080  21.964  0.00  0.00    +0.000 OA
ENDBRANCH   7   8
BRANCH   1  17
ATOM     17  C   UNL     1       2.660   8.507  17.920  0.00  0.00    +0.000 C 
BRANCH  17  22
ATOM     18  C   UNL     1       0.359   9.485  20.828  0.00  0.00    +0.000 A 
ATOM     19  C   UNL     1      -0.619  10.226  20.156  0.00  0.00    +0.000 A 
ATOM     20  C   UNL     1      -0.537  10.393  18.773  0.00  0.00    +0.000 A 
ATOM     21  C   UNL     1       0.533   9.841  18.066  0.00  0.00    +0.000 A 
ATOM     22  C   UNL     1       1.540   9.122  18.729  0.00  0.00    +0.000 A 
ATOM     23  C   UNL     1       1.418   8.908  20.111  0.00  0.00    +0.000 A 
BRANCH  18  25
ATOM     24  O   UNL     1       0.990   9.762  23.105  0.00  0.00    +0.000 OA
ATOM     25  C   UNL     1       0.204   9.302  22.291  0.00  0.00    +0.000 C 
BRANCH  25  26
ATOM     26  O   UNL     1      -0.845   8.525  22.642  0.00  0.00    +0.000 OA
ATOM     27  H   UNL     1      -1.673   8.690  22.154  0.00  0.00    +0.000 HD
ENDBRANCH  25  26
ENDBRANCH  18  25
ENDBRANCH  17  22
ENDBRANCH   1  17
TORSDOF 5
ENDMDL
MODEL 7
REMARK VINA RESULT:      -7.7      1.105      1.298
REMARK  Name = 
REMARK  5 active torsions:
REMARK  status: ('A' for Active; 'I' for Inactive)
REMARK    1  A    between atoms: C_2  and  O_3
REMARK    2  A    between atoms: C_2  and  C_4
REMARK    3  A    between atoms: C_8  and  C_9
REMARK    4  A    between atoms: C_9  and  C_10
REMARK    5  A    between atoms: C_16  and  C_17
REMARK                            x       y       z     vdW  Elec       q    Type
REMARK                         _______ _______ _______ _____ _____    ______ ____
ROOT
ATOM      1  C   UNL     1       2.911   5.243  19.894  0.00  0.00    +0.000 C 
ATOM      2  O   UNL     1       4.105   5.540  19.999  0.00  0.00    +0.000 OA
ATOM      3  N   UNL     1       2.485   4.267  19.016  0.00  0.00    +0.000 N 
ATOM      4  C   UNL     1       1.132   3.803  18.764  0.00  0.00    +0.000 C 
ATOM      5  C   UNL     1       1.309   2.309  18.557  0.00  0.00    +0.000 C 
ATOM      6  C   UNL     1       2.653   2.196  17.839  0.00  0.00    +0.000 C 
ATOM      7  C   UNL     1       3.460   3.414  18.327  0.00  0.00    +0.000 C 
ENDROOT
BRANCH   7   8
ATOM      8  C   UNL     1       4.185   4.154  17.215  0.00  0.00    +0.000 A 
ATOM      9  C   UNL     1       4.226   5.570  17.163  0.00  0.00    +0.000 A 
ATOM     10  C   UNL     1       4.992   6.237  16.201  0.00  0.00    +0.000 A 
ATOM     11  C   UNL     1       5.717   5.472  15.315  0.00  0.00    +0.000 A 
ATOM     12  C   UNL     1       5.668   4.099  15.339  0.00  0.00    +0.000 A 
ATOM     13  C   UNL     1       4.906   3.415  16.260  0.00  0.00    +0.000 A 
ATOM     14  O   UNL     1       6.468   3.535  14.395  0.00  0.00    +0.000 OA
ATOM     15  C   UNL     1       7.121   4.708  13.865  0.00  0.00    +0.000 C 
ATOM     16  O   UNL     1       6.563   5.943  14.361  0.00  0.00    +0.000 OA
ENDBRANCH   7   8
BRANCH   1  17
ATOM     17  C   UNL     1       1.894   5.952  20.776  0.00  0.00    +0.000 C 
BRANCH  17  22
ATOM     18  C   UNL     1       0.612   9.565  20.873  0.00  0.00    +0.000 A 
ATOM     19  C   UNL     1       0.983  10.013  19.601  0.00  0.00    +0.000 A 
ATOM     20  C   UNL     1       1.627   9.146  18.719  0.00  0.00    +0.000 A 
ATOM     21  C   UNL     1       1.925   7.841  19.116  0.00  0.00    +0.000 A 
ATOM     22  C   UNL     1       1.590   7.385  20.400  0.00  0.00    +0.000 A 
ATOM     23  C   UNL     1       0.887   8.245  21.259  0.00  0.00    +0.000 A 
BRANCH  18  25
ATOM     24  O   UNL     1      -0.822  11.408  21.330  0.00  0.00    +0.000 OA
ATOM     25  C   UNL     1      -0.109  10.512  21.757  0.00  0.00    +0.000 C 
BRANCH  25  26
ATOM     26  O   UNL     1       0.145  10.341  23.074  0.00  0.00    +0.000 OA
ATOM     27  H   UNL     1      -0.324  10.949  23.675  0.00  0.00    +0.000 HD
ENDBRANCH  25  26
ENDBRANCH  18  25
ENDBRANCH  17  22
ENDBRANCH   1  17
TORSDOF 5
ENDMDL
MODEL 8
REMARK VINA RESULT:      -7.5      3.835      8.248
REMARK  Name = 
REMARK  5 active torsions:
REMARK  status: ('A' for Active; 'I' for Inactive)
REMARK    1  A    between atoms: C_2  and  O_3
REMARK    2  A    between atoms: C_2  and  C_4
REMARK    3  A    between atoms: C_8  and  C_9
REMARK    4  A    between atoms: C_9  and  C_10
REMARK    5  A    between atoms: C_16  and  C_17
REMARK                            x       y       z     vdW  Elec       q    Type
REMARK                         _______ _______ _______ _____ _____    ______ ____
ROOT
ATOM      1  C   UNL     1       1.775   8.399  18.958  0.00  0.00    +0.000 C 
ATOM      2  O   UNL     1       1.444   8.778  17.829  0.00  0.00    +0.000 OA
ATOM      3  N   UNL     1       1.170   8.900  20.092  0.00  0.00    +0.000 N 
ATOM      4  C   UNL     1       1.438   8.573  21.482  0.00  0.00    +0.000 C 
ATOM      5  C   UNL     1       0.060   8.590  22.117  0.00  0.00    +0.000 C 
ATOM      6  C   UNL     1      -0.668   9.714  21.382  0.00  0.00    +0.000 C 
ATOM      7  C   UNL     1      -0.022   9.747  19.983  0.00  0.00    +0.000 C 
ENDROOT
BRANCH   7   8
ATOM      8  C   UNL     1       0.312  11.147  19.496  0.00  0.00    +0.000 A 
ATOM      9  C   UNL     1      -0.549  11.861  18.625  0.00  0.00    +0.000 A 
ATOM     10  C   UNL     1      -0.286  13.191  18.276  0.00  0.00    +0.000 A 
ATOM     11  C   UNL     1       0.830  13.787  18.819  0.00  0.00    +0.000 A 
ATOM     12  C   UNL     1       1.686  13.100  19.645  0.00  0.00    +0.000 A 
ATOM     13  C   UNL     1       1.465  11.785  19.989  0.00  0.00    +0.000 A 
ATOM     14  O   UNL     1       2.714  13.874  20.086  0.00  0.00    +0.000 OA
ATOM     15  C   UNL     1       2.331  15.156  19.546  0.00  0.00    +0.000 C 
ATOM     16  O   UNL     1       1.205  15.082  18.645  0.00  0.00    +0.000 OA
ENDBRANCH   7   8
BRANCH   1  17
ATOM     17  C   UNL     1       2.855   7.336  19.092  0.00  0.00    +0.000 C 
BRANCH  17  22
ATOM     18  C   UNL     1       2.015   3.778  20.248  0.00  0.00    +0.000 A 
ATOM     19  C   UNL     1       1.515   3.225  19.064  0.00  0.00    +0.000 A 
ATOM     20  C   UNL     1       1.466   3.996  17.902  0.00  0.00    +0.000 A 
ATOM     21  C   UNL     1       1.893   5.325  17.929  0.00  0.00    +0.000 A 
ATOM     22  C   UNL     1       2.366   5.906  19.116  0.00  0.00    +0.000 A 
ATOM     23  C   UNL     1       2.468   5.105  20.265  0.00  0.00    +0.000 A 
BRANCH  18  25
ATOM     24  O   UNL     1       1.138   2.732  22.197  0.00  0.00    +0.000 OA
ATOM     25  C   UNL     1       2.085   2.904  21.443  0.00  0.00    +0.000 C 
BRANCH  25  26
ATOM     26  O   UNL     1       3.306   2.368  21.666  0.00  0.00    +0.000 OA
ATOM     27  H   UNL     1       3.870   2.265  20.877  0.00  0.00    +0.000 HD
ENDBRANCH  25  26
ENDBRANCH  18  25
ENDBRANCH  17  22
ENDBRANCH   1  17
TORSDOF 5
ENDMDL
MODEL 9
REMARK VINA RESULT:      -7.5      1.681      2.600
REMARK  Name = 
REMARK  5 active torsions:
REMARK  status: ('A' for Active; 'I' for Inactive)
REMARK    1  A    between atoms: C_2  and  O_3
REMARK    2  A    between atoms: C_2  and  C_4
REMARK    3  A    between atoms: C_8  and  C_9
REMARK    4  A    between atoms: C_9  and  C_10
REMARK    5  A    between atoms: C_16  and  C_17
REMARK                            x       y       z     vdW  Elec       q    Type
REMARK                         _______ _______ _______ _____ _____    ______ ____
ROOT
ATOM      1  C   UNL     1       2.678   7.590  18.091  0.00  0.00    +0.000 C 
ATOM      2  O   UNL     1       3.715   8.073  17.622  0.00  0.00    +0.000 OA
ATOM      3  N   UNL     1       2.681   6.376  18.746  0.00  0.00    +0.000 N 
ATOM      4  C   UNL     1       1.564   5.667  19.345  0.00  0.00    +0.000 C 
ATOM      5  C   UNL     1       2.168   5.057  20.597  0.00  0.00    +0.000 C 
ATOM      6  C   UNL     1       3.591   4.693  20.176  0.00  0.00    +0.000 C 
ATOM      7  C   UNL     1       3.949   5.719  19.083  0.00  0.00    +0.000 C 
ENDROOT
BRANCH   7   8
ATOM      8  C   UNL     1       4.619   5.106  17.864  0.00  0.00    +0.000 A 
ATOM      9  C   UNL     1       4.053   4.006  17.174  0.00  0.00    +0.000 A 
ATOM     10  C   UNL     1       4.619   3.527  15.987  0.00  0.00    +0.000 A 
ATOM     11  C   UNL     1       5.737   4.169  15.506  0.00  0.00    +0.000 A 
ATOM     12  C   UNL     1       6.311   5.221  16.177  0.00  0.00    +0.000 A 
ATOM     13  C   UNL     1       5.789   5.702  17.358  0.00  0.00    +0.000 A 
ATOM     14  O   UNL     1       7.394   5.724  15.525  0.00  0.00    +0.000 OA
ATOM     15  C   UNL     1       7.353   4.951  14.308  0.00  0.00    +0.000 C 
ATOM     16  O   UNL     1       6.380   3.885  14.342  0.00  0.00    +0.000 OA
ENDBRANCH   7   8
BRANCH   1  17
ATOM     17  C   UNL     1       1.379   8.370  17.962  0.00  0.00    +0.000 C 
BRANCH  17  22
ATOM     18  C   UNL     1       0.303  10.090  21.215  0.00  0.00    +0.000 A 
ATOM     19  C   UNL     1       0.628  11.421  20.932  0.00  0.00    +0.000 A 
ATOM     20  C   UNL     1       1.176  11.755  19.694  0.00  0.00    +0.000 A 
ATOM     21  C   UNL     1       1.423  10.757  18.749  0.00  0.00    +0.000 A 
ATOM     22  C   UNL     1       1.133   9.413  19.028  0.00  0.00    +0.000 A 
ATOM     23  C   UNL     1       0.526   9.094  20.254  0.00  0.00    +0.000 A 
BRANCH  18  25
ATOM     24  O   UNL     1      -0.362  10.608  23.441  0.00  0.00    +0.000 OA
ATOM     25  C   UNL     1      -0.316   9.795  22.530  0.00  0.00    +0.000 C 
BRANCH  25  26
ATOM     26  O   UNL     1      -0.764   8.525  22.657  0.00  0.00    +0.000 OA
ATOM     27  H   UNL     1      -1.088   8.110  21.836  0.00  0.00    +0.000 HD
ENDBRANCH  25  26
ENDBRANCH  18  25
ENDBRANCH  17  22
ENDBRANCH   1  17
TORSDOF 5
ENDMDL
