MODEL 1
REMARK VINA RESULT:      -7.1      0.000      0.000
REMARK  Name = 
REMARK  3 active torsions:
REMARK  status: ('A' for Active; 'I' for Inactive)
REMARK    1  A    between atoms: C_2  and  C_3
REMARK    2  A    between atoms: C_5  and  C_6
REMARK    3  A    between atoms: C_23  and  C_24
REMARK                            x       y       z     vdW  Elec       q    Type
REMARK                         _______ _______ _______ _____ _____    ______ ____
ROOT
ATOM      1  C   UNL     1      -0.831  11.632  20.006  0.00  0.00    +0.000 A 
ATOM      2  C   UNL     1      -1.539  12.406  20.922  0.00  0.00    +0.000 A 
ATOM      3  C   UNL     1      -1.308  12.284  22.277  0.00  0.00    +0.000 A 
ATOM      4  N   UNL     1      -0.486  11.325  22.751  0.00  0.00    +0.000 NA
ATOM      5  C   UNL     1       0.079  10.456  21.892  0.00  0.00    +0.000 A 
ATOM      6  C   UNL     1       0.775   9.382  22.437  0.00  0.00    +0.000 A 
ATOM      7  C   UNL     1       1.366   8.401  21.640  0.00  0.00    +0.000 A 
ATOM      8  C   UNL     1       1.302   8.512  20.260  0.00  0.00    +0.000 A 
ATOM      9  C   UNL     1       0.630   9.594  19.688  0.00  0.00    +0.000 A 
ATOM     10  C   UNL     1      -0.030  10.566  20.487  0.00  0.00    +0.000 A 
ENDROOT
BRANCH   1  12
ATOM     11  O   UNL     1      -0.379  12.714  17.978  0.00  0.00    +0.000 OA
ATOM     12  C   UNL     1      -1.096  11.899  18.555  0.00  0.00    +0.000 C 
ATOM     13  N   UNL     1      -2.084  11.181  17.865  0.00  0.00    +0.000 N 
ATOM     14  C   UNL     1      -2.098  11.235  16.402  0.00  0.00    +0.000 C 
ATOM     15  C   UNL     1      -3.510  11.442  15.845  0.00  0.00    +0.000 C 
ATOM     16  O   UNL     1      -4.490  10.567  16.419  0.00  0.00    +0.000 OA
ATOM     17  C   UNL     1      -4.523  10.633  17.860  0.00  0.00    +0.000 C 
ATOM     18  C   UNL     1      -3.125  10.291  18.410  0.00  0.00    +0.000 C 
BRANCH  17  19
ATOM     19  C   UNL     1      -5.138  11.921  18.401  0.00  0.00    +0.000 A 
ATOM     20  C   UNL     1      -6.115  12.590  17.649  0.00  0.00    +0.000 A 
ATOM     21  C   UNL     1      -6.716  13.757  18.131  0.00  0.00    +0.000 A 
ATOM     22  C   UNL     1      -6.366  14.259  19.382  0.00  0.00    +0.000 A 
ATOM     23  C   UNL     1      -5.424  13.594  20.156  0.00  0.00    +0.000 A 
ATOM     24  C   UNL     1      -4.822  12.432  19.673  0.00  0.00    +0.000 A 
ENDBRANCH  17  19
ENDBRANCH   1  12
BRANCH   3  25
ATOM     25  C   UNL     1      -1.937  13.193  23.258  0.00  0.00    +0.000 A 
ATOM     26  C   UNL     1      -1.241  14.283  23.810  0.00  0.00    +0.000 A 
ATOM     27  C   UNL     1      -1.861  15.099  24.742  0.00  0.00    +0.000 A 
ATOM     28  N   UNL     1      -3.120  14.914  25.170  0.00  0.00    +0.000 NA
ATOM     29  C   UNL     1      -3.790  13.870  24.637  0.00  0.00    +0.000 A 
ATOM     30  C   UNL     1      -3.250  12.997  23.701  0.00  0.00    +0.000 A 
ENDBRANCH   3  25
TORSDOF 3
ENDMDL
MODEL 2
REMARK VINA RESULT:      -7.0      1.000      1.552
REMARK  Name = 
REMARK  3 active torsions:
REMARK  status: ('A' for Active; 'I' for Inactive)
REMARK    1  A    between atoms: C_2  and  C_3
REMARK    2  A    between atoms: C_5  and  C_6
REMARK    3  A    between atoms: C_23  and  C_24
REMARK                            x       y       z     vdW  Elec       q    Type
REMARK                         _______ _______ _______ _____ _____    ______ ____
ROOT
ATOM      1  C   UNL     1      -1.472  12.053  20.246  0.00  0.00    +0.000 A 
ATOM      2  C   UNL     1      -2.258  12.944  20.972  0.00  0.00    +0.000 A 
ATOM      3  C   UNL     1      -2.221  12.956  22.352  0.00  0.00    +0.000 A 
ATOM      4  N   UNL     1      -1.521  12.022  23.029  0.00  0.00    +0.000 NA
ATOM      5  C   UNL     1      -0.889  11.048  22.348  0.00  0.00    +0.000 A 
ATOM      6  C   UNL     1      -0.329  10.011  23.088  0.00  0.00    +0.000 A 
ATOM      7  C   UNL     1       0.314   8.932  22.483  0.00  0.00    +0.000 A 
ATOM      8  C   UNL     1       0.444   8.900  21.104  0.00  0.00    +0.000 A 
ATOM      9  C   UNL     1      -0.087   9.941  20.339  0.00  0.00    +0.000 A 
ATOM     10  C   UNL     1      -0.799  11.015  20.938  0.00  0.00    +0.000 A 
ENDROOT
BRANCH   1  12
ATOM     11  O   UNL     1      -0.736  12.952  18.211  0.00  0.00    +0.000 OA
ATOM     12  C   UNL     1      -1.523  12.177  18.753  0.00  0.00    +0.000 C 
ATOM     13  N   UNL     1      -2.390  11.373  17.998  0.00  0.00    +0.000 N 
ATOM     14  C   UNL     1      -2.188  11.289  16.550  0.00  0.00    +0.000 C 
ATOM     15  C   UNL     1      -3.504  11.409  15.776  0.00  0.00    +0.000 C 
ATOM     16  O   UNL     1      -4.549  10.567  16.282  0.00  0.00    +0.000 OA
ATOM     17  C   UNL     1      -4.795  10.767  17.690  0.00  0.00    +0.000 C 
ATOM     18  C   UNL     1      -3.490  10.513  18.468  0.00  0.00    +0.000 C 
BRANCH  17  19
ATOM     19  C   UNL     1      -5.497  12.084  18.009  0.00  0.00    +0.000 A 
ATOM     20  C   UNL     1      -5.369  12.645  19.288  0.00  0.00    +0.000 A 
ATOM     21  C   UNL     1      -5.979  13.863  19.602  0.00  0.00    +0.000 A 
ATOM     22  C   UNL     1      -6.706  14.550  18.635  0.00  0.00    +0.000 A 
ATOM     23  C   UNL     1      -6.821  14.028  17.353  0.00  0.00    +0.000 A 
ATOM     24  C   UNL     1      -6.215  12.811  17.042  0.00  0.00    +0.000 A 
ENDBRANCH  17  19
ENDBRANCH   1  12
BRANCH   3  25
ATOM     25  C   UNL     1      -2.930  13.985  23.140  0.00  0.00    +0.000 A 
ATOM     26  C   UNL     1      -4.190  14.476  22.754  0.00  0.00    +0.000 A 
ATOM     27  C   UNL     1      -4.812  15.457  23.511  0.00  0.00    +0.000 A 
ATOM     28  N   UNL     1      -4.275  15.989  24.621  0.00  0.00    +0.000 NA
ATOM     29  C   UNL     1      -3.067  15.515  24.994  0.00  0.00    +0.000 A 
ATOM     30  C   UNL     1      -2.368  14.538  24.297  0.00  0.00    +0.000 A 
ENDBRANCH   3  25
TORSDOF 3
ENDMDL
MODEL 3
REMARK VINA RESULT:      -7.0      0.084      1.228
REMARK  Name = 
REMARK  3 active torsions:
REMARK  status: ('A' for Active; 'I' for Inactive)
REMARK    1  A    between atoms: C_2  and  C_3
REMARK    2  A    between atoms: C_5  and  C_6
REMARK    3  A    between atoms: C_23  and  C_24
REMARK                            x       y       z     vdW  Elec       q    Type
REMARK                         _______ _______ _______ _____ _____    ______ ____
ROOT
ATOM      1  C   UNL     1      -0.858  11.627  19.969  0.00  0.00    +0.000 A 
ATOM      2  C   UNL     1      -1.562  12.383  20.903  0.00  0.00    +0.000 A 
ATOM      3  C   UNL     1      -1.308  12.252  22.254  0.00  0.00    +0.000 A 
ATOM      4  N   UNL     1      -0.465  11.301  22.706  0.00  0.00    +0.000 NA
ATOM      5  C   UNL     1       0.099  10.447  21.830  0.00  0.00    +0.000 A 
ATOM      6  C   UNL     1       0.818   9.378  22.353  0.00  0.00    +0.000 A 
ATOM      7  C   UNL     1       1.410   8.413  21.539  0.00  0.00    +0.000 A 
ATOM      8  C   UNL     1       1.322   8.536  20.161  0.00  0.00    +0.000 A 
ATOM      9  C   UNL     1       0.626   9.613  19.610  0.00  0.00    +0.000 A 
ATOM     10  C   UNL     1      -0.034  10.569  20.428  0.00  0.00    +0.000 A 
ENDROOT
BRANCH   1  12
ATOM     11  O   UNL     1      -0.448  12.729  17.943  0.00  0.00    +0.000 OA
ATOM     12  C   UNL     1      -1.149  11.904  18.525  0.00  0.00    +0.000 C 
ATOM     13  N   UNL     1      -2.143  11.183  17.846  0.00  0.00    +0.000 N 
ATOM     14  C   UNL     1      -2.182  11.248  16.384  0.00  0.00    +0.000 C 
ATOM     15  C   UNL     1      -3.605  11.449  15.852  0.00  0.00    +0.000 C 
ATOM     16  O   UNL     1      -4.568  10.561  16.436  0.00  0.00    +0.000 OA
ATOM     17  C   UNL     1      -4.577  10.616  17.878  0.00  0.00    +0.000 C 
ATOM     18  C   UNL     1      -3.168  10.281  18.401  0.00  0.00    +0.000 C 
BRANCH  17  19
ATOM     19  C   UNL     1      -5.194  11.895  18.440  0.00  0.00    +0.000 A 
ATOM     20  C   UNL     1      -4.774  12.375  19.689  0.00  0.00    +0.000 A 
ATOM     21  C   UNL     1      -5.301  13.556  20.217  0.00  0.00    +0.000 A 
ATOM     22  C   UNL     1      -6.237  14.289  19.494  0.00  0.00    +0.000 A 
ATOM     23  C   UNL     1      -6.644  13.848  18.241  0.00  0.00    +0.000 A 
ATOM     24  C   UNL     1      -6.121  12.667  17.717  0.00  0.00    +0.000 A 
ENDBRANCH  17  19
ENDBRANCH   1  12
BRANCH   3  25
ATOM     25  C   UNL     1      -1.934  13.144  23.252  0.00  0.00    +0.000 A 
ATOM     26  C   UNL     1      -3.255  12.951  23.692  0.00  0.00    +0.000 A 
ATOM     27  C   UNL     1      -3.810  13.823  24.615  0.00  0.00    +0.000 A 
ATOM     28  N   UNL     1      -3.153  14.873  25.132  0.00  0.00    +0.000 NA
ATOM     29  C   UNL     1      -1.883  15.056  24.713  0.00  0.00    +0.000 A 
ATOM     30  C   UNL     1      -1.245  14.238  23.790  0.00  0.00    +0.000 A 
ENDBRANCH   3  25
TORSDOF 3
ENDMDL
MODEL 4
REMARK VINA RESULT:      -7.0      2.788      5.981
REMARK  Name = 
REMARK  3 active torsions:
REMARK  status: ('A' for Active; 'I' for Inactive)
REMARK    1  A    between atoms: C_2  and  C_3
REMARK    2  A    between atoms: C_5  and  C_6
REMARK    3  A    between atoms: C_23  and  C_24
REMARK                            x       y       z     vdW  Elec       q    Type
REMARK                         _______ _______ _______ _____ _____    ______ ____
ROOT
ATOM      1  C   UNL     1      -2.909  13.210  23.472  0.00  0.00    +0.000 A 
ATOM      2  C   UNL     1      -2.278  12.642  22.367  0.00  0.00    +0.000 A 
ATOM      3  C   UNL     1      -1.011  13.043  21.994  0.00  0.00    +0.000 A 
ATOM      4  N   UNL     1      -0.408  14.080  22.612  0.00  0.00    +0.000 NA
ATOM      5  C   UNL     1      -1.071  14.753  23.572  0.00  0.00    +0.000 A 
ATOM      6  C   UNL     1      -0.484  15.917  24.056  0.00  0.00    +0.000 A 
ATOM      7  C   UNL     1      -1.101  16.712  25.023  0.00  0.00    +0.000 A 
ATOM      8  C   UNL     1      -2.318  16.316  25.557  0.00  0.00    +0.000 A 
ATOM      9  C   UNL     1      -2.916  15.139  25.105  0.00  0.00    +0.000 A 
ATOM     10  C   UNL     1      -2.329  14.353  24.077  0.00  0.00    +0.000 A 
ENDROOT
BRANCH   1  12
ATOM     11  O   UNL     1      -4.276  11.675  24.596  0.00  0.00    +0.000 OA
ATOM     12  C   UNL     1      -4.248  12.646  23.843  0.00  0.00    +0.000 C 
ATOM     13  N   UNL     1      -5.429  13.262  23.402  0.00  0.00    +0.000 N 
ATOM     14  C   UNL     1      -6.695  12.886  24.035  0.00  0.00    +0.000 C 
ATOM     15  C   UNL     1      -7.809  12.661  23.008  0.00  0.00    +0.000 C 
ATOM     16  O   UNL     1      -7.916  13.709  22.035  0.00  0.00    +0.000 OA
ATOM     17  C   UNL     1      -6.672  13.966  21.351  0.00  0.00    +0.000 C 
ATOM     18  C   UNL     1      -5.593  14.322  22.391  0.00  0.00    +0.000 C 
BRANCH  17  19
ATOM     19  C   UNL     1      -6.283  12.878  20.355  0.00  0.00    +0.000 A 
ATOM     20  C   UNL     1      -7.273  12.035  19.828  0.00  0.00    +0.000 A 
ATOM     21  C   UNL     1      -6.951  11.046  18.894  0.00  0.00    +0.000 A 
ATOM     22  C   UNL     1      -5.638  10.902  18.453  0.00  0.00    +0.000 A 
ATOM     23  C   UNL     1      -4.648  11.747  18.939  0.00  0.00    +0.000 A 
ATOM     24  C   UNL     1      -4.969  12.730  19.873  0.00  0.00    +0.000 A 
ENDBRANCH  17  19
ENDBRANCH   1  12
BRANCH   3  25
ATOM     25  C   UNL     1      -0.263  12.357  20.920  0.00  0.00    +0.000 A 
ATOM     26  C   UNL     1       0.917  12.896  20.378  0.00  0.00    +0.000 A 
ATOM     27  C   UNL     1       1.576  12.230  19.358  0.00  0.00    +0.000 A 
ATOM     28  N   UNL     1       1.151  11.070  18.833  0.00  0.00    +0.000 NA
ATOM     29  C   UNL     1       0.020  10.550  19.356  0.00  0.00    +0.000 A 
ATOM     30  C   UNL     1      -0.710  11.147  20.375  0.00  0.00    +0.000 A 
ENDBRANCH   3  25
TORSDOF 3
ENDMDL
MODEL 5
REMARK VINA RESULT:      -6.9      2.574      5.537
REMARK  Name = 
REMARK  3 active torsions:
REMARK  status: ('A' for Active; 'I' for Inactive)
REMARK    1  A    between atoms: C_2  and  C_3
REMARK    2  A    between atoms: C_5  and  C_6
REMARK    3  A    between atoms: C_23  and  C_24
REMARK                            x       y       z     vdW  Elec       q    Type
REMARK                         _______ _______ _______ _____ _____    ______ ____
ROOT
ATOM      1  C   UNL     1      -2.228  14.695  21.831  0.00  0.00    +0.000 A 
ATOM      2  C   UNL     1      -3.328  13.890  21.547  0.00  0.00    +0.000 A 
ATOM      3  C   UNL     1      -4.296  13.653  22.501  0.00  0.00    +0.000 A 
ATOM      4  N   UNL     1      -4.135  14.091  23.768  0.00  0.00    +0.000 NA
ATOM      5  C   UNL     1      -2.997  14.726  24.107  0.00  0.00    +0.000 A 
ATOM      6  C   UNL     1      -2.798  15.002  25.455  0.00  0.00    +0.000 A 
ATOM      7  C   UNL     1      -1.638  15.621  25.922  0.00  0.00    +0.000 A 
ATOM      8  C   UNL     1      -0.666  16.019  25.018  0.00  0.00    +0.000 A 
ATOM      9  C   UNL     1      -0.853  15.776  23.656  0.00  0.00    +0.000 A 
ATOM     10  C   UNL     1      -2.000  15.090  23.174  0.00  0.00    +0.000 A 
ENDROOT
BRANCH   1  12
ATOM     11  O   UNL     1      -1.408  16.004  20.070  0.00  0.00    +0.000 OA
ATOM     12  C   UNL     1      -1.278  14.957  20.702  0.00  0.00    +0.000 C 
ATOM     13  N   UNL     1      -0.228  14.067  20.430  0.00  0.00    +0.000 N 
ATOM     14  C   UNL     1       0.853  14.507  19.546  0.00  0.00    +0.000 C 
ATOM     15  C   UNL     1       1.231  13.435  18.518  0.00  0.00    +0.000 C 
ATOM     16  O   UNL     1       1.417  12.132  19.088  0.00  0.00    +0.000 OA
ATOM     17  C   UNL     1       0.278  11.688  19.854  0.00  0.00    +0.000 C 
ATOM     18  C   UNL     1      -0.006  12.714  20.968  0.00  0.00    +0.000 C 
BRANCH  17  19
ATOM     19  C   UNL     1      -0.926  11.305  18.999  0.00  0.00    +0.000 A 
ATOM     20  C   UNL     1      -0.808  10.268  18.062  0.00  0.00    +0.000 A 
ATOM     21  C   UNL     1      -1.901   9.877  17.282  0.00  0.00    +0.000 A 
ATOM     22  C   UNL     1      -3.135  10.501  17.445  0.00  0.00    +0.000 A 
ATOM     23  C   UNL     1      -3.281  11.510  18.389  0.00  0.00    +0.000 A 
ATOM     24  C   UNL     1      -2.190  11.902  19.163  0.00  0.00    +0.000 A 
ENDBRANCH  17  19
ENDBRANCH   1  12
BRANCH   3  25
ATOM     25  C   UNL     1      -5.543  12.927  22.181  0.00  0.00    +0.000 A 
ATOM     26  C   UNL     1      -6.580  12.785  23.121  0.00  0.00    +0.000 A 
ATOM     27  C   UNL     1      -7.724  12.078  22.786  0.00  0.00    +0.000 A 
ATOM     28  N   UNL     1      -7.916  11.500  21.590  0.00  0.00    +0.000 NA
ATOM     29  C   UNL     1      -6.922  11.640  20.686  0.00  0.00    +0.000 A 
ATOM     30  C   UNL     1      -5.740  12.326  20.932  0.00  0.00    +0.000 A 
ENDBRANCH   3  25
TORSDOF 3
ENDMDL
MODEL 6
REMARK VINA RESULT:      -6.8      4.288      7.249
REMARK  Name = 
REMARK  3 active torsions:
REMARK  status: ('A' for Active; 'I' for Inactive)
REMARK    1  A    between atoms: C_2  and  C_3
REMARK    2  A    between atoms: C_5  and  C_6
REMARK    3  A    between atoms: C_23  and  C_24
REMARK                            x       y       z     vdW  Elec       q    Type
REMARK                         _______ _______ _______ _____ _____    ______ ____
ROOT
ATOM      1  C   UNL     1       0.660  13.322  20.604  0.00  0.00    +0.000 A 
ATOM      2  C   UNL     1       1.277  12.092  20.389  0.00  0.00    +0.000 A 
ATOM      3  C   UNL     1       0.561  11.017  19.903  0.00  0.00    +0.000 A 
ATOM      4  N   UNL     1      -0.776  11.096  19.744  0.00  0.00    +0.000 NA
ATOM      5  C   UNL     1      -1.418  12.223  20.106  0.00  0.00    +0.000 A 
ATOM      6  C   UNL     1      -2.809  12.198  20.091  0.00  0.00    +0.000 A 
ATOM      7  C   UNL     1      -3.574  13.297  20.484  0.00  0.00    +0.000 A 
ATOM      8  C   UNL     1      -2.940  14.470  20.861  0.00  0.00    +0.000 A 
ATOM      9  C   UNL     1      -1.546  14.529  20.861  0.00  0.00    +0.000 A 
ATOM     10  C   UNL     1      -0.754  13.399  20.524  0.00  0.00    +0.000 A 
ENDROOT
BRANCH   1  12
ATOM     11  O   UNL     1       1.425  14.844  22.211  0.00  0.00    +0.000 OA
ATOM     12  C   UNL     1       1.542  14.446  21.053  0.00  0.00    +0.000 C 
ATOM     13  N   UNL     1       2.522  14.972  20.198  0.00  0.00    +0.000 N 
ATOM     14  C   UNL     1       3.562  15.832  20.765  0.00  0.00    +0.000 C 
ATOM     15  C   UNL     1       3.810  17.079  19.911  0.00  0.00    +0.000 C 
ATOM     16  O   UNL     1       3.966  16.798  18.513  0.00  0.00    +0.000 OA
ATOM     17  C   UNL     1       2.860  16.049  17.967  0.00  0.00    +0.000 C 
ATOM     18  C   UNL     1       2.707  14.734  18.755  0.00  0.00    +0.000 C 
BRANCH  17  19
ATOM     19  C   UNL     1       1.581  16.867  17.813  0.00  0.00    +0.000 A 
ATOM     20  C   UNL     1       1.519  17.879  16.843  0.00  0.00    +0.000 A 
ATOM     21  C   UNL     1       0.353  18.627  16.660  0.00  0.00    +0.000 A 
ATOM     22  C   UNL     1      -0.777  18.359  17.428  0.00  0.00    +0.000 A 
ATOM     23  C   UNL     1      -0.747  17.341  18.372  0.00  0.00    +0.000 A 
ATOM     24  C   UNL     1       0.418  16.598  18.556  0.00  0.00    +0.000 A 
ENDBRANCH  17  19
ENDBRANCH   1  12
BRANCH   3  25
ATOM     25  C   UNL     1       1.221   9.748  19.529  0.00  0.00    +0.000 A 
ATOM     26  C   UNL     1       1.749   9.539  18.242  0.00  0.00    +0.000 A 
ATOM     27  C   UNL     1       2.341   8.327  17.927  0.00  0.00    +0.000 A 
ATOM     28  N   UNL     1       2.447   7.305  18.792  0.00  0.00    +0.000 NA
ATOM     29  C   UNL     1       1.944   7.507  20.028  0.00  0.00    +0.000 A 
ATOM     30  C   UNL     1       1.330   8.685  20.433  0.00  0.00    +0.000 A 
ENDBRANCH   3  25
TORSDOF 3
ENDMDL
MODEL 7
REMARK VINA RESULT:      -6.8     10.777     13.473
REMARK  Name = 
REMARK  3 active torsions:
REMARK  status: ('A' for Active; 'I' for Inactive)
REMARK    1  A    between atoms: C_2  and  C_3
REMARK    2  A    between atoms: C_5  and  C_6
REMARK    3  A    between atoms: C_23  and  C_24
REMARK                            x       y       z     vdW  Elec       q    Type
REMARK                         _______ _______ _______ _____ _____    ______ ____
ROOT
ATOM      1  C   UNL     1       9.807  15.760  21.350  0.00  0.00    +0.000 A 
ATOM      2  C   UNL     1       9.178  14.674  21.955  0.00  0.00    +0.000 A 
ATOM      3  C   UNL     1       9.078  14.590  23.329  0.00  0.00    +0.000 A 
ATOM      4  N   UNL     1       9.698  15.492  24.119  0.00  0.00    +0.000 NA
ATOM      5  C   UNL     1      10.452  16.455  23.557  0.00  0.00    +0.000 A 
ATOM      6  C   UNL     1      11.211  17.250  24.410  0.00  0.00    +0.000 A 
ATOM      7  C   UNL     1      12.057  18.251  23.933  0.00  0.00    +0.000 A 
ATOM      8  C   UNL     1      12.121  18.499  22.570  0.00  0.00    +0.000 A 
ATOM      9  C   UNL     1      11.351  17.731  21.695  0.00  0.00    +0.000 A 
ATOM     10  C   UNL     1      10.533  16.667  22.162  0.00  0.00    +0.000 A 
ENDROOT
BRANCH   1  12
ATOM     11  O   UNL     1       8.853  16.376  19.301  0.00  0.00    +0.000 OA
ATOM     12  C   UNL     1       9.788  15.798  19.852  0.00  0.00    +0.000 C 
ATOM     13  N   UNL     1      10.848  15.255  19.110  0.00  0.00    +0.000 N 
ATOM     14  C   UNL     1      10.953  15.589  17.689  0.00  0.00    +0.000 C 
ATOM     15  C   UNL     1      11.259  14.359  16.828  0.00  0.00    +0.000 C 
ATOM     16  O   UNL     1      12.333  13.554  17.333  0.00  0.00    +0.000 OA
ATOM     17  C   UNL     1      12.131  13.149  18.703  0.00  0.00    +0.000 C 
ATOM     18  C   UNL     1      11.958  14.405  19.578  0.00  0.00    +0.000 C 
BRANCH  17  19
ATOM     19  C   UNL     1      11.054  12.082  18.875  0.00  0.00    +0.000 A 
ATOM     20  C   UNL     1      10.603  11.754  20.163  0.00  0.00    +0.000 A 
ATOM     21  C   UNL     1       9.599  10.800  20.350  0.00  0.00    +0.000 A 
ATOM     22  C   UNL     1       9.013  10.177  19.252  0.00  0.00    +0.000 A 
ATOM     23  C   UNL     1       9.422  10.510  17.967  0.00  0.00    +0.000 A 
ATOM     24  C   UNL     1      10.427  11.459  17.781  0.00  0.00    +0.000 A 
ENDBRANCH  17  19
ENDBRANCH   1  12
BRANCH   3  25
ATOM     25  C   UNL     1       8.291  13.528  23.988  0.00  0.00    +0.000 A 
ATOM     26  C   UNL     1       8.306  13.352  25.383  0.00  0.00    +0.000 A 
ATOM     27  C   UNL     1       7.569  12.329  25.959  0.00  0.00    +0.000 A 
ATOM     28  N   UNL     1       6.819  11.467  25.254  0.00  0.00    +0.000 NA
ATOM     29  C   UNL     1       6.801  11.639  23.915  0.00  0.00    +0.000 A 
ATOM     30  C   UNL     1       7.510  12.631  23.250  0.00  0.00    +0.000 A 
ENDBRANCH   3  25
TORSDOF 3
ENDMDL
MODEL 8
REMARK VINA RESULT:      -6.8      2.894      5.988
REMARK  Name = 
REMARK  3 active torsions:
REMARK  status: ('A' for Active; 'I' for Inactive)
REMARK    1  A    between atoms: C_2  and  C_3
REMARK    2  A    between atoms: C_5  and  C_6
REMARK    3  A    between atoms: C_23  and  C_24
REMARK                            x       y       z     vdW  Elec       q    Type
REMARK                         _______ _______ _______ _____ _____    ______ ____
ROOT
ATOM      1  C   UNL     1      -1.683  12.379  20.954  0.00  0.00    +0.000 A 
ATOM      2  C   UNL     1      -2.403  11.886  19.869  0.00  0.00    +0.000 A 
ATOM      3  C   UNL     1      -1.863  11.898  18.598  0.00  0.00    +0.000 A 
ATOM      4  N   UNL     1      -0.681  12.503  18.360  0.00  0.00    +0.000 NA
ATOM      5  C   UNL     1      -0.047  13.135  19.365  0.00  0.00    +0.000 A 
ATOM      6  C   UNL     1       1.074  13.891  19.039  0.00  0.00    +0.000 A 
ATOM      7  C   UNL     1       1.783  14.617  19.995  0.00  0.00    +0.000 A 
ATOM      8  C   UNL     1       1.394  14.557  21.324  0.00  0.00    +0.000 A 
ATOM      9  C   UNL     1       0.287  13.786  21.682  0.00  0.00    +0.000 A 
ATOM     10  C   UNL     1      -0.482  13.092  20.710  0.00  0.00    +0.000 A 
ENDROOT
BRANCH   1  12
ATOM     11  O   UNL     1      -1.915  11.356  23.049  0.00  0.00    +0.000 OA
ATOM     12  C   UNL     1      -2.324  12.243  22.302  0.00  0.00    +0.000 C 
ATOM     13  N   UNL     1      -3.306  13.153  22.721  0.00  0.00    +0.000 N 
ATOM     14  C   UNL     1      -3.672  13.188  24.138  0.00  0.00    +0.000 C 
ATOM     15  C   UNL     1      -5.190  13.248  24.341  0.00  0.00    +0.000 C 
ATOM     16  O   UNL     1      -5.840  14.238  23.532  0.00  0.00    +0.000 OA
ATOM     17  C   UNL     1      -5.544  14.094  22.127  0.00  0.00    +0.000 C 
ATOM     18  C   UNL     1      -4.019  14.169  21.926  0.00  0.00    +0.000 C 
BRANCH  17  19
ATOM     19  C   UNL     1      -6.229  12.897  21.475  0.00  0.00    +0.000 A 
ATOM     20  C   UNL     1      -5.708  12.363  20.287  0.00  0.00    +0.000 A 
ATOM     21  C   UNL     1      -6.298  11.251  19.680  0.00  0.00    +0.000 A 
ATOM     22  C   UNL     1      -7.403  10.639  20.265  0.00  0.00    +0.000 A 
ATOM     23  C   UNL     1      -7.917  11.133  21.458  0.00  0.00    +0.000 A 
ATOM     24  C   UNL     1      -7.330  12.245  22.060  0.00  0.00    +0.000 A 
ENDBRANCH  17  19
ENDBRANCH   1  12
BRANCH   3  25
ATOM     25  C   UNL     1      -2.543  11.249  17.458  0.00  0.00    +0.000 A 
ATOM     26  C   UNL     1      -1.917  10.248  16.695  0.00  0.00    +0.000 A 
ATOM     27  C   UNL     1      -2.583   9.680  15.620  0.00  0.00    +0.000 A 
ATOM     28  N   UNL     1      -3.823  10.032  15.246  0.00  0.00    +0.000 NA
ATOM     29  C   UNL     1      -4.426  10.990  15.981  0.00  0.00    +0.000 A 
ATOM     30  C   UNL     1      -3.837  11.619  17.070  0.00  0.00    +0.000 A 
ENDBRANCH   3  25
TORSDOF 3
ENDMDL
MODEL 9
REMARK VINA RESULT:      -6.8      2.804      6.048
REMARK  Name = 
REMARK  3 active torsions:
REMARK  status: ('A' for Active; 'I' for Inactive)
REMARK    1  A    between atoms: C_2  and  C_3
REMARK    2  A    between atoms: C_5  and  C_6
REMARK    3  A    between atoms: C_23  and  C_24
REMARK                            x       y       z     vdW  Elec       q    Type
REMARK                         _______ _______ _______ _____ _____    ______ ____
ROOT
ATOM      1  C   UNL     1      -2.863  13.117  23.291  0.00  0.00    +0.000 A 
ATOM      2  C   UNL     1      -2.335  12.500  22.160  0.00  0.00    +0.000 A 
ATOM      3  C   UNL     1      -1.074  12.823  21.702  0.00  0.00    +0.000 A 
ATOM      4  N   UNL     1      -0.377  13.833  22.262  0.00  0.00    +0.000 NA
ATOM      5  C   UNL     1      -0.939  14.556  23.249  0.00  0.00    +0.000 A 
ATOM      6  C   UNL     1      -0.260  15.692  23.675  0.00  0.00    +0.000 A 
ATOM      7  C   UNL     1      -0.769  16.534  24.664  0.00  0.00    +0.000 A 
ATOM      8  C   UNL     1      -1.969  16.215  25.279  0.00  0.00    +0.000 A 
ATOM      9  C   UNL     1      -2.659  15.067  24.888  0.00  0.00    +0.000 A 
ATOM     10  C   UNL     1      -2.183  14.235  23.839  0.00  0.00    +0.000 A 
ENDROOT
BRANCH   1  12
ATOM     11  O   UNL     1      -4.238  11.677  24.525  0.00  0.00    +0.000 OA
ATOM     12  C   UNL     1      -4.204  12.635  23.755  0.00  0.00    +0.000 C 
ATOM     13  N   UNL     1      -5.375  13.311  23.380  0.00  0.00    +0.000 N 
ATOM     14  C   UNL     1      -6.616  13.016  24.097  0.00  0.00    +0.000 C 
ATOM     15  C   UNL     1      -7.805  12.841  23.147  0.00  0.00    +0.000 C 
ATOM     16  O   UNL     1      -7.915  13.881  22.166  0.00  0.00    +0.000 OA
ATOM     17  C   UNL     1      -6.705  14.058  21.400  0.00  0.00    +0.000 C 
ATOM     18  C   UNL     1      -5.543  14.365  22.364  0.00  0.00    +0.000 C 
BRANCH  17  19
ATOM     19  C   UNL     1      -6.441  12.937  20.399  0.00  0.00    +0.000 A 
ATOM     20  C   UNL     1      -5.181  12.833  19.792  0.00  0.00    +0.000 A 
ATOM     21  C   UNL     1      -4.902  11.802  18.891  0.00  0.00    +0.000 A 
ATOM     22  C   UNL     1      -5.870  10.844  18.602  0.00  0.00    +0.000 A 
ATOM     23  C   UNL     1      -7.115  10.911  19.216  0.00  0.00    +0.000 A 
ATOM     24  C   UNL     1      -7.394  11.942  20.112  0.00  0.00    +0.000 A 
ENDBRANCH  17  19
ENDBRANCH   1  12
BRANCH   3  25
ATOM     25  C   UNL     1      -0.434  12.080  20.595  0.00  0.00    +0.000 A 
ATOM     26  C   UNL     1      -1.182  11.291  19.704  0.00  0.00    +0.000 A 
ATOM     27  C   UNL     1      -0.540  10.594  18.693  0.00  0.00    +0.000 A 
ATOM     28  N   UNL     1       0.789  10.620  18.501  0.00  0.00    +0.000 NA
ATOM     29  C   UNL     1       1.506  11.381  19.355  0.00  0.00    +0.000 A 
ATOM     30  C   UNL     1       0.952  12.110  20.399  0.00  0.00    +0.000 A 
ENDBRANCH   3  25
TORSDOF 3
ENDMDL
