MODEL 1
REMARK VINA RESULT:      -7.9      0.000      0.000
REMARK  Name = 
REMARK  5 active torsions:
REMARK  status: ('A' for Active; 'I' for Inactive)
REMARK    1  A    between atoms: C_1  and  C_2
REMARK    2  A    between atoms: N_9  and  C_10
REMARK    3  A    between atoms: C_10  and  C_11
REMARK    4  A    between atoms: N_13  and  C_14
REMARK    5  A    between atoms: C_19  and  C_20
REMARK                            x       y       z     vdW  Elec       q    Type
REMARK                         _______ _______ _______ _____ _____    ______ ____
ROOT
ATOM      1  C   UNL     1      -0.498  10.817  19.003  0.00  0.00    +0.000 C 
ATOM      2  O   UNL     1      -1.126  10.113  18.213  0.00  0.00    +0.000 OA
ATOM      3  N   UNL     1       0.642  10.421  19.692  0.00  0.00    +0.000 N 
ATOM      4  H   UNL     1       0.789  10.871  20.600  0.00  0.00    +0.000 HD
ENDROOT
BRANCH   3   5
ATOM      5  C   UNL     1       1.325   9.212  19.435  0.00  0.00    +0.000 A 
ATOM      6  C   UNL     1       2.035   9.033  18.236  0.00  0.00    +0.000 A 
ATOM      7  C   UNL     1       2.688   7.831  17.937  0.00  0.00    +0.000 A 
ATOM      8  C   UNL     1       2.559   6.831  18.888  0.00  0.00    +0.000 A 
ATOM      9  O   UNL     1       3.039   5.563  18.802  0.00  0.00    +0.000 OA
ATOM     10  C   UNL     1       2.645   4.969  19.974  0.00  0.00    +0.000 A 
ATOM     11  N   UNL     1       1.976   5.770  20.790  0.00  0.00    +0.000 NA
ATOM     12  C   UNL     1       1.903   6.962  20.099  0.00  0.00    +0.000 A 
ATOM     13  C   UNL     1       1.298   8.195  20.409  0.00  0.00    +0.000 A 
BRANCH  10  14
ATOM     14  C   UNL     1       2.982   3.507  20.251  0.00  0.00    +0.000 C 
ATOM     15  C   UNL     1       1.922   2.442  20.067  0.00  0.00    +0.000 C 
ATOM     16  C   UNL     1       2.360   2.813  21.442  0.00  0.00    +0.000 C 
ENDBRANCH  10  14
ENDBRANCH   3   5
BRANCH   1  17
ATOM     17  C   UNL     1      -0.972  12.235  19.324  0.00  0.00    +0.000 C 
BRANCH  17  26
ATOM     18  C   UNL     1      -6.892  13.088  21.821  0.00  0.00    +0.000 C 
ATOM     19  C   UNL     1      -5.550  12.918  22.481  0.00  0.00    +0.000 A 
ATOM     20  C   UNL     1      -5.452  12.989  23.881  0.00  0.00    +0.000 A 
ATOM     21  C   UNL     1      -4.225  12.806  24.519  0.00  0.00    +0.000 A 
ATOM     22  C   UNL     1      -3.086  12.547  23.764  0.00  0.00    +0.000 A 
ATOM     23  C   UNL     1      -3.176  12.492  22.369  0.00  0.00    +0.000 A 
ATOM     24  C   UNL     1      -1.976  12.251  21.547  0.00  0.00    +0.000 A 
ATOM     25  O   UNL     1      -0.886  12.025  22.073  0.00  0.00    +0.000 OA
ATOM     26  N   UNL     1      -2.154  12.286  20.175  0.00  0.00    +0.000 N 
ATOM     27  C   UNL     1      -3.397  12.483  19.630  0.00  0.00    +0.000 A 
ATOM     28  N   UNL     1      -4.485  12.664  20.304  0.00  0.00    +0.000 NA
ATOM     29  C   UNL     1      -4.395  12.685  21.710  0.00  0.00    +0.000 A 
ENDBRANCH  17  26
ENDBRANCH   1  17
TORSDOF 4
ENDMDL
MODEL 2
REMARK VINA RESULT:      -7.7      7.976     11.524
REMARK  Name = 
REMARK  5 active torsions:
REMARK  status: ('A' for Active; 'I' for Inactive)
REMARK    1  A    between atoms: C_1  and  C_2
REMARK    2  A    between atoms: N_9  and  C_10
REMARK    3  A    between atoms: C_10  and  C_11
REMARK    4  A    between atoms: N_13  and  C_14
REMARK    5  A    between atoms: C_19  and  C_20
REMARK                            x       y       z     vdW  Elec       q    Type
REMARK                         _______ _______ _______ _____ _____    ______ ____
ROOT
ATOM      1  C   UNL     1       7.910   7.937  17.961  0.00  0.00    +0.000 C 
ATOM      2  O   UNL     1       8.561   7.459  18.889  0.00  0.00    +0.000 OA
ATOM      3  N   UNL     1       7.809   9.292  17.672  0.00  0.00    +0.000 N 
ATOM      4  H   UNL     1       6.938   9.586  17.220  0.00  0.00    +0.000 HD
ENDROOT
BRANCH   3   5
ATOM      5  C   UNL     1       8.590  10.283  18.307  0.00  0.00    +0.000 A 
ATOM      6  C   UNL     1       9.235  10.012  19.526  0.00  0.00    +0.000 A 
ATOM      7  C   UNL     1       9.982  10.987  20.198  0.00  0.00    +0.000 A 
ATOM      8  C   UNL     1      10.014  12.234  19.595  0.00  0.00    +0.000 A 
ATOM      9  O   UNL     1      10.610  13.355  20.080  0.00  0.00    +0.000 OA
ATOM     10  C   UNL     1      10.351  14.314  19.134  0.00  0.00    +0.000 A 
ATOM     11  N   UNL     1       9.661  13.876  18.091  0.00  0.00    +0.000 NA
ATOM     12  C   UNL     1       9.427  12.548  18.382  0.00  0.00    +0.000 A 
ATOM     13  C   UNL     1       8.725  11.542  17.691  0.00  0.00    +0.000 A 
BRANCH  10  14
ATOM     14  C   UNL     1      10.847  15.744  19.328  0.00  0.00    +0.000 C 
ATOM     15  C   UNL     1      12.333  16.033  19.318  0.00  0.00    +0.000 C 
ATOM     16  C   UNL     1      11.578  16.111  20.600  0.00  0.00    +0.000 C 
ENDBRANCH  10  14
ENDBRANCH   3   5
BRANCH   1  17
ATOM     17  C   UNL     1       7.096   7.030  17.036  0.00  0.00    +0.000 C 
BRANCH  17  26
ATOM     18  C   UNL     1       4.320   2.126  20.236  0.00  0.00    +0.000 C 
ATOM     19  C   UNL     1       3.727   3.231  19.403  0.00  0.00    +0.000 A 
ATOM     20  C   UNL     1       2.340   3.266  19.182  0.00  0.00    +0.000 A 
ATOM     21  C   UNL     1       1.763   4.296  18.438  0.00  0.00    +0.000 A 
ATOM     22  C   UNL     1       2.567   5.302  17.913  0.00  0.00    +0.000 A 
ATOM     23  C   UNL     1       3.951   5.262  18.117  0.00  0.00    +0.000 A 
ATOM     24  C   UNL     1       4.824   6.300  17.541  0.00  0.00    +0.000 A 
ATOM     25  O   UNL     1       4.349   7.258  16.929  0.00  0.00    +0.000 OA
ATOM     26  N   UNL     1       6.185   6.134  17.736  0.00  0.00    +0.000 N 
ATOM     27  C   UNL     1       6.669   5.084  18.473  0.00  0.00    +0.000 A 
ATOM     28  N   UNL     1       5.945   4.169  19.028  0.00  0.00    +0.000 NA
ATOM     29  C   UNL     1       4.549   4.231  18.848  0.00  0.00    +0.000 A 
ENDBRANCH  17  26
ENDBRANCH   1  17
TORSDOF 4
ENDMDL
MODEL 3
REMARK VINA RESULT:      -7.6      3.279     10.285
REMARK  Name = 
REMARK  5 active torsions:
REMARK  status: ('A' for Active; 'I' for Inactive)
REMARK    1  A    between atoms: C_1  and  C_2
REMARK    2  A    between atoms: N_9  and  C_10
REMARK    3  A    between atoms: C_10  and  C_11
REMARK    4  A    between atoms: N_13  and  C_14
REMARK    5  A    between atoms: C_19  and  C_20
REMARK                            x       y       z     vdW  Elec       q    Type
REMARK                         _______ _______ _______ _____ _____    ______ ____
ROOT
ATOM      1  C   UNL     1       2.051   5.760  20.278  0.00  0.00    +0.000 C 
ATOM      2  O   UNL     1       0.911   5.390  20.559  0.00  0.00    +0.000 OA
ATOM      3  N   UNL     1       2.424   7.074  20.026  0.00  0.00    +0.000 N 
ATOM      4  H   UNL     1       3.217   7.195  19.389  0.00  0.00    +0.000 HD
ENDROOT
BRANCH   3   5
ATOM      5  C   UNL     1       1.569   8.179  20.233  0.00  0.00    +0.000 A 
ATOM      6  C   UNL     1       1.133   8.959  19.149  0.00  0.00    +0.000 A 
ATOM      7  C   UNL     1       0.318  10.083  19.329  0.00  0.00    +0.000 A 
ATOM      8  C   UNL     1       0.001  10.384  20.644  0.00  0.00    +0.000 A 
ATOM      9  O   UNL     1      -0.714  11.454  21.082  0.00  0.00    +0.000 OA
ATOM     10  C   UNL     1      -0.740  11.310  22.446  0.00  0.00    +0.000 A 
ATOM     11  N   UNL     1      -0.118  10.229  22.890  0.00  0.00    +0.000 NA
ATOM     12  C   UNL     1       0.373   9.635  21.746  0.00  0.00    +0.000 A 
ATOM     13  C   UNL     1       1.147   8.476  21.543  0.00  0.00    +0.000 A 
BRANCH  10  14
ATOM     14  C   UNL     1      -1.445  12.345  23.318  0.00  0.00    +0.000 C 
ATOM     15  C   UNL     1      -2.947  12.279  23.499  0.00  0.00    +0.000 C 
ATOM     16  C   UNL     1      -2.353  13.367  22.672  0.00  0.00    +0.000 C 
ENDBRANCH  10  14
ENDBRANCH   3   5
BRANCH   1  17
ATOM     17  C   UNL     1       3.185   4.742  20.147  0.00  0.00    +0.000 C 
BRANCH  17  26
ATOM     18  C   UNL     1       4.895   3.844  13.961  0.00  0.00    +0.000 C 
ATOM     19  C   UNL     1       5.696   4.272  15.161  0.00  0.00    +0.000 A 
ATOM     20  C   UNL     1       7.077   4.496  15.030  0.00  0.00    +0.000 A 
ATOM     21  C   UNL     1       7.836   4.922  16.120  0.00  0.00    +0.000 A 
ATOM     22  C   UNL     1       7.221   5.132  17.349  0.00  0.00    +0.000 A 
ATOM     23  C   UNL     1       5.849   4.895  17.489  0.00  0.00    +0.000 A 
ATOM     24  C   UNL     1       5.184   5.080  18.791  0.00  0.00    +0.000 A 
ATOM     25  O   UNL     1       5.806   5.511  19.762  0.00  0.00    +0.000 OA
ATOM     26  N   UNL     1       3.841   4.750  18.846  0.00  0.00    +0.000 N 
ATOM     27  C   UNL     1       3.171   4.327  17.726  0.00  0.00    +0.000 A 
ATOM     28  N   UNL     1       3.699   4.183  16.555  0.00  0.00    +0.000 NA
ATOM     29  C   UNL     1       5.074   4.455  16.411  0.00  0.00    +0.000 A 
ENDBRANCH  17  26
ENDBRANCH   1  17
TORSDOF 4
ENDMDL
MODEL 4
REMARK VINA RESULT:      -7.6      3.005      4.356
REMARK  Name = 
REMARK  5 active torsions:
REMARK  status: ('A' for Active; 'I' for Inactive)
REMARK    1  A    between atoms: C_1  and  C_2
REMARK    2  A    between atoms: N_9  and  C_10
REMARK    3  A    between atoms: C_10  and  C_11
REMARK    4  A    between atoms: N_13  and  C_14
REMARK    5  A    between atoms: C_19  and  C_20
REMARK                            x       y       z     vdW  Elec       q    Type
REMARK                         _______ _______ _______ _____ _____    ______ ____
ROOT
ATOM      1  C   UNL     1       1.640   8.178  20.505  0.00  0.00    +0.000 C 
ATOM      2  O   UNL     1       1.359   8.708  19.431  0.00  0.00    +0.000 OA
ATOM      3  N   UNL     1       2.126   6.885  20.654  0.00  0.00    +0.000 N 
ATOM      4  H   UNL     1       1.889   6.421  21.535  0.00  0.00    +0.000 HD
ENDROOT
BRANCH   3   5
ATOM      5  C   UNL     1       2.525   6.074  19.568  0.00  0.00    +0.000 A 
ATOM      6  C   UNL     1       1.720   5.006  19.139  0.00  0.00    +0.000 A 
ATOM      7  C   UNL     1       2.109   4.162  18.092  0.00  0.00    +0.000 A 
ATOM      8  C   UNL     1       3.347   4.437  17.535  0.00  0.00    +0.000 A 
ATOM      9  O   UNL     1       3.974   3.728  16.559  0.00  0.00    +0.000 OA
ATOM     10  C   UNL     1       5.161   4.388  16.368  0.00  0.00    +0.000 A 
ATOM     11  N   UNL     1       5.316   5.459  17.131  0.00  0.00    +0.000 NA
ATOM     12  C   UNL     1       4.166   5.493  17.893  0.00  0.00    +0.000 A 
ATOM     13  C   UNL     1       3.735   6.366  18.911  0.00  0.00    +0.000 A 
BRANCH  10  14
ATOM     14  C   UNL     1       6.173   3.876  15.347  0.00  0.00    +0.000 C 
ATOM     15  C   UNL     1       6.830   4.846  14.388  0.00  0.00    +0.000 C 
ATOM     16  C   UNL     1       5.814   3.883  13.877  0.00  0.00    +0.000 C 
ENDBRANCH  10  14
ENDBRANCH   3   5
BRANCH   1  17
ATOM     17  C   UNL     1       1.431   8.931  21.820  0.00  0.00    +0.000 C 
BRANCH  17  26
ATOM     18  C   UNL     1      -0.834  14.885  20.628  0.00  0.00    +0.000 C 
ATOM     19  C   UNL     1      -1.312  13.810  21.566  0.00  0.00    +0.000 A 
ATOM     20  C   UNL     1      -2.408  14.061  22.409  0.00  0.00    +0.000 A 
ATOM     21  C   UNL     1      -2.889  13.071  23.266  0.00  0.00    +0.000 A 
ATOM     22  C   UNL     1      -2.282  11.820  23.285  0.00  0.00    +0.000 A 
ATOM     23  C   UNL     1      -1.180  11.571  22.460  0.00  0.00    +0.000 A 
ATOM     24  C   UNL     1      -0.501  10.262  22.489  0.00  0.00    +0.000 A 
ATOM     25  O   UNL     1      -0.930   9.343  23.187  0.00  0.00    +0.000 OA
ATOM     26  N   UNL     1       0.623  10.137  21.690  0.00  0.00    +0.000 N 
ATOM     27  C   UNL     1       1.034  11.167  20.883  0.00  0.00    +0.000 A 
ATOM     28  N   UNL     1       0.454  12.319  20.794  0.00  0.00    +0.000 NA
ATOM     29  C   UNL     1      -0.675  12.554  21.603  0.00  0.00    +0.000 A 
ENDBRANCH  17  26
ENDBRANCH   1  17
TORSDOF 4
ENDMDL
MODEL 5
REMARK VINA RESULT:      -7.6      2.507      9.644
REMARK  Name = 
REMARK  5 active torsions:
REMARK  status: ('A' for Active; 'I' for Inactive)
REMARK    1  A    between atoms: C_1  and  C_2
REMARK    2  A    between atoms: N_9  and  C_10
REMARK    3  A    between atoms: C_10  and  C_11
REMARK    4  A    between atoms: N_13  and  C_14
REMARK    5  A    between atoms: C_19  and  C_20
REMARK                            x       y       z     vdW  Elec       q    Type
REMARK                         _______ _______ _______ _____ _____    ______ ____
ROOT
ATOM      1  C   UNL     1       0.441   9.043  20.545  0.00  0.00    +0.000 C 
ATOM      2  O   UNL     1      -0.368   8.736  21.421  0.00  0.00    +0.000 OA
ATOM      3  N   UNL     1       0.175   9.886  19.473  0.00  0.00    +0.000 N 
ATOM      4  H   UNL     1       0.716   9.706  18.623  0.00  0.00    +0.000 HD
ENDROOT
BRANCH   3   5
ATOM      5  C   UNL     1      -1.014  10.639  19.352  0.00  0.00    +0.000 A 
ATOM      6  C   UNL     1      -1.281  11.700  20.233  0.00  0.00    +0.000 A 
ATOM      7  C   UNL     1      -2.469  12.437  20.162  0.00  0.00    +0.000 A 
ATOM      8  C   UNL     1      -3.366  12.029  19.188  0.00  0.00    +0.000 A 
ATOM      9  O   UNL     1      -4.607  12.535  18.963  0.00  0.00    +0.000 OA
ATOM     10  C   UNL     1      -5.092  11.796  17.915  0.00  0.00    +0.000 A 
ATOM     11  N   UNL     1      -4.247  10.885  17.456  0.00  0.00    +0.000 NA
ATOM     12  C   UNL     1      -3.143  11.015  18.273  0.00  0.00    +0.000 A 
ATOM     13  C   UNL     1      -1.920  10.319  18.323  0.00  0.00    +0.000 A 
BRANCH  10  14
ATOM     14  C   UNL     1      -6.494  12.054  17.371  0.00  0.00    +0.000 C 
ATOM     15  C   UNL     1      -6.892  13.453  16.950  0.00  0.00    +0.000 C 
ATOM     16  C   UNL     1      -7.472  12.867  18.191  0.00  0.00    +0.000 C 
ENDBRANCH  10  14
ENDBRANCH   3   5
BRANCH   1  17
ATOM     17  C   UNL     1       1.855   8.460  20.558  0.00  0.00    +0.000 C 
BRANCH  17  26
ATOM     18  C   UNL     1       1.906   2.041  19.673  0.00  0.00    +0.000 C 
ATOM     19  C   UNL     1       2.521   3.158  18.874  0.00  0.00    +0.000 A 
ATOM     20  C   UNL     1       3.303   2.857  17.746  0.00  0.00    +0.000 A 
ATOM     21  C   UNL     1       3.860   3.876  16.973  0.00  0.00    +0.000 A 
ATOM     22  C   UNL     1       3.636   5.205  17.317  0.00  0.00    +0.000 A 
ATOM     23  C   UNL     1       2.872   5.509  18.449  0.00  0.00    +0.000 A 
ATOM     24  C   UNL     1       2.651   6.910  18.851  0.00  0.00    +0.000 A 
ATOM     25  O   UNL     1       3.074   7.839  18.163  0.00  0.00    +0.000 OA
ATOM     26  N   UNL     1       1.943   7.107  20.025  0.00  0.00    +0.000 N 
ATOM     27  C   UNL     1       1.439   6.046  20.732  0.00  0.00    +0.000 A 
ATOM     28  N   UNL     1       1.575   4.802  20.404  0.00  0.00    +0.000 NA
ATOM     29  C   UNL     1       2.316   4.502  19.245  0.00  0.00    +0.000 A 
ENDBRANCH  17  26
ENDBRANCH   1  17
TORSDOF 4
ENDMDL
MODEL 6
REMARK VINA RESULT:      -7.5      2.181      2.838
REMARK  Name = 
REMARK  5 active torsions:
REMARK  status: ('A' for Active; 'I' for Inactive)
REMARK    1  A    between atoms: C_1  and  C_2
REMARK    2  A    between atoms: N_9  and  C_10
REMARK    3  A    between atoms: C_10  and  C_11
REMARK    4  A    between atoms: N_13  and  C_14
REMARK    5  A    between atoms: C_19  and  C_20
REMARK                            x       y       z     vdW  Elec       q    Type
REMARK                         _______ _______ _______ _____ _____    ______ ____
ROOT
ATOM      1  C   UNL     1       1.008   9.893  20.012  0.00  0.00    +0.000 C 
ATOM      2  O   UNL     1       0.706   9.882  18.819  0.00  0.00    +0.000 OA
ATOM      3  N   UNL     1       1.507   8.806  20.719  0.00  0.00    +0.000 N 
ATOM      4  H   UNL     1       1.288   8.788  21.719  0.00  0.00    +0.000 HD
ENDROOT
BRANCH   3   5
ATOM      5  C   UNL     1       1.895   7.593  20.107  0.00  0.00    +0.000 A 
ATOM      6  C   UNL     1       1.526   6.359  20.668  0.00  0.00    +0.000 A 
ATOM      7  C   UNL     1       1.930   5.142  20.106  0.00  0.00    +0.000 A 
ATOM      8  C   UNL     1       2.738   5.243  18.985  0.00  0.00    +0.000 A 
ATOM      9  O   UNL     1       3.311   4.217  18.302  0.00  0.00    +0.000 OA
ATOM     10  C   UNL     1       4.014   4.829  17.296  0.00  0.00    +0.000 A 
ATOM     11  N   UNL     1       3.909   6.149  17.285  0.00  0.00    +0.000 NA
ATOM     12  C   UNL     1       3.105   6.427  18.371  0.00  0.00    +0.000 A 
ATOM     13  C   UNL     1       2.645   7.641  18.916  0.00  0.00    +0.000 A 
BRANCH  10  14
ATOM     14  C   UNL     1       4.827   3.999  16.307  0.00  0.00    +0.000 C 
ATOM     15  C   UNL     1       6.336   4.114  16.288  0.00  0.00    +0.000 C 
ATOM     16  C   UNL     1       5.541   4.690  15.166  0.00  0.00    +0.000 C 
ENDBRANCH  10  14
ENDBRANCH   3   5
BRANCH   1  17
ATOM     17  C   UNL     1       0.813  11.158  20.851  0.00  0.00    +0.000 C 
BRANCH  17  26
ATOM     18  C   UNL     1      -5.173  13.565  20.247  0.00  0.00    +0.000 C 
ATOM     19  C   UNL     1      -4.404  13.106  21.457  0.00  0.00    +0.000 A 
ATOM     20  C   UNL     1      -4.982  13.223  22.732  0.00  0.00    +0.000 A 
ATOM     21  C   UNL     1      -4.302  12.778  23.866  0.00  0.00    +0.000 A 
ATOM     22  C   UNL     1      -3.040  12.208  23.735  0.00  0.00    +0.000 A 
ATOM     23  C   UNL     1      -2.454  12.105  22.468  0.00  0.00    +0.000 A 
ATOM     24  C   UNL     1      -1.104  11.534  22.311  0.00  0.00    +0.000 A 
ATOM     25  O   UNL     1      -0.495  11.075  23.277  0.00  0.00    +0.000 OA
ATOM     26  N   UNL     1      -0.581  11.541  21.029  0.00  0.00    +0.000 N 
ATOM     27  C   UNL     1      -1.315  12.009  19.969  0.00  0.00    +0.000 A 
ATOM     28  N   UNL     1      -2.515  12.486  20.049  0.00  0.00    +0.000 NA
ATOM     29  C   UNL     1      -3.114  12.557  21.322  0.00  0.00    +0.000 A 
ENDBRANCH  17  26
ENDBRANCH   1  17
TORSDOF 4
ENDMDL
MODEL 7
REMARK VINA RESULT:      -7.5      1.083      1.870
REMARK  Name = 
REMARK  5 active torsions:
REMARK  status: ('A' for Active; 'I' for Inactive)
REMARK    1  A    between atoms: C_1  and  C_2
REMARK    2  A    between atoms: N_9  and  C_10
REMARK    3  A    between atoms: C_10  and  C_11
REMARK    4  A    between atoms: N_13  and  C_14
REMARK    5  A    between atoms: C_19  and  C_20
REMARK                            x       y       z     vdW  Elec       q    Type
REMARK                         _______ _______ _______ _____ _____    ______ ____
ROOT
ATOM      1  C   UNL     1      -0.963  10.971  18.962  0.00  0.00    +0.000 C 
ATOM      2  O   UNL     1      -1.697  10.055  18.591  0.00  0.00    +0.000 OA
ATOM      3  N   UNL     1       0.361  10.822  19.356  0.00  0.00    +0.000 N 
ATOM      4  H   UNL     1       0.700  11.505  20.040  0.00  0.00    +0.000 HD
ENDROOT
BRANCH   3   5
ATOM      5  C   UNL     1       1.085   9.617  19.213  0.00  0.00    +0.000 A 
ATOM      6  C   UNL     1       1.843   9.372  18.055  0.00  0.00    +0.000 A 
ATOM      7  C   UNL     1       2.537   8.170  17.869  0.00  0.00    +0.000 A 
ATOM      8  C   UNL     1       2.399   7.239  18.886  0.00  0.00    +0.000 A 
ATOM      9  O   UNL     1       2.915   5.982  18.910  0.00  0.00    +0.000 OA
ATOM     10  C   UNL     1       2.493   5.464  20.107  0.00  0.00    +0.000 A 
ATOM     11  N   UNL     1       1.774   6.302  20.838  0.00  0.00    +0.000 NA
ATOM     12  C   UNL     1       1.696   7.439  20.060  0.00  0.00    +0.000 A 
ATOM     13  C   UNL     1       1.048   8.673  20.257  0.00  0.00    +0.000 A 
BRANCH  10  14
ATOM     14  C   UNL     1       2.857   4.036  20.502  0.00  0.00    +0.000 C 
ATOM     15  C   UNL     1       1.890   2.906  20.219  0.00  0.00    +0.000 C 
ATOM     16  C   UNL     1       2.101   3.358  21.624  0.00  0.00    +0.000 C 
ENDBRANCH  10  14
ENDBRANCH   3   5
BRANCH   1  17
ATOM     17  C   UNL     1      -1.494  12.402  19.051  0.00  0.00    +0.000 C 
BRANCH  17  26
ATOM     18  C   UNL     1      -4.063  13.065  24.963  0.00  0.00    +0.000 C 
ATOM     19  C   UNL     1      -4.706  12.866  23.617  0.00  0.00    +0.000 A 
ATOM     20  C   UNL     1      -6.103  12.743  23.527  0.00  0.00    +0.000 A 
ATOM     21  C   UNL     1      -6.726  12.588  22.288  0.00  0.00    +0.000 A 
ATOM     22  C   UNL     1      -5.958  12.558  21.129  0.00  0.00    +0.000 A 
ATOM     23  C   UNL     1      -4.565  12.664  21.215  0.00  0.00    +0.000 A 
ATOM     24  C   UNL     1      -3.731  12.602  20.002  0.00  0.00    +0.000 A 
ATOM     25  O   UNL     1      -4.244  12.526  18.885  0.00  0.00    +0.000 OA
ATOM     26  N   UNL     1      -2.361  12.642  20.197  0.00  0.00    +0.000 N 
ATOM     27  C   UNL     1      -1.831  12.786  21.453  0.00  0.00    +0.000 A 
ATOM     28  N   UNL     1      -2.518  12.880  22.544  0.00  0.00    +0.000 NA
ATOM     29  C   UNL     1      -3.922  12.807  22.449  0.00  0.00    +0.000 A 
ENDBRANCH  17  26
ENDBRANCH   1  17
TORSDOF 4
ENDMDL
MODEL 8
REMARK VINA RESULT:      -7.5      1.184      1.226
REMARK  Name = 
REMARK  5 active torsions:
REMARK  status: ('A' for Active; 'I' for Inactive)
REMARK    1  A    between atoms: C_1  and  C_2
REMARK    2  A    between atoms: N_9  and  C_10
REMARK    3  A    between atoms: C_10  and  C_11
REMARK    4  A    between atoms: N_13  and  C_14
REMARK    5  A    between atoms: C_19  and  C_20
REMARK                            x       y       z     vdW  Elec       q    Type
REMARK                         _______ _______ _______ _____ _____    ______ ____
ROOT
ATOM      1  C   UNL     1       0.800  11.249  20.807  0.00  0.00    +0.000 C 
ATOM      2  O   UNL     1       1.169  10.725  21.857  0.00  0.00    +0.000 OA
ATOM      3  N   UNL     1       1.002  10.721  19.538  0.00  0.00    +0.000 N 
ATOM      4  H   UNL     1       1.077  11.405  18.779  0.00  0.00    +0.000 HD
ENDROOT
BRANCH   3   5
ATOM      5  C   UNL     1       1.506   9.422  19.307  0.00  0.00    +0.000 A 
ATOM      6  C   UNL     1       2.118   9.099  18.084  0.00  0.00    +0.000 A 
ATOM      7  C   UNL     1       2.590   7.809  17.813  0.00  0.00    +0.000 A 
ATOM      8  C   UNL     1       2.385   6.877  18.817  0.00  0.00    +0.000 A 
ATOM      9  O   UNL     1       2.690   5.553  18.770  0.00  0.00    +0.000 OA
ATOM     10  C   UNL     1       2.287   5.068  19.988  0.00  0.00    +0.000 A 
ATOM     11  N   UNL     1       1.775   5.984  20.795  0.00  0.00    +0.000 NA
ATOM     12  C   UNL     1       1.820   7.145  20.051  0.00  0.00    +0.000 A 
ATOM     13  C   UNL     1       1.400   8.460  20.329  0.00  0.00    +0.000 A 
BRANCH  10  14
ATOM     14  C   UNL     1       2.445   3.587  20.319  0.00  0.00    +0.000 C 
ATOM     15  C   UNL     1       1.318   2.623  20.015  0.00  0.00    +0.000 C 
ATOM     16  C   UNL     1       1.617   2.981  21.431  0.00  0.00    +0.000 C 
ENDBRANCH  10  14
ENDBRANCH   3   5
BRANCH   1  17
ATOM     17  C   UNL     1       0.088  12.603  20.824  0.00  0.00    +0.000 C 
BRANCH  17  26
ATOM     18  C   UNL     1      -6.384  12.719  20.510  0.00  0.00    +0.000 C 
ATOM     19  C   UNL     1      -5.446  12.749  21.687  0.00  0.00    +0.000 A 
ATOM     20  C   UNL     1      -5.966  12.869  22.987  0.00  0.00    +0.000 A 
ATOM     21  C   UNL     1      -5.119  12.868  24.095  0.00  0.00    +0.000 A 
ATOM     22  C   UNL     1      -3.746  12.744  23.915  0.00  0.00    +0.000 A 
ATOM     23  C   UNL     1      -3.222  12.641  22.622  0.00  0.00    +0.000 A 
ATOM     24  C   UNL     1      -1.767  12.542  22.406  0.00  0.00    +0.000 A 
ATOM     25  O   UNL     1      -0.990  12.478  23.360  0.00  0.00    +0.000 OA
ATOM     26  N   UNL     1      -1.342  12.517  21.089  0.00  0.00    +0.000 N 
ATOM     27  C   UNL     1      -2.244  12.532  20.056  0.00  0.00    +0.000 A 
ATOM     28  N   UNL     1      -3.529  12.583  20.191  0.00  0.00    +0.000 NA
ATOM     29  C   UNL     1      -4.053  12.652  21.497  0.00  0.00    +0.000 A 
ENDBRANCH  17  26
ENDBRANCH   1  17
TORSDOF 4
ENDMDL
MODEL 9
REMARK VINA RESULT:      -7.4      1.735      2.346
REMARK  Name = 
REMARK  5 active torsions:
REMARK  status: ('A' for Active; 'I' for Inactive)
REMARK    1  A    between atoms: C_1  and  C_2
REMARK    2  A    between atoms: N_9  and  C_10
REMARK    3  A    between atoms: C_10  and  C_11
REMARK    4  A    between atoms: N_13  and  C_14
REMARK    5  A    between atoms: C_19  and  C_20
REMARK                            x       y       z     vdW  Elec       q    Type
REMARK                         _______ _______ _______ _____ _____    ______ ____
ROOT
ATOM      1  C   UNL     1      -0.118  10.477  19.651  0.00  0.00    +0.000 C 
ATOM      2  O   UNL     1      -0.807   9.939  18.785  0.00  0.00    +0.000 OA
ATOM      3  N   UNL     1       0.937   9.872  20.323  0.00  0.00    +0.000 N 
ATOM      4  H   UNL     1       1.112  10.213  21.273  0.00  0.00    +0.000 HD
ENDROOT
BRANCH   3   5
ATOM      5  C   UNL     1       1.463   8.610  19.967  0.00  0.00    +0.000 A 
ATOM      6  C   UNL     1       1.316   7.506  20.824  0.00  0.00    +0.000 A 
ATOM      7  C   UNL     1       1.862   6.254  20.516  0.00  0.00    +0.000 A 
ATOM      8  C   UNL     1       2.576   6.192  19.330  0.00  0.00    +0.000 A 
ATOM      9  O   UNL     1       3.253   5.118  18.846  0.00  0.00    +0.000 OA
ATOM     10  C   UNL     1       3.795   5.560  17.666  0.00  0.00    +0.000 A 
ATOM     11  N   UNL     1       3.494   6.815  17.368  0.00  0.00    +0.000 NA
ATOM     12  C   UNL     1       2.725   7.235  18.433  0.00  0.00    +0.000 A 
ATOM     13  C   UNL     1       2.124   8.473  18.732  0.00  0.00    +0.000 A 
BRANCH  10  14
ATOM     14  C   UNL     1       4.660   4.633  16.818  0.00  0.00    +0.000 C 
ATOM     15  C   UNL     1       6.169   4.723  16.904  0.00  0.00    +0.000 C 
ATOM     16  C   UNL     1       5.472   5.208  15.679  0.00  0.00    +0.000 C 
ENDBRANCH  10  14
ENDBRANCH   3   5
BRANCH   1  17
ATOM     17  C   UNL     1      -0.412  11.911  20.096  0.00  0.00    +0.000 C 
BRANCH  17  26
ATOM     18  C   UNL     1      -6.579  13.468  21.333  0.00  0.00    +0.000 C 
ATOM     19  C   UNL     1      -5.446  13.095  22.250  0.00  0.00    +0.000 A 
ATOM     20  C   UNL     1      -5.647  13.102  23.641  0.00  0.00    +0.000 A 
ATOM     21  C   UNL     1      -4.621  12.731  24.511  0.00  0.00    +0.000 A 
ATOM     22  C   UNL     1      -3.387  12.347  23.998  0.00  0.00    +0.000 A 
ATOM     23  C   UNL     1      -3.177  12.355  22.615  0.00  0.00    +0.000 A 
ATOM     24  C   UNL     1      -1.866  11.983  22.052  0.00  0.00    +0.000 A 
ATOM     25  O   UNL     1      -0.954  11.593  22.781  0.00  0.00    +0.000 OA
ATOM     26  N   UNL     1      -1.735  12.092  20.679  0.00  0.00    +0.000 N 
ATOM     27  C   UNL     1      -2.794  12.475  19.896  0.00  0.00    +0.000 A 
ATOM     28  N   UNL     1      -3.972  12.777  20.336  0.00  0.00    +0.000 NA
ATOM     29  C   UNL     1      -4.189  12.735  21.728  0.00  0.00    +0.000 A 
ENDBRANCH  17  26
ENDBRANCH   1  17
TORSDOF 4
ENDMDL
