MODEL 1
REMARK VINA RESULT:      -8.3      0.000      0.000
REMARK  Name = 
REMARK  7 active torsions:
REMARK  status: ('A' for Active; 'I' for Inactive)
REMARK    1  A    between atoms: C_1  and  N_2
REMARK    2  A    between atoms: C_6  and  C_7
REMARK    3  A    between atoms: C_7  and  C_8
REMARK    4  A    between atoms: C_8  and  C_9
REMARK    5  A    between atoms: C_13  and  N_14
REMARK    6  A    between atoms: C_17  and  C_18
REMARK    7  A    between atoms: N_20  and  C_21
REMARK                            x       y       z     vdW  Elec       q    Type
REMARK                         _______ _______ _______ _____ _____    ______ ____
ROOT
ATOM      1  C   UNL     1       2.498   7.428  18.657  0.00  0.00    +0.000 A 
ATOM      2  C   UNL     1       2.677   8.399  17.658  0.00  0.00    +0.000 A 
ATOM      3  C   UNL     1       2.059   9.644  17.737  0.00  0.00    +0.000 A 
ATOM      4  C   UNL     1       1.253   9.962  18.831  0.00  0.00    +0.000 A 
ATOM      5  C   UNL     1       1.069   9.065  19.885  0.00  0.00    +0.000 A 
ATOM      6  C   UNL     1       1.690   7.805  19.751  0.00  0.00    +0.000 A 
ENDROOT
BRANCH   5   7
ATOM      7  N   UNL     1       0.312   9.367  21.002  0.00  0.00    +0.000 N 
ATOM      8  C   UNL     1       0.743   8.887  22.316  0.00  0.00    +0.000 C 
ATOM      9  C   UNL     1      -0.044   9.736  23.253  0.00  0.00    +0.000 C 
ATOM     10  C   UNL     1      -0.756  10.661  22.596  0.00  0.00    +0.000 C 
ATOM     11  C   UNL     1      -0.542  10.562  21.118  0.00  0.00    +0.000 C 
BRANCH  10  12
ATOM     12  C   UNL     1      -1.672  11.695  23.130  0.00  0.00    +0.000 C 
ATOM     13  O   UNL     1      -2.788  11.388  23.542  0.00  0.00    +0.000 OA
ATOM     14  N   UNL     1      -1.177  12.976  23.128  0.00  0.00    +0.000 N 
ATOM     15  H   UNL     1      -0.296  13.163  22.676  0.00  0.00    +0.000 HD
BRANCH  14  16
ATOM     16  C   UNL     1      -1.937  14.118  23.620  0.00  0.00    +0.000 C 
ATOM     17  C   UNL     1      -2.827  14.704  22.517  0.00  0.00    +0.000 C 
ATOM     18  C   UNL     1      -3.584  15.938  23.007  0.00  0.00    +0.000 C 
ATOM     19  C   UNL     1      -2.640  16.997  23.570  0.00  0.00    +0.000 C 
ATOM     20  C   UNL     1      -1.738  16.421  24.658  0.00  0.00    +0.000 C 
ATOM     21  C   UNL     1      -0.983  15.188  24.168  0.00  0.00    +0.000 C 
ENDBRANCH  14  16
ENDBRANCH  10  12
ENDBRANCH   5   7
BRANCH   1  22
ATOM     22  C   UNL     1       3.133   5.953  18.547  0.00  0.00    +0.000 C 
ATOM     23  C   UNL     1       4.093   5.669  17.350  0.00  0.00    +0.000 C 
ATOM     24  O   UNL     1       5.219   5.433  18.223  0.00  0.00    +0.000 OA
ATOM     25  C   UNL     1       4.433   5.744  19.387  0.00  0.00    +0.000 C 
BRANCH  22  26
ATOM     26  C   UNL     1       2.067   4.860  18.822  0.00  0.00    +0.000 C 
BRANCH  26  32
ATOM     27  C   UNL     1       3.641   2.029  19.102  0.00  0.00    +0.000 C 
ATOM     28  N   UNL     1       2.952   2.791  20.108  0.00  0.00    +0.000 N 
ATOM     29  C   UNL     1       2.806   2.361  21.395  0.00  0.00    +0.000 A 
ATOM     30  N   UNL     1       2.112   3.231  22.079  0.00  0.00    +0.000 NA
ATOM     31  N   UNL     1       1.795   4.264  21.231  0.00  0.00    +0.000 NA
ATOM     32  C   UNL     1       2.299   4.007  20.038  0.00  0.00    +0.000 A 
ENDBRANCH  26  32
ENDBRANCH  22  26
ENDBRANCH   1  22
TORSDOF 6
ENDMDL
MODEL 2
REMARK VINA RESULT:      -8.2      2.311      3.211
REMARK  Name = 
REMARK  7 active torsions:
REMARK  status: ('A' for Active; 'I' for Inactive)
REMARK    1  A    between atoms: C_1  and  N_2
REMARK    2  A    between atoms: C_6  and  C_7
REMARK    3  A    between atoms: C_7  and  C_8
REMARK    4  A    between atoms: C_8  and  C_9
REMARK    5  A    between atoms: C_13  and  N_14
REMARK    6  A    between atoms: C_17  and  C_18
REMARK    7  A    between atoms: N_20  and  C_21
REMARK                            x       y       z     vdW  Elec       q    Type
REMARK                         _______ _______ _______ _____ _____    ______ ____
ROOT
ATOM      1  C   UNL     1       3.016   5.752  18.590  0.00  0.00    +0.000 A 
ATOM      2  C   UNL     1       3.601   6.446  17.519  0.00  0.00    +0.000 A 
ATOM      3  C   UNL     1       3.359   7.802  17.314  0.00  0.00    +0.000 A 
ATOM      4  C   UNL     1       2.534   8.510  18.188  0.00  0.00    +0.000 A 
ATOM      5  C   UNL     1       1.958   7.897  19.303  0.00  0.00    +0.000 A 
ATOM      6  C   UNL     1       2.206   6.517  19.457  0.00  0.00    +0.000 A 
ENDROOT
BRANCH   5   7
ATOM      7  N   UNL     1       1.171   8.582  20.210  0.00  0.00    +0.000 N 
ATOM      8  C   UNL     1       1.426   8.429  21.644  0.00  0.00    +0.000 C 
ATOM      9  C   UNL     1       0.704   9.590  22.234  0.00  0.00    +0.000 C 
ATOM     10  C   UNL     1       0.188  10.382  21.284  0.00  0.00    +0.000 C 
ATOM     11  C   UNL     1       0.497   9.858  19.916  0.00  0.00    +0.000 C 
BRANCH  10  12
ATOM     12  C   UNL     1      -0.603  11.626  21.425  0.00  0.00    +0.000 C 
ATOM     13  O   UNL     1      -0.643  12.447  20.514  0.00  0.00    +0.000 OA
ATOM     14  N   UNL     1      -1.265  11.767  22.619  0.00  0.00    +0.000 N 
ATOM     15  H   UNL     1      -1.098  11.102  23.358  0.00  0.00    +0.000 HD
BRANCH  14  16
ATOM     16  C   UNL     1      -2.095  12.924  22.931  0.00  0.00    +0.000 C 
ATOM     17  C   UNL     1      -1.286  14.000  23.668  0.00  0.00    +0.000 C 
ATOM     18  C   UNL     1      -2.161  15.192  24.051  0.00  0.00    +0.000 C 
ATOM     19  C   UNL     1      -3.377  14.765  24.868  0.00  0.00    +0.000 C 
ATOM     20  C   UNL     1      -4.182  13.685  24.151  0.00  0.00    +0.000 C 
ATOM     21  C   UNL     1      -3.306  12.494  23.768  0.00  0.00    +0.000 C 
ENDBRANCH  14  16
ENDBRANCH  10  12
ENDBRANCH   5   7
BRANCH   1  22
ATOM     22  C   UNL     1       3.213   4.168  18.800  0.00  0.00    +0.000 C 
ATOM     23  C   UNL     1       2.852   3.576  20.198  0.00  0.00    +0.000 C 
ATOM     24  O   UNL     1       1.791   2.762  19.654  0.00  0.00    +0.000 OA
ATOM     25  C   UNL     1       2.000   3.298  18.336  0.00  0.00    +0.000 C 
BRANCH  22  26
ATOM     26  C   UNL     1       4.556   3.683  18.195  0.00  0.00    +0.000 C 
BRANCH  26  32
ATOM     27  C   UNL     1       7.086   4.617  16.377  0.00  0.00    +0.000 C 
ATOM     28  N   UNL     1       6.844   4.828  17.779  0.00  0.00    +0.000 N 
ATOM     29  C   UNL     1       7.743   5.442  18.603  0.00  0.00    +0.000 A 
ATOM     30  N   UNL     1       7.281   5.468  19.824  0.00  0.00    +0.000 NA
ATOM     31  N   UNL     1       6.047   4.865  19.811  0.00  0.00    +0.000 NA
ATOM     32  C   UNL     1       5.774   4.476  18.580  0.00  0.00    +0.000 A 
ENDBRANCH  26  32
ENDBRANCH  22  26
ENDBRANCH   1  22
TORSDOF 6
ENDMDL
MODEL 3
REMARK VINA RESULT:      -8.1      1.470      1.819
REMARK  Name = 
REMARK  7 active torsions:
REMARK  status: ('A' for Active; 'I' for Inactive)
REMARK    1  A    between atoms: C_1  and  N_2
REMARK    2  A    between atoms: C_6  and  C_7
REMARK    3  A    between atoms: C_7  and  C_8
REMARK    4  A    between atoms: C_8  and  C_9
REMARK    5  A    between atoms: C_13  and  N_14
REMARK    6  A    between atoms: C_17  and  C_18
REMARK    7  A    between atoms: N_20  and  C_21
REMARK                            x       y       z     vdW  Elec       q    Type
REMARK                         _______ _______ _______ _____ _____    ______ ____
ROOT
ATOM      1  C   UNL     1       2.505   7.484  18.955  0.00  0.00    +0.000 A 
ATOM      2  C   UNL     1       2.693   8.311  17.836  0.00  0.00    +0.000 A 
ATOM      3  C   UNL     1       2.039   9.534  17.719  0.00  0.00    +0.000 A 
ATOM      4  C   UNL     1       1.185   9.976  18.731  0.00  0.00    +0.000 A 
ATOM      5  C   UNL     1       0.989   9.230  19.895  0.00  0.00    +0.000 A 
ATOM      6  C   UNL     1       1.648   7.985  19.959  0.00  0.00    +0.000 A 
ENDROOT
BRANCH   5   7
ATOM      7  N   UNL     1       0.183   9.661  20.932  0.00  0.00    +0.000 N 
ATOM      8  C   UNL     1       0.303   9.028  22.247  0.00  0.00    +0.000 C 
ATOM      9  C   UNL     1      -0.374  10.002  23.146  0.00  0.00    +0.000 C 
ATOM     10  C   UNL     1      -0.744  11.106  22.484  0.00  0.00    +0.000 C 
ATOM     11  C   UNL     1      -0.362  11.024  21.039  0.00  0.00    +0.000 C 
BRANCH  10  12
ATOM     12  C   UNL     1      -1.446  12.311  22.984  0.00  0.00    +0.000 C 
ATOM     13  O   UNL     1      -0.823  13.207  23.548  0.00  0.00    +0.000 OA
ATOM     14  N   UNL     1      -2.800  12.335  22.763  0.00  0.00    +0.000 N 
ATOM     15  H   UNL     1      -3.254  11.516  22.389  0.00  0.00    +0.000 HD
BRANCH  14  16
ATOM     16  C   UNL     1      -3.650  13.443  23.182  0.00  0.00    +0.000 C 
ATOM     17  C   UNL     1      -5.086  12.968  23.440  0.00  0.00    +0.000 C 
ATOM     18  C   UNL     1      -5.998  14.132  23.824  0.00  0.00    +0.000 C 
ATOM     19  C   UNL     1      -5.969  15.244  22.779  0.00  0.00    +0.000 C 
ATOM     20  C   UNL     1      -4.544  15.714  22.502  0.00  0.00    +0.000 C 
ATOM     21  C   UNL     1      -3.633  14.550  22.120  0.00  0.00    +0.000 C 
ENDBRANCH  14  16
ENDBRANCH  10  12
ENDBRANCH   5   7
BRANCH   1  22
ATOM     22  C   UNL     1       3.184   6.030  19.075  0.00  0.00    +0.000 C 
ATOM     23  C   UNL     1       3.489   5.266  17.749  0.00  0.00    +0.000 C 
ATOM     24  O   UNL     1       4.913   5.285  17.987  0.00  0.00    +0.000 OA
ATOM     25  C   UNL     1       4.742   6.050  19.192  0.00  0.00    +0.000 C 
BRANCH  22  26
ATOM     26  C   UNL     1       2.516   5.188  20.193  0.00  0.00    +0.000 C 
BRANCH  26  32
ATOM     27  C   UNL     1       4.141   2.374  20.074  0.00  0.00    +0.000 C 
ATOM     28  N   UNL     1       2.774   2.651  19.726  0.00  0.00    +0.000 N 
ATOM     29  C   UNL     1       1.935   1.709  19.204  0.00  0.00    +0.000 A 
ATOM     30  N   UNL     1       0.770   2.243  18.952  0.00  0.00    +0.000 NA
ATOM     31  N   UNL     1       0.833   3.564  19.320  0.00  0.00    +0.000 NA
ATOM     32  C   UNL     1       2.040   3.820  19.790  0.00  0.00    +0.000 A 
ENDBRANCH  26  32
ENDBRANCH  22  26
ENDBRANCH   1  22
TORSDOF 6
ENDMDL
MODEL 4
REMARK VINA RESULT:      -8.1      0.898      1.022
REMARK  Name = 
REMARK  7 active torsions:
REMARK  status: ('A' for Active; 'I' for Inactive)
REMARK    1  A    between atoms: C_1  and  N_2
REMARK    2  A    between atoms: C_6  and  C_7
REMARK    3  A    between atoms: C_7  and  C_8
REMARK    4  A    between atoms: C_8  and  C_9
REMARK    5  A    between atoms: C_13  and  N_14
REMARK    6  A    between atoms: C_17  and  C_18
REMARK    7  A    between atoms: N_20  and  C_21
REMARK                            x       y       z     vdW  Elec       q    Type
REMARK                         _______ _______ _______ _____ _____    ______ ____
ROOT
ATOM      1  C   UNL     1       2.459   7.511  18.964  0.00  0.00    +0.000 A 
ATOM      2  C   UNL     1       2.606   8.402  17.890  0.00  0.00    +0.000 A 
ATOM      3  C   UNL     1       1.923   9.615  17.854  0.00  0.00    +0.000 A 
ATOM      4  C   UNL     1       1.082   9.981  18.905  0.00  0.00    +0.000 A 
ATOM      5  C   UNL     1       0.925   9.167  20.029  0.00  0.00    +0.000 A 
ATOM      6  C   UNL     1       1.612   7.936  20.011  0.00  0.00    +0.000 A 
ENDROOT
BRANCH   5   7
ATOM      7  N   UNL     1       0.132   9.522  21.105  0.00  0.00    +0.000 N 
ATOM      8  C   UNL     1       0.487   9.054  22.446  0.00  0.00    +0.000 C 
ATOM      9  C   UNL     1      -0.306   9.951  23.331  0.00  0.00    +0.000 C 
ATOM     10  C   UNL     1      -0.952  10.890  22.626  0.00  0.00    +0.000 C 
ATOM     11  C   UNL     1      -0.678  10.751  21.160  0.00  0.00    +0.000 C 
BRANCH  10  12
ATOM     12  C   UNL     1      -1.849  11.969  23.099  0.00  0.00    +0.000 C 
ATOM     13  O   UNL     1      -3.027  11.734  23.354  0.00  0.00    +0.000 OA
ATOM     14  N   UNL     1      -1.265  13.205  23.225  0.00  0.00    +0.000 N 
ATOM     15  H   UNL     1      -0.322  13.341  22.895  0.00  0.00    +0.000 HD
BRANCH  14  16
ATOM     16  C   UNL     1      -1.994  14.381  23.682  0.00  0.00    +0.000 C 
ATOM     17  C   UNL     1      -2.272  15.342  22.519  0.00  0.00    +0.000 C 
ATOM     18  C   UNL     1      -2.985  16.606  22.998  0.00  0.00    +0.000 C 
ATOM     19  C   UNL     1      -2.214  17.305  24.114  0.00  0.00    +0.000 C 
ATOM     20  C   UNL     1      -1.918  16.354  25.270  0.00  0.00    +0.000 C 
ATOM     21  C   UNL     1      -1.207  15.091  24.791  0.00  0.00    +0.000 C 
ENDBRANCH  14  16
ENDBRANCH  10  12
ENDBRANCH   5   7
BRANCH   1  22
ATOM     22  C   UNL     1       3.171   6.068  18.989  0.00  0.00    +0.000 C 
ATOM     23  C   UNL     1       3.345   5.327  17.627  0.00  0.00    +0.000 C 
ATOM     24  O   UNL     1       4.786   5.369  17.713  0.00  0.00    +0.000 OA
ATOM     25  C   UNL     1       4.732   6.115  18.941  0.00  0.00    +0.000 C 
BRANCH  22  26
ATOM     26  C   UNL     1       2.640   5.199  20.160  0.00  0.00    +0.000 C 
BRANCH  26  32
ATOM     27  C   UNL     1       4.167   2.349  19.817  0.00  0.00    +0.000 C 
ATOM     28  N   UNL     1       2.779   2.668  19.619  0.00  0.00    +0.000 N 
ATOM     29  C   UNL     1       1.866   1.760  19.167  0.00  0.00    +0.000 A 
ATOM     30  N   UNL     1       0.695   2.327  19.048  0.00  0.00    +0.000 NA
ATOM     31  N   UNL     1       0.832   3.639  19.434  0.00  0.00    +0.000 NA
ATOM     32  C   UNL     1       2.087   3.853  19.782  0.00  0.00    +0.000 A 
ENDBRANCH  26  32
ENDBRANCH  22  26
ENDBRANCH   1  22
TORSDOF 6
ENDMDL
MODEL 5
REMARK VINA RESULT:      -8.0      3.517      5.065
REMARK  Name = 
REMARK  7 active torsions:
REMARK  status: ('A' for Active; 'I' for Inactive)
REMARK    1  A    between atoms: C_1  and  N_2
REMARK    2  A    between atoms: C_6  and  C_7
REMARK    3  A    between atoms: C_7  and  C_8
REMARK    4  A    between atoms: C_8  and  C_9
REMARK    5  A    between atoms: C_13  and  N_14
REMARK    6  A    between atoms: C_17  and  C_18
REMARK    7  A    between atoms: N_20  and  C_21
REMARK                            x       y       z     vdW  Elec       q    Type
REMARK                         _______ _______ _______ _____ _____    ______ ____
ROOT
ATOM      1  C   UNL     1       4.444   5.299  17.422  0.00  0.00    +0.000 A 
ATOM      2  C   UNL     1       3.592   4.185  17.473  0.00  0.00    +0.000 A 
ATOM      3  C   UNL     1       2.334   4.259  18.065  0.00  0.00    +0.000 A 
ATOM      4  C   UNL     1       1.883   5.461  18.612  0.00  0.00    +0.000 A 
ATOM      5  C   UNL     1       2.656   6.623  18.554  0.00  0.00    +0.000 A 
ATOM      6  C   UNL     1       3.934   6.496  17.972  0.00  0.00    +0.000 A 
ENDROOT
BRANCH   5   7
ATOM      7  N   UNL     1       2.218   7.838  19.048  0.00  0.00    +0.000 N 
ATOM      8  C   UNL     1       1.873   8.912  18.116  0.00  0.00    +0.000 C 
ATOM      9  C   UNL     1       1.080   9.844  18.964  0.00  0.00    +0.000 C 
ATOM     10  C   UNL     1       0.886   9.346  20.192  0.00  0.00    +0.000 C 
ATOM     11  C   UNL     1       1.525   8.000  20.337  0.00  0.00    +0.000 C 
BRANCH  10  12
ATOM     12  C   UNL     1       0.167   9.938  21.343  0.00  0.00    +0.000 C 
ATOM     13  O   UNL     1      -0.215   9.230  22.272  0.00  0.00    +0.000 OA
ATOM     14  N   UNL     1      -0.022  11.296  21.282  0.00  0.00    +0.000 N 
ATOM     15  H   UNL     1       0.226  11.791  20.439  0.00  0.00    +0.000 HD
BRANCH  14  16
ATOM     16  C   UNL     1      -0.704  12.048  22.328  0.00  0.00    +0.000 C 
ATOM     17  C   UNL     1      -2.227  11.900  22.208  0.00  0.00    +0.000 C 
ATOM     18  C   UNL     1      -2.953  12.731  23.265  0.00  0.00    +0.000 C 
ATOM     19  C   UNL     1      -2.540  14.199  23.214  0.00  0.00    +0.000 C 
ATOM     20  C   UNL     1      -1.026  14.358  23.317  0.00  0.00    +0.000 C 
ATOM     21  C   UNL     1      -0.301  13.527  22.262  0.00  0.00    +0.000 C 
ENDBRANCH  14  16
ENDBRANCH  10  12
ENDBRANCH   5   7
BRANCH   1  22
ATOM     22  C   UNL     1       5.934   5.217  16.820  0.00  0.00    +0.000 C 
ATOM     23  C   UNL     1       6.724   6.554  16.666  0.00  0.00    +0.000 C 
ATOM     24  O   UNL     1       7.734   6.144  17.614  0.00  0.00    +0.000 OA
ATOM     25  C   UNL     1       7.044   4.910  17.876  0.00  0.00    +0.000 C 
BRANCH  22  26
ATOM     26  C   UNL     1       5.996   4.261  15.600  0.00  0.00    +0.000 C 
BRANCH  26  32
ATOM     27  C   UNL     1       5.769   3.478  12.452  0.00  0.00    +0.000 C 
ATOM     28  N   UNL     1       6.699   4.356  13.107  0.00  0.00    +0.000 N 
ATOM     29  C   UNL     1       7.724   4.975  12.451  0.00  0.00    +0.000 A 
ATOM     30  N   UNL     1       8.429   5.683  13.293  0.00  0.00    +0.000 NA
ATOM     31  N   UNL     1       7.857   5.536  14.534  0.00  0.00    +0.000 NA
ATOM     32  C   UNL     1       6.811   4.738  14.431  0.00  0.00    +0.000 A 
ENDBRANCH  26  32
ENDBRANCH  22  26
ENDBRANCH   1  22
TORSDOF 6
ENDMDL
MODEL 6
REMARK VINA RESULT:      -8.0      2.751     10.255
REMARK  Name = 
REMARK  7 active torsions:
REMARK  status: ('A' for Active; 'I' for Inactive)
REMARK    1  A    between atoms: C_1  and  N_2
REMARK    2  A    between atoms: C_6  and  C_7
REMARK    3  A    between atoms: C_7  and  C_8
REMARK    4  A    between atoms: C_8  and  C_9
REMARK    5  A    between atoms: C_13  and  N_14
REMARK    6  A    between atoms: C_17  and  C_18
REMARK    7  A    between atoms: N_20  and  C_21
REMARK                            x       y       z     vdW  Elec       q    Type
REMARK                         _______ _______ _______ _____ _____    ______ ____
ROOT
ATOM      1  C   UNL     1      -1.170  11.498  21.735  0.00  0.00    +0.000 A 
ATOM      2  C   UNL     1      -1.001  11.035  23.049  0.00  0.00    +0.000 A 
ATOM      3  C   UNL     1      -0.277   9.877  23.324  0.00  0.00    +0.000 A 
ATOM      4  C   UNL     1       0.316   9.155  22.287  0.00  0.00    +0.000 A 
ATOM      5  C   UNL     1       0.231   9.583  20.960  0.00  0.00    +0.000 A 
ATOM      6  C   UNL     1      -0.535  10.744  20.724  0.00  0.00    +0.000 A 
ENDROOT
BRANCH   5   7
ATOM      7  N   UNL     1       0.843   8.913  19.917  0.00  0.00    +0.000 N 
ATOM      8  C   UNL     1       1.203   9.646  18.703  0.00  0.00    +0.000 C 
ATOM      9  C   UNL     1       2.172   8.732  18.038  0.00  0.00    +0.000 C 
ATOM     10  C   UNL     1       2.438   7.662  18.799  0.00  0.00    +0.000 C 
ATOM     11  C   UNL     1       1.678   7.712  20.088  0.00  0.00    +0.000 C 
BRANCH  10  12
ATOM     12  C   UNL     1       3.330   6.512  18.525  0.00  0.00    +0.000 C 
ATOM     13  O   UNL     1       3.380   5.561  19.301  0.00  0.00    +0.000 OA
ATOM     14  N   UNL     1       4.062   6.601  17.367  0.00  0.00    +0.000 N 
ATOM     15  H   UNL     1       4.046   7.459  16.838  0.00  0.00    +0.000 HD
BRANCH  14  16
ATOM     16  C   UNL     1       4.987   5.561  16.935  0.00  0.00    +0.000 C 
ATOM     17  C   UNL     1       6.344   5.704  17.638  0.00  0.00    +0.000 C 
ATOM     18  C   UNL     1       7.340   4.653  17.148  0.00  0.00    +0.000 C 
ATOM     19  C   UNL     1       7.502   4.688  15.631  0.00  0.00    +0.000 C 
ATOM     20  C   UNL     1       6.157   4.562  14.921  0.00  0.00    +0.000 C 
ATOM     21  C   UNL     1       5.162   5.611  15.412  0.00  0.00    +0.000 C 
ENDBRANCH  14  16
ENDBRANCH  10  12
ENDBRANCH   5   7
BRANCH   1  22
ATOM     22  C   UNL     1      -2.071  12.785  21.385  0.00  0.00    +0.000 C 
ATOM     23  C   UNL     1      -2.983  12.704  20.122  0.00  0.00    +0.000 C 
ATOM     24  O   UNL     1      -4.191  12.822  20.904  0.00  0.00    +0.000 OA
ATOM     25  C   UNL     1      -3.443  12.837  22.132  0.00  0.00    +0.000 C 
BRANCH  22  26
ATOM     26  C   UNL     1      -1.261  14.098  21.541  0.00  0.00    +0.000 C 
BRANCH  26  32
ATOM     27  C   UNL     1       0.159  13.813  18.630  0.00  0.00    +0.000 C 
ATOM     28  N   UNL     1       0.760  13.867  19.935  0.00  0.00    +0.000 N 
ATOM     29  C   UNL     1       2.103  13.733  20.139  0.00  0.00    +0.000 A 
ATOM     30  N   UNL     1       2.365  13.787  21.418  0.00  0.00    +0.000 NA
ATOM     31  N   UNL     1       1.173  13.966  22.077  0.00  0.00    +0.000 NA
ATOM     32  C   UNL     1       0.198  14.017  21.188  0.00  0.00    +0.000 A 
ENDBRANCH  26  32
ENDBRANCH  22  26
ENDBRANCH   1  22
TORSDOF 6
ENDMDL
MODEL 7
REMARK VINA RESULT:      -7.9      4.215      6.014
REMARK  Name = 
REMARK  7 active torsions:
REMARK  status: ('A' for Active; 'I' for Inactive)
REMARK    1  A    between atoms: C_1  and  N_2
REMARK    2  A    between atoms: C_6  and  C_7
REMARK    3  A    between atoms: C_7  and  C_8
REMARK    4  A    between atoms: C_8  and  C_9
REMARK    5  A    between atoms: C_13  and  N_14
REMARK    6  A    between atoms: C_17  and  C_18
REMARK    7  A    between atoms: N_20  and  C_21
REMARK                            x       y       z     vdW  Elec       q    Type
REMARK                         _______ _______ _______ _____ _____    ______ ____
ROOT
ATOM      1  C   UNL     1       4.481   4.856  17.198  0.00  0.00    +0.000 A 
ATOM      2  C   UNL     1       3.733   3.679  17.038  0.00  0.00    +0.000 A 
ATOM      3  C   UNL     1       2.406   3.600  17.452  0.00  0.00    +0.000 A 
ATOM      4  C   UNL     1       1.781   4.707  18.027  0.00  0.00    +0.000 A 
ATOM      5  C   UNL     1       2.448   5.926  18.173  0.00  0.00    +0.000 A 
ATOM      6  C   UNL     1       3.798   5.953  17.767  0.00  0.00    +0.000 A 
ENDROOT
BRANCH   5   7
ATOM      7  N   UNL     1       1.842   7.052  18.700  0.00  0.00    +0.000 N 
ATOM      8  C   UNL     1       1.916   7.300  20.140  0.00  0.00    +0.000 C 
ATOM      9  C   UNL     1       1.547   8.739  20.247  0.00  0.00    +0.000 C 
ATOM     10  C   UNL     1       1.387   9.295  19.039  0.00  0.00    +0.000 C 
ATOM     11  C   UNL     1       1.629   8.299  17.948  0.00  0.00    +0.000 C 
BRANCH  10  12
ATOM     12  C   UNL     1       1.016  10.685  18.686  0.00  0.00    +0.000 C 
ATOM     13  O   UNL     1      -0.103  10.941  18.250  0.00  0.00    +0.000 OA
ATOM     14  N   UNL     1       1.997  11.624  18.890  0.00  0.00    +0.000 N 
ATOM     15  H   UNL     1       2.923  11.321  19.150  0.00  0.00    +0.000 HD
BRANCH  14  16
ATOM     16  C   UNL     1       1.808  13.040  18.603  0.00  0.00    +0.000 C 
ATOM     17  C   UNL     1       3.131  13.701  18.195  0.00  0.00    +0.000 C 
ATOM     18  C   UNL     1       2.954  15.199  17.949  0.00  0.00    +0.000 C 
ATOM     19  C   UNL     1       2.339  15.903  19.155  0.00  0.00    +0.000 C 
ATOM     20  C   UNL     1       1.029  15.245  19.579  0.00  0.00    +0.000 C 
ATOM     21  C   UNL     1       1.206  13.749  19.824  0.00  0.00    +0.000 C 
ENDBRANCH  14  16
ENDBRANCH  10  12
ENDBRANCH   5   7
BRANCH   1  22
ATOM     22  C   UNL     1       6.039   4.946  16.805  0.00  0.00    +0.000 C 
ATOM     23  C   UNL     1       6.676   6.367  16.703  0.00  0.00    +0.000 C 
ATOM     24  O   UNL     1       7.587   6.110  17.794  0.00  0.00    +0.000 OA
ATOM     25  C   UNL     1       7.021   4.806  18.012  0.00  0.00    +0.000 C 
BRANCH  22  26
ATOM     26  C   UNL     1       6.383   3.975  15.645  0.00  0.00    +0.000 C 
BRANCH  26  32
ATOM     27  C   UNL     1       5.803   3.318  12.513  0.00  0.00    +0.000 C 
ATOM     28  N   UNL     1       6.707   4.275  13.091  0.00  0.00    +0.000 N 
ATOM     29  C   UNL     1       7.547   5.049  12.342  0.00  0.00    +0.000 A 
ATOM     30  N   UNL     1       8.275   5.800  13.124  0.00  0.00    +0.000 NA
ATOM     31  N   UNL     1       7.909   5.525  14.419  0.00  0.00    +0.000 NA
ATOM     32  C   UNL     1       6.961   4.606  14.409  0.00  0.00    +0.000 A 
ENDBRANCH  26  32
ENDBRANCH  22  26
ENDBRANCH   1  22
TORSDOF 6
ENDMDL
MODEL 8
REMARK VINA RESULT:      -7.9      2.322      3.219
REMARK  Name = 
REMARK  7 active torsions:
REMARK  status: ('A' for Active; 'I' for Inactive)
REMARK    1  A    between atoms: C_1  and  N_2
REMARK    2  A    between atoms: C_6  and  C_7
REMARK    3  A    between atoms: C_7  and  C_8
REMARK    4  A    between atoms: C_8  and  C_9
REMARK    5  A    between atoms: C_13  and  N_14
REMARK    6  A    between atoms: C_17  and  C_18
REMARK    7  A    between atoms: N_20  and  C_21
REMARK                            x       y       z     vdW  Elec       q    Type
REMARK                         _______ _______ _______ _____ _____    ______ ____
ROOT
ATOM      1  C   UNL     1       2.790   6.162  18.784  0.00  0.00    +0.000 A 
ATOM      2  C   UNL     1       3.278   6.891  17.688  0.00  0.00    +0.000 A 
ATOM      3  C   UNL     1       2.967   8.238  17.515  0.00  0.00    +0.000 A 
ATOM      4  C   UNL     1       2.168   8.901  18.447  0.00  0.00    +0.000 A 
ATOM      5  C   UNL     1       1.688   8.253  19.587  0.00  0.00    +0.000 A 
ATOM      6  C   UNL     1       2.003   6.884  19.708  0.00  0.00    +0.000 A 
ENDROOT
BRANCH   5   7
ATOM      7  N   UNL     1       0.930   8.895  20.549  0.00  0.00    +0.000 N 
ATOM      8  C   UNL     1       1.130   8.565  21.961  0.00  0.00    +0.000 C 
ATOM      9  C   UNL     1       0.483   9.707  22.663  0.00  0.00    +0.000 C 
ATOM     10  C   UNL     1       0.059  10.638  21.798  0.00  0.00    +0.000 C 
ATOM     11  C   UNL     1       0.366  10.245  20.386  0.00  0.00    +0.000 C 
BRANCH  10  12
ATOM     12  C   UNL     1      -0.637  11.918  22.062  0.00  0.00    +0.000 C 
ATOM     13  O   UNL     1       0.000  12.959  22.199  0.00  0.00    +0.000 OA
ATOM     14  N   UNL     1      -2.006  11.839  22.131  0.00  0.00    +0.000 N 
ATOM     15  H   UNL     1      -2.449  10.933  22.114  0.00  0.00    +0.000 HD
BRANCH  14  16
ATOM     16  C   UNL     1      -2.854  12.998  22.378  0.00  0.00    +0.000 C 
ATOM     17  C   UNL     1      -3.038  13.235  23.883  0.00  0.00    +0.000 C 
ATOM     18  C   UNL     1      -3.973  14.413  24.152  0.00  0.00    +0.000 C 
ATOM     19  C   UNL     1      -5.320  14.239  23.456  0.00  0.00    +0.000 C 
ATOM     20  C   UNL     1      -5.149  13.988  21.961  0.00  0.00    +0.000 C 
ATOM     21  C   UNL     1      -4.214  12.811  21.693  0.00  0.00    +0.000 C 
ENDBRANCH  14  16
ENDBRANCH  10  12
ENDBRANCH   5   7
BRANCH   1  22
ATOM     22  C   UNL     1       3.066   4.587  18.962  0.00  0.00    +0.000 C 
ATOM     23  C   UNL     1       2.978   3.998  20.404  0.00  0.00    +0.000 C 
ATOM     24  O   UNL     1       1.860   3.150  20.062  0.00  0.00    +0.000 OA
ATOM     25  C   UNL     1       1.815   3.680  18.726  0.00  0.00    +0.000 C 
BRANCH  22  26
ATOM     26  C   UNL     1       4.292   4.133  18.128  0.00  0.00    +0.000 C 
BRANCH  26  32
ATOM     27  C   UNL     1       6.920   4.768  16.321  0.00  0.00    +0.000 C 
ATOM     28  N   UNL     1       6.721   4.949  17.734  0.00  0.00    +0.000 N 
ATOM     29  C   UNL     1       7.705   5.387  18.572  0.00  0.00    +0.000 A 
ATOM     30  N   UNL     1       7.258   5.425  19.800  0.00  0.00    +0.000 NA
ATOM     31  N   UNL     1       5.949   5.010  19.776  0.00  0.00    +0.000 NA
ATOM     32  C   UNL     1       5.615   4.721  18.531  0.00  0.00    +0.000 A 
ENDBRANCH  26  32
ENDBRANCH  22  26
ENDBRANCH   1  22
TORSDOF 6
ENDMDL
MODEL 9
REMARK VINA RESULT:      -7.8      2.868      4.230
REMARK  Name = 
REMARK  7 active torsions:
REMARK  status: ('A' for Active; 'I' for Inactive)
REMARK    1  A    between atoms: C_1  and  N_2
REMARK    2  A    between atoms: C_6  and  C_7
REMARK    3  A    between atoms: C_7  and  C_8
REMARK    4  A    between atoms: C_8  and  C_9
REMARK    5  A    between atoms: C_13  and  N_14
REMARK    6  A    between atoms: C_17  and  C_18
REMARK    7  A    between atoms: N_20  and  C_21
REMARK                            x       y       z     vdW  Elec       q    Type
REMARK                         _______ _______ _______ _____ _____    ______ ____
ROOT
ATOM      1  C   UNL     1       3.746   5.438  18.870  0.00  0.00    +0.000 A 
ATOM      2  C   UNL     1       3.033   4.312  19.312  0.00  0.00    +0.000 A 
ATOM      3  C   UNL     1       1.915   4.437  20.133  0.00  0.00    +0.000 A 
ATOM      4  C   UNL     1       1.466   5.699  20.523  0.00  0.00    +0.000 A 
ATOM      5  C   UNL     1       2.095   6.865  20.081  0.00  0.00    +0.000 A 
ATOM      6  C   UNL     1       3.240   6.691  19.276  0.00  0.00    +0.000 A 
ENDROOT
BRANCH   5   7
ATOM      7  N   UNL     1       1.648   8.130  20.416  0.00  0.00    +0.000 N 
ATOM      8  C   UNL     1       1.139   9.014  19.367  0.00  0.00    +0.000 C 
ATOM      9  C   UNL     1       0.395  10.049  20.138  0.00  0.00    +0.000 C 
ATOM     10  C   UNL     1       0.369   9.761  21.446  0.00  0.00    +0.000 C 
ATOM     11  C   UNL     1       1.097   8.485  21.735  0.00  0.00    +0.000 C 
BRANCH  10  12
ATOM     12  C   UNL     1      -0.248  10.515  22.561  0.00  0.00    +0.000 C 
ATOM     13  O   UNL     1      -0.184  10.092  23.712  0.00  0.00    +0.000 OA
ATOM     14  N   UNL     1      -0.868  11.687  22.205  0.00  0.00    +0.000 N 
ATOM     15  H   UNL     1      -0.971  11.914  21.228  0.00  0.00    +0.000 HD
BRANCH  14  16
ATOM     16  C   UNL     1      -1.524  12.560  23.170  0.00  0.00    +0.000 C 
ATOM     17  C   UNL     1      -3.024  12.248  23.264  0.00  0.00    +0.000 C 
ATOM     18  C   UNL     1      -3.731  13.196  24.231  0.00  0.00    +0.000 C 
ATOM     19  C   UNL     1      -3.497  14.659  23.865  0.00  0.00    +0.000 C 
ATOM     20  C   UNL     1      -2.009  14.977  23.753  0.00  0.00    +0.000 C 
ATOM     21  C   UNL     1      -1.303  14.029  22.788  0.00  0.00    +0.000 C 
ENDBRANCH  14  16
ENDBRANCH  10  12
ENDBRANCH   5   7
BRANCH   1  22
ATOM     22  C   UNL     1       5.089   5.315  17.991  0.00  0.00    +0.000 C 
ATOM     23  C   UNL     1       6.443   5.642  18.695  0.00  0.00    +0.000 C 
ATOM     24  O   UNL     1       6.931   4.293  18.528  0.00  0.00    +0.000 OA
ATOM     25  C   UNL     1       5.693   3.876  17.928  0.00  0.00    +0.000 C 
BRANCH  22  26
ATOM     26  C   UNL     1       4.899   5.941  16.584  0.00  0.00    +0.000 C 
BRANCH  26  32
ATOM     27  C   UNL     1       4.833   3.924  14.034  0.00  0.00    +0.000 C 
ATOM     28  N   UNL     1       5.911   4.742  14.521  0.00  0.00    +0.000 N 
ATOM     29  C   UNL     1       7.160   4.730  13.969  0.00  0.00    +0.000 A 
ATOM     30  N   UNL     1       7.945   5.539  14.628  0.00  0.00    +0.000 NA
ATOM     31  N   UNL     1       7.202   6.105  15.635  0.00  0.00    +0.000 NA
ATOM     32  C   UNL     1       5.971   5.631  15.578  0.00  0.00    +0.000 A 
ENDBRANCH  26  32
ENDBRANCH  22  26
ENDBRANCH   1  22
TORSDOF 6
ENDMDL
