MODEL 1
REMARK VINA RESULT:      -8.2      0.000      0.000
REMARK  Name = 
REMARK  5 active torsions:
REMARK  status: ('A' for Active; 'I' for Inactive)
REMARK    1  A    between atoms: C_2  and  C_3
REMARK    2  A    between atoms: C_6  and  C_7
REMARK    3  A    between atoms: C_18  and  C_19
REMARK    4  A    between atoms: C_18  and  C_21
REMARK    5  A    between atoms: C_19  and  O_20
REMARK                            x       y       z     vdW  Elec       q    Type
REMARK                         _______ _______ _______ _____ _____    ______ ____
ROOT
ATOM      1  O   UNL     1       5.234   2.369  19.817  0.00  0.00    +0.000 OA
ATOM      2  C   UNL     1       4.881   3.435  19.317  0.00  0.00    +0.000 C 
ATOM      3  N   UNL     1       3.753   4.130  19.777  0.00  0.00    +0.000 N 
ATOM      4  C   UNL     1       2.980   3.570  20.876  0.00  0.00    +0.000 C 
ATOM      5  C   UNL     1       1.490   3.830  20.688  0.00  0.00    +0.000 C 
ATOM      6  C   UNL     1       1.170   5.285  20.323  0.00  0.00    +0.000 C 
ATOM      7  C   UNL     1       2.064   5.913  19.204  0.00  0.00    +0.000 C 
ATOM      8  C   UNL     1       3.534   5.560  19.559  0.00  0.00    +0.000 C 
ENDROOT
BRANCH   2   9
ATOM      9  C   UNL     1       5.646   4.019  18.202  0.00  0.00    +0.000 A 
ATOM     10  C   UNL     1       6.522   5.077  18.312  0.00  0.00    +0.000 A 
ATOM     11  N   UNL     1       6.984   5.306  17.050  0.00  0.00    +0.000 N 
ATOM     12  C   UNL     1       6.392   4.406  16.193  0.00  0.00    +0.000 A 
ATOM     13  N   UNL     1       5.617   3.582  16.880  0.00  0.00    +0.000 NA
ATOM     14  H   UNL     1       7.649   6.015  16.777  0.00  0.00    +0.000 HD
BRANCH  12  15
ATOM     15  C   UNL     1       6.624   4.408  14.745  0.00  0.00    +0.000 A 
ATOM     16  C   UNL     1       5.868   3.583  13.903  0.00  0.00    +0.000 A 
ATOM     17  C   UNL     1       6.087   3.579  12.522  0.00  0.00    +0.000 A 
ATOM     18  C   UNL     1       7.056   4.411  11.962  0.00  0.00    +0.000 A 
ATOM     19  C   UNL     1       7.810   5.245  12.785  0.00  0.00    +0.000 A 
ATOM     20  C   UNL     1       7.597   5.242  14.167  0.00  0.00    +0.000 A 
ENDBRANCH  12  15
ENDBRANCH   2   9
BRANCH   7  21
ATOM     21  C   UNL     1       1.879   7.454  19.110  0.00  0.00    +0.000 A 
ATOM     22  C   UNL     1       2.133   8.156  17.914  0.00  0.00    +0.000 A 
ATOM     23  C   UNL     1       1.928   9.535  17.815  0.00  0.00    +0.000 A 
ATOM     24  C   UNL     1       1.441  10.245  18.904  0.00  0.00    +0.000 A 
ATOM     25  C   UNL     1       1.157   9.576  20.089  0.00  0.00    +0.000 A 
ATOM     26  C   UNL     1       1.370   8.197  20.191  0.00  0.00    +0.000 A 
ENDBRANCH   7  21
BRANCH   7  27
ATOM     27  C   UNL     1       1.685   5.355  17.801  0.00  0.00    +0.000 C 
BRANCH  27  28
ATOM     28  O   UNL     1       1.150   4.038  17.812  0.00  0.00    +0.000 OA
ATOM     29  H   UNL     1       1.901   3.432  17.668  0.00  0.00    +0.000 HD
ENDBRANCH  27  28
ENDBRANCH   7  27
TORSDOF 5
ENDMDL
MODEL 2
REMARK VINA RESULT:      -8.1      0.054      1.311
REMARK  Name = 
REMARK  5 active torsions:
REMARK  status: ('A' for Active; 'I' for Inactive)
REMARK    1  A    between atoms: C_2  and  C_3
REMARK    2  A    between atoms: C_6  and  C_7
REMARK    3  A    between atoms: C_18  and  C_19
REMARK    4  A    between atoms: C_18  and  C_21
REMARK    5  A    between atoms: C_19  and  O_20
REMARK                            x       y       z     vdW  Elec       q    Type
REMARK                         _______ _______ _______ _____ _____    ______ ____
ROOT
ATOM      1  O   UNL     1       5.243   2.376  19.850  0.00  0.00    +0.000 OA
ATOM      2  C   UNL     1       4.873   3.429  19.337  0.00  0.00    +0.000 C 
ATOM      3  N   UNL     1       3.732   4.110  19.786  0.00  0.00    +0.000 N 
ATOM      4  C   UNL     1       2.966   3.549  20.890  0.00  0.00    +0.000 C 
ATOM      5  C   UNL     1       1.472   3.781  20.696  0.00  0.00    +0.000 C 
ATOM      6  C   UNL     1       1.128   5.227  20.313  0.00  0.00    +0.000 C 
ATOM      7  C   UNL     1       2.014   5.858  19.189  0.00  0.00    +0.000 C 
ATOM      8  C   UNL     1       3.489   5.534  19.552  0.00  0.00    +0.000 C 
ENDROOT
BRANCH   2   9
ATOM      9  C   UNL     1       5.630   4.014  18.218  0.00  0.00    +0.000 A 
ATOM     10  C   UNL     1       6.502   5.077  18.321  0.00  0.00    +0.000 A 
ATOM     11  N   UNL     1       6.958   5.304  17.057  0.00  0.00    +0.000 N 
ATOM     12  C   UNL     1       6.367   4.398  16.205  0.00  0.00    +0.000 A 
ATOM     13  N   UNL     1       5.599   3.573  16.897  0.00  0.00    +0.000 NA
ATOM     14  H   UNL     1       7.619   6.016  16.779  0.00  0.00    +0.000 HD
BRANCH  12  15
ATOM     15  C   UNL     1       6.594   4.398  14.756  0.00  0.00    +0.000 A 
ATOM     16  C   UNL     1       7.579   5.219  14.191  0.00  0.00    +0.000 A 
ATOM     17  C   UNL     1       7.797   5.225  12.809  0.00  0.00    +0.000 A 
ATOM     18  C   UNL     1       7.043   4.400  11.976  0.00  0.00    +0.000 A 
ATOM     19  C   UNL     1       6.067   3.571  12.523  0.00  0.00    +0.000 A 
ATOM     20  C   UNL     1       5.843   3.571  13.903  0.00  0.00    +0.000 A 
ENDBRANCH  12  15
ENDBRANCH   2   9
BRANCH   7  21
ATOM     21  C   UNL     1       1.804   7.394  19.078  0.00  0.00    +0.000 A 
ATOM     22  C   UNL     1       1.362   8.160  20.177  0.00  0.00    +0.000 A 
ATOM     23  C   UNL     1       1.213   9.546  20.092  0.00  0.00    +0.000 A 
ATOM     24  C   UNL     1       1.523  10.208  18.912  0.00  0.00    +0.000 A 
ATOM     25  C   UNL     1       1.986   9.483  17.819  0.00  0.00    +0.000 A 
ATOM     26  C   UNL     1       2.128   8.094  17.901  0.00  0.00    +0.000 A 
ENDBRANCH   7  21
BRANCH   7  27
ATOM     27  C   UNL     1       1.649   5.277  17.791  0.00  0.00    +0.000 C 
BRANCH  27  28
ATOM     28  O   UNL     1       1.118   3.959  17.818  0.00  0.00    +0.000 OA
ATOM     29  H   UNL     1       0.267   4.012  18.290  0.00  0.00    +0.000 HD
ENDBRANCH  27  28
ENDBRANCH   7  27
TORSDOF 5
ENDMDL
MODEL 3
REMARK VINA RESULT:      -7.6      8.473     11.263
REMARK  Name = 
REMARK  5 active torsions:
REMARK  status: ('A' for Active; 'I' for Inactive)
REMARK    1  A    between atoms: C_2  and  C_3
REMARK    2  A    between atoms: C_6  and  C_7
REMARK    3  A    between atoms: C_18  and  C_19
REMARK    4  A    between atoms: C_18  and  C_21
REMARK    5  A    between atoms: C_19  and  O_20
REMARK                            x       y       z     vdW  Elec       q    Type
REMARK                         _______ _______ _______ _____ _____    ______ ____
ROOT
ATOM      1  O   UNL     1      -0.445  13.984  23.427  0.00  0.00    +0.000 OA
ATOM      2  C   UNL     1      -0.746  13.824  22.246  0.00  0.00    +0.000 C 
ATOM      3  N   UNL     1      -0.932  12.546  21.697  0.00  0.00    +0.000 N 
ATOM      4  C   UNL     1      -0.761  11.381  22.553  0.00  0.00    +0.000 C 
ATOM      5  C   UNL     1      -0.123  10.227  21.788  0.00  0.00    +0.000 C 
ATOM      6  C   UNL     1      -0.783   9.963  20.428  0.00  0.00    +0.000 C 
ATOM      7  C   UNL     1      -1.048  11.229  19.549  0.00  0.00    +0.000 C 
ATOM      8  C   UNL     1      -1.701  12.287  20.481  0.00  0.00    +0.000 C 
ENDROOT
BRANCH   2   9
ATOM      9  C   UNL     1      -0.921  14.988  21.361  0.00  0.00    +0.000 A 
ATOM     10  C   UNL     1      -1.973  15.877  21.421  0.00  0.00    +0.000 A 
ATOM     11  N   UNL     1      -1.757  16.773  20.417  0.00  0.00    +0.000 N 
ATOM     12  C   UNL     1      -0.598  16.428  19.759  0.00  0.00    +0.000 A 
ATOM     13  N   UNL     1      -0.048  15.379  20.350  0.00  0.00    +0.000 NA
ATOM     14  H   UNL     1      -2.342  17.562  20.185  0.00  0.00    +0.000 HD
BRANCH  12  15
ATOM     15  C   UNL     1      -0.098  17.151  18.586  0.00  0.00    +0.000 A 
ATOM     16  C   UNL     1      -0.964  17.940  17.817  0.00  0.00    +0.000 A 
ATOM     17  C   UNL     1      -0.493  18.631  16.695  0.00  0.00    +0.000 A 
ATOM     18  C   UNL     1       0.852  18.552  16.335  0.00  0.00    +0.000 A 
ATOM     19  C   UNL     1       1.727  17.779  17.095  0.00  0.00    +0.000 A 
ATOM     20  C   UNL     1       1.255  17.083  18.212  0.00  0.00    +0.000 A 
ENDBRANCH  12  15
ENDBRANCH   2   9
BRANCH   7  21
ATOM     21  C   UNL     1      -1.978  10.914  18.344  0.00  0.00    +0.000 A 
ATOM     22  C   UNL     1      -3.241  11.527  18.207  0.00  0.00    +0.000 A 
ATOM     23  C   UNL     1      -4.061  11.278  17.103  0.00  0.00    +0.000 A 
ATOM     24  C   UNL     1      -3.629  10.427  16.095  0.00  0.00    +0.000 A 
ATOM     25  C   UNL     1      -2.378   9.829  16.189  0.00  0.00    +0.000 A 
ATOM     26  C   UNL     1      -1.560  10.071  17.298  0.00  0.00    +0.000 A 
ENDBRANCH   7  21
BRANCH   7  27
ATOM     27  C   UNL     1       0.273  11.776  18.934  0.00  0.00    +0.000 C 
BRANCH  27  28
ATOM     28  O   UNL     1       0.142  13.020  18.257  0.00  0.00    +0.000 OA
ATOM     29  H   UNL     1       0.945  13.126  17.714  0.00  0.00    +0.000 HD
ENDBRANCH  27  28
ENDBRANCH   7  27
TORSDOF 5
ENDMDL
MODEL 4
REMARK VINA RESULT:      -7.5      7.283     12.023
REMARK  Name = 
REMARK  5 active torsions:
REMARK  status: ('A' for Active; 'I' for Inactive)
REMARK    1  A    between atoms: C_2  and  C_3
REMARK    2  A    between atoms: C_6  and  C_7
REMARK    3  A    between atoms: C_18  and  C_19
REMARK    4  A    between atoms: C_18  and  C_21
REMARK    5  A    between atoms: C_19  and  O_20
REMARK                            x       y       z     vdW  Elec       q    Type
REMARK                         _______ _______ _______ _____ _____    ______ ____
ROOT
ATOM      1  O   UNL     1      -0.087  10.509  23.585  0.00  0.00    +0.000 OA
ATOM      2  C   UNL     1      -0.713  10.944  22.621  0.00  0.00    +0.000 C 
ATOM      3  N   UNL     1      -0.552  10.408  21.334  0.00  0.00    +0.000 N 
ATOM      4  C   UNL     1       0.383   9.309  21.140  0.00  0.00    +0.000 C 
ATOM      5  C   UNL     1       1.099   9.429  19.800  0.00  0.00    +0.000 C 
ATOM      6  C   UNL     1       0.150   9.710  18.628  0.00  0.00    +0.000 C 
ATOM      7  C   UNL     1      -0.914  10.830  18.874  0.00  0.00    +0.000 C 
ATOM      8  C   UNL     1      -1.542  10.547  20.266  0.00  0.00    +0.000 C 
ENDROOT
BRANCH   2   9
ATOM      9  C   UNL     1      -1.662  12.056  22.793  0.00  0.00    +0.000 A 
ATOM     10  C   UNL     1      -1.331  13.393  22.746  0.00  0.00    +0.000 A 
ATOM     11  N   UNL     1      -2.492  14.069  22.978  0.00  0.00    +0.000 N 
ATOM     12  C   UNL     1      -3.504  13.155  23.166  0.00  0.00    +0.000 A 
ATOM     13  N   UNL     1      -3.032  11.930  23.006  0.00  0.00    +0.000 NA
ATOM     14  H   UNL     1      -2.603  15.072  23.008  0.00  0.00    +0.000 HD
BRANCH  12  15
ATOM     15  C   UNL     1      -4.880  13.543  23.494  0.00  0.00    +0.000 A 
ATOM     16  C   UNL     1      -5.838  12.567  23.800  0.00  0.00    +0.000 A 
ATOM     17  C   UNL     1      -7.153  12.931  24.111  0.00  0.00    +0.000 A 
ATOM     18  C   UNL     1      -7.523  14.275  24.133  0.00  0.00    +0.000 A 
ATOM     19  C   UNL     1      -6.580  15.257  23.840  0.00  0.00    +0.000 A 
ATOM     20  C   UNL     1      -5.268  14.893  23.521  0.00  0.00    +0.000 A 
ENDBRANCH  12  15
ENDBRANCH   2   9
BRANCH   7  21
ATOM     21  C   UNL     1      -2.011  10.840  17.772  0.00  0.00    +0.000 A 
ATOM     22  C   UNL     1      -1.920  10.014  16.632  0.00  0.00    +0.000 A 
ATOM     23  C   UNL     1      -2.924   9.990  15.662  0.00  0.00    +0.000 A 
ATOM     24  C   UNL     1      -4.058  10.776  15.816  0.00  0.00    +0.000 A 
ATOM     25  C   UNL     1      -4.189  11.582  16.941  0.00  0.00    +0.000 A 
ATOM     26  C   UNL     1      -3.179  11.612  17.910  0.00  0.00    +0.000 A 
ENDBRANCH   7  21
BRANCH   7  27
ATOM     27  C   UNL     1      -0.263  12.243  18.838  0.00  0.00    +0.000 C 
BRANCH  27  28
ATOM     28  O   UNL     1       0.888  12.345  18.010  0.00  0.00    +0.000 OA
ATOM     29  H   UNL     1       1.644  12.044  18.548  0.00  0.00    +0.000 HD
ENDBRANCH  27  28
ENDBRANCH   7  27
TORSDOF 5
ENDMDL
MODEL 5
REMARK VINA RESULT:      -7.5      5.094      8.254
REMARK  Name = 
REMARK  5 active torsions:
REMARK  status: ('A' for Active; 'I' for Inactive)
REMARK    1  A    between atoms: C_2  and  C_3
REMARK    2  A    between atoms: C_6  and  C_7
REMARK    3  A    between atoms: C_18  and  C_19
REMARK    4  A    between atoms: C_18  and  C_21
REMARK    5  A    between atoms: C_19  and  O_20
REMARK                            x       y       z     vdW  Elec       q    Type
REMARK                         _______ _______ _______ _____ _____    ______ ____
ROOT
ATOM      1  O   UNL     1      -1.711  10.726  23.296  0.00  0.00    +0.000 OA
ATOM      2  C   UNL     1      -0.868  10.965  22.434  0.00  0.00    +0.000 C 
ATOM      3  N   UNL     1      -0.845  12.185  21.742  0.00  0.00    +0.000 N 
ATOM      4  C   UNL     1      -1.848  13.192  22.056  0.00  0.00    +0.000 C 
ATOM      5  C   UNL     1      -2.280  13.946  20.803  0.00  0.00    +0.000 C 
ATOM      6  C   UNL     1      -1.100  14.425  19.947  0.00  0.00    +0.000 C 
ATOM      7  C   UNL     1       0.022  13.366  19.688  0.00  0.00    +0.000 C 
ATOM      8  C   UNL     1       0.338  12.711  21.061  0.00  0.00    +0.000 C 
ENDROOT
BRANCH   2   9
ATOM      9  C   UNL     1       0.154   9.961  22.098  0.00  0.00    +0.000 A 
ATOM     10  C   UNL     1       1.191   9.579  22.923  0.00  0.00    +0.000 A 
ATOM     11  N   UNL     1       1.904   8.657  22.217  0.00  0.00    +0.000 N 
ATOM     12  C   UNL     1       1.313   8.489  20.986  0.00  0.00    +0.000 A 
ATOM     13  N   UNL     1       0.220   9.232  20.914  0.00  0.00    +0.000 NA
ATOM     14  H   UNL     1       2.731   8.171  22.535  0.00  0.00    +0.000 HD
BRANCH  12  15
ATOM     15  C   UNL     1       1.858   7.606  19.950  0.00  0.00    +0.000 A 
ATOM     16  C   UNL     1       2.259   8.127  18.713  0.00  0.00    +0.000 A 
ATOM     17  C   UNL     1       2.778   7.289  17.720  0.00  0.00    +0.000 A 
ATOM     18  C   UNL     1       2.915   5.921  17.957  0.00  0.00    +0.000 A 
ATOM     19  C   UNL     1       2.530   5.390  19.185  0.00  0.00    +0.000 A 
ATOM     20  C   UNL     1       2.004   6.226  20.174  0.00  0.00    +0.000 A 
ENDBRANCH  12  15
ENDBRANCH   2   9
BRANCH   7  21
ATOM     21  C   UNL     1       1.300  14.011  19.083  0.00  0.00    +0.000 A 
ATOM     22  C   UNL     1       2.393  13.226  18.661  0.00  0.00    +0.000 A 
ATOM     23  C   UNL     1       3.525  13.799  18.077  0.00  0.00    +0.000 A 
ATOM     24  C   UNL     1       3.586  15.172  17.879  0.00  0.00    +0.000 A 
ATOM     25  C   UNL     1       2.513  15.970  18.260  0.00  0.00    +0.000 A 
ATOM     26  C   UNL     1       1.381  15.397  18.852  0.00  0.00    +0.000 A 
ENDBRANCH   7  21
BRANCH   7  27
ATOM     27  C   UNL     1      -0.442  12.294  18.659  0.00  0.00    +0.000 C 
BRANCH  27  28
ATOM     28  O   UNL     1      -1.057  12.822  17.491  0.00  0.00    +0.000 OA
ATOM     29  H   UNL     1      -1.067  13.791  17.596  0.00  0.00    +0.000 HD
ENDBRANCH  27  28
ENDBRANCH   7  27
TORSDOF 5
ENDMDL
MODEL 6
REMARK VINA RESULT:      -7.4      2.202      7.612
REMARK  Name = 
REMARK  5 active torsions:
REMARK  status: ('A' for Active; 'I' for Inactive)
REMARK    1  A    between atoms: C_2  and  C_3
REMARK    2  A    between atoms: C_6  and  C_7
REMARK    3  A    between atoms: C_18  and  C_19
REMARK    4  A    between atoms: C_18  and  C_21
REMARK    5  A    between atoms: C_19  and  O_20
REMARK                            x       y       z     vdW  Elec       q    Type
REMARK                         _______ _______ _______ _____ _____    ______ ____
ROOT
ATOM      1  O   UNL     1       0.603   3.525  20.879  0.00  0.00    +0.000 OA
ATOM      2  C   UNL     1       1.424   4.129  20.192  0.00  0.00    +0.000 C 
ATOM      3  N   UNL     1       2.240   3.467  19.262  0.00  0.00    +0.000 N 
ATOM      4  C   UNL     1       2.109   2.025  19.112  0.00  0.00    +0.000 C 
ATOM      5  C   UNL     1       3.463   1.376  18.853  0.00  0.00    +0.000 C 
ATOM      6  C   UNL     1       4.279   2.087  17.765  0.00  0.00    +0.000 C 
ATOM      7  C   UNL     1       4.341   3.646  17.879  0.00  0.00    +0.000 C 
ATOM      8  C   UNL     1       2.887   4.131  18.130  0.00  0.00    +0.000 C 
ENDROOT
BRANCH   2   9
ATOM      9  C   UNL     1       1.575   5.587  20.329  0.00  0.00    +0.000 A 
ATOM     10  C   UNL     1       2.679   6.310  19.928  0.00  0.00    +0.000 A 
ATOM     11  N   UNL     1       2.412   7.605  20.261  0.00  0.00    +0.000 N 
ATOM     12  C   UNL     1       1.173   7.662  20.857  0.00  0.00    +0.000 A 
ATOM     13  N   UNL     1       0.626   6.457  20.860  0.00  0.00    +0.000 NA
ATOM     14  H   UNL     1       3.016   8.399  20.101  0.00  0.00    +0.000 HD
BRANCH  12  15
ATOM     15  C   UNL     1       0.598   8.901  21.391  0.00  0.00    +0.000 A 
ATOM     16  C   UNL     1       0.771  10.114  20.710  0.00  0.00    +0.000 A 
ATOM     17  C   UNL     1       0.227  11.299  21.216  0.00  0.00    +0.000 A 
ATOM     18  C   UNL     1      -0.508  11.285  22.401  0.00  0.00    +0.000 A 
ATOM     19  C   UNL     1      -0.696  10.087  23.084  0.00  0.00    +0.000 A 
ATOM     20  C   UNL     1      -0.145   8.903  22.583  0.00  0.00    +0.000 A 
ENDBRANCH  12  15
ENDBRANCH   2   9
BRANCH   7  21
ATOM     21  C   UNL     1       4.919   4.299  16.592  0.00  0.00    +0.000 A 
ATOM     22  C   UNL     1       4.849   5.691  16.375  0.00  0.00    +0.000 A 
ATOM     23  C   UNL     1       5.406   6.285  15.240  0.00  0.00    +0.000 A 
ATOM     24  C   UNL     1       6.068   5.506  14.301  0.00  0.00    +0.000 A 
ATOM     25  C   UNL     1       6.176   4.134  14.500  0.00  0.00    +0.000 A 
ATOM     26  C   UNL     1       5.612   3.537  15.633  0.00  0.00    +0.000 A 
ENDBRANCH   7  21
BRANCH   7  27
ATOM     27  C   UNL     1       5.280   4.091  19.039  0.00  0.00    +0.000 C 
BRANCH  27  28
ATOM     28  O   UNL     1       6.661   4.124  18.704  0.00  0.00    +0.000 OA
ATOM     29  H   UNL     1       6.909   5.065  18.643  0.00  0.00    +0.000 HD
ENDBRANCH  27  28
ENDBRANCH   7  27
TORSDOF 5
ENDMDL
MODEL 7
REMARK VINA RESULT:      -7.4      2.199      7.555
REMARK  Name = 
REMARK  5 active torsions:
REMARK  status: ('A' for Active; 'I' for Inactive)
REMARK    1  A    between atoms: C_2  and  C_3
REMARK    2  A    between atoms: C_6  and  C_7
REMARK    3  A    between atoms: C_18  and  C_19
REMARK    4  A    between atoms: C_18  and  C_21
REMARK    5  A    between atoms: C_19  and  O_20
REMARK                            x       y       z     vdW  Elec       q    Type
REMARK                         _______ _______ _______ _____ _____    ______ ____
ROOT
ATOM      1  O   UNL     1       0.561   3.513  20.821  0.00  0.00    +0.000 OA
ATOM      2  C   UNL     1       1.403   4.117  20.159  0.00  0.00    +0.000 C 
ATOM      3  N   UNL     1       2.229   3.458  19.236  0.00  0.00    +0.000 N 
ATOM      4  C   UNL     1       2.084   2.020  19.062  0.00  0.00    +0.000 C 
ATOM      5  C   UNL     1       3.435   1.357  18.821  0.00  0.00    +0.000 C 
ATOM      6  C   UNL     1       4.282   2.074  17.761  0.00  0.00    +0.000 C 
ATOM      7  C   UNL     1       4.361   3.630  17.898  0.00  0.00    +0.000 C 
ATOM      8  C   UNL     1       2.908   4.129  18.128  0.00  0.00    +0.000 C 
ENDROOT
BRANCH   2   9
ATOM      9  C   UNL     1       1.570   5.570  20.320  0.00  0.00    +0.000 A 
ATOM     10  C   UNL     1       2.703   6.280  19.983  0.00  0.00    +0.000 A 
ATOM     11  N   UNL     1       2.440   7.575  20.318  0.00  0.00    +0.000 N 
ATOM     12  C   UNL     1       1.174   7.645  20.852  0.00  0.00    +0.000 A 
ATOM     13  N   UNL     1       0.609   6.449  20.814  0.00  0.00    +0.000 NA
ATOM     14  H   UNL     1       3.063   8.361  20.198  0.00  0.00    +0.000 HD
BRANCH  12  15
ATOM     15  C   UNL     1       0.592   8.887  21.371  0.00  0.00    +0.000 A 
ATOM     16  C   UNL     1      -0.058   8.903  22.612  0.00  0.00    +0.000 A 
ATOM     17  C   UNL     1      -0.617  10.085  23.111  0.00  0.00    +0.000 A 
ATOM     18  C   UNL     1      -0.522  11.269  22.380  0.00  0.00    +0.000 A 
ATOM     19  C   UNL     1       0.128  11.272  21.149  0.00  0.00    +0.000 A 
ATOM     20  C   UNL     1       0.680  10.089  20.647  0.00  0.00    +0.000 A 
ENDBRANCH  12  15
ENDBRANCH   2   9
BRANCH   7  21
ATOM     21  C   UNL     1       4.973   4.294  16.633  0.00  0.00    +0.000 A 
ATOM     22  C   UNL     1       5.612   3.529  15.635  0.00  0.00    +0.000 A 
ATOM     23  C   UNL     1       6.126   4.118  14.477  0.00  0.00    +0.000 A 
ATOM     24  C   UNL     1       5.995   5.485  14.276  0.00  0.00    +0.000 A 
ATOM     25  C   UNL     1       5.347   6.262  15.229  0.00  0.00    +0.000 A 
ATOM     26  C   UNL     1       4.839   5.674  16.393  0.00  0.00    +0.000 A 
ENDBRANCH   7  21
BRANCH   7  27
ATOM     27  C   UNL     1       5.281   4.045  19.084  0.00  0.00    +0.000 C 
BRANCH  27  28
ATOM     28  O   UNL     1       6.658   4.167  18.751  0.00  0.00    +0.000 OA
ATOM     29  H   UNL     1       7.158   3.982  19.567  0.00  0.00    +0.000 HD
ENDBRANCH  27  28
ENDBRANCH   7  27
TORSDOF 5
ENDMDL
MODEL 8
REMARK VINA RESULT:      -7.3      3.974      5.400
REMARK  Name = 
REMARK  5 active torsions:
REMARK  status: ('A' for Active; 'I' for Inactive)
REMARK    1  A    between atoms: C_2  and  C_3
REMARK    2  A    between atoms: C_6  and  C_7
REMARK    3  A    between atoms: C_18  and  C_19
REMARK    4  A    between atoms: C_18  and  C_21
REMARK    5  A    between atoms: C_19  and  O_20
REMARK                            x       y       z     vdW  Elec       q    Type
REMARK                         _______ _______ _______ _____ _____    ______ ____
ROOT
ATOM      1  O   UNL     1       8.112   4.610  18.551  0.00  0.00    +0.000 OA
ATOM      2  C   UNL     1       7.266   5.501  18.521  0.00  0.00    +0.000 C 
ATOM      3  N   UNL     1       5.909   5.239  18.764  0.00  0.00    +0.000 N 
ATOM      4  C   UNL     1       5.496   3.874  19.058  0.00  0.00    +0.000 C 
ATOM      5  C   UNL     1       4.136   3.568  18.442  0.00  0.00    +0.000 C 
ATOM      6  C   UNL     1       3.088   4.654  18.716  0.00  0.00    +0.000 C 
ATOM      7  C   UNL     1       3.564   6.127  18.487  0.00  0.00    +0.000 C 
ATOM      8  C   UNL     1       4.947   6.258  19.183  0.00  0.00    +0.000 C 
ENDROOT
BRANCH   2   9
ATOM      9  C   UNL     1       7.660   6.888  18.224  0.00  0.00    +0.000 A 
ATOM     10  C   UNL     1       7.372   7.560  17.055  0.00  0.00    +0.000 A 
ATOM     11  N   UNL     1       7.938   8.792  17.189  0.00  0.00    +0.000 N 
ATOM     12  C   UNL     1       8.562   8.861  18.414  0.00  0.00    +0.000 A 
ATOM     13  N   UNL     1       8.359   7.735  19.079  0.00  0.00    +0.000 NA
ATOM     14  H   UNL     1       7.911   9.538  16.509  0.00  0.00    +0.000 HD
BRANCH  12  15
ATOM     15  C   UNL     1       9.322  10.034  18.860  0.00  0.00    +0.000 A 
ATOM     16  C   UNL     1      10.029  10.814  17.936  0.00  0.00    +0.000 A 
ATOM     17  C   UNL     1      10.758  11.932  18.356  0.00  0.00    +0.000 A 
ATOM     18  C   UNL     1      10.778  12.291  19.704  0.00  0.00    +0.000 A 
ATOM     19  C   UNL     1      10.072  11.531  20.633  0.00  0.00    +0.000 A 
ATOM     20  C   UNL     1       9.350  10.409  20.214  0.00  0.00    +0.000 A 
ENDBRANCH  12  15
ENDBRANCH   2   9
BRANCH   7  21
ATOM     21  C   UNL     1       2.559   7.159  19.070  0.00  0.00    +0.000 A 
ATOM     22  C   UNL     1       2.053   7.038  20.381  0.00  0.00    +0.000 A 
ATOM     23  C   UNL     1       1.183   7.988  20.922  0.00  0.00    +0.000 A 
ATOM     24  C   UNL     1       0.811   9.096  20.173  0.00  0.00    +0.000 A 
ATOM     25  C   UNL     1       1.313   9.257  18.887  0.00  0.00    +0.000 A 
ATOM     26  C   UNL     1       2.179   8.302  18.342  0.00  0.00    +0.000 A 
ENDBRANCH   7  21
BRANCH   7  27
ATOM     27  C   UNL     1       3.676   6.453  16.969  0.00  0.00    +0.000 C 
BRANCH  27  28
ATOM     28  O   UNL     1       4.616   5.656  16.259  0.00  0.00    +0.000 OA
ATOM     29  H   UNL     1       4.719   4.831  16.768  0.00  0.00    +0.000 HD
ENDBRANCH  27  28
ENDBRANCH   7  27
TORSDOF 5
ENDMDL
MODEL 9
REMARK VINA RESULT:      -7.3      4.112      6.679
REMARK  Name = 
REMARK  5 active torsions:
REMARK  status: ('A' for Active; 'I' for Inactive)
REMARK    1  A    between atoms: C_2  and  C_3
REMARK    2  A    between atoms: C_6  and  C_7
REMARK    3  A    between atoms: C_18  and  C_19
REMARK    4  A    between atoms: C_18  and  C_21
REMARK    5  A    between atoms: C_19  and  O_20
REMARK                            x       y       z     vdW  Elec       q    Type
REMARK                         _______ _______ _______ _____ _____    ______ ____
ROOT
ATOM      1  O   UNL     1       0.231   8.461  21.619  0.00  0.00    +0.000 OA
ATOM      2  C   UNL     1       0.627   9.258  20.771  0.00  0.00    +0.000 C 
ATOM      3  N   UNL     1       0.383  10.635  20.881  0.00  0.00    +0.000 N 
ATOM      4  C   UNL     1      -0.363  11.130  22.030  0.00  0.00    +0.000 C 
ATOM      5  C   UNL     1      -1.271  12.289  21.637  0.00  0.00    +0.000 C 
ATOM      6  C   UNL     1      -0.562  13.357  20.795  0.00  0.00    +0.000 C 
ATOM      7  C   UNL     1       0.313  12.816  19.615  0.00  0.00    +0.000 C 
ATOM      8  C   UNL     1       1.171  11.658  20.194  0.00  0.00    +0.000 C 
ENDROOT
BRANCH   2   9
ATOM      9  C   UNL     1       1.380   8.781  19.600  0.00  0.00    +0.000 A 
ATOM     10  C   UNL     1       1.435   9.420  18.379  0.00  0.00    +0.000 A 
ATOM     11  N   UNL     1       2.212   8.632  17.585  0.00  0.00    +0.000 N 
ATOM     12  C   UNL     1       2.614   7.533  18.310  0.00  0.00    +0.000 A 
ATOM     13  N   UNL     1       2.164   7.631  19.550  0.00  0.00    +0.000 NA
ATOM     14  H   UNL     1       2.458   8.813  16.622  0.00  0.00    +0.000 HD
BRANCH  12  15
ATOM     15  C   UNL     1       3.420   6.449  17.739  0.00  0.00    +0.000 A 
ATOM     16  C   UNL     1       3.009   5.116  17.868  0.00  0.00    +0.000 A 
ATOM     17  C   UNL     1       3.775   4.077  17.327  0.00  0.00    +0.000 A 
ATOM     18  C   UNL     1       4.955   4.360  16.640  0.00  0.00    +0.000 A 
ATOM     19  C   UNL     1       5.372   5.680  16.496  0.00  0.00    +0.000 A 
ATOM     20  C   UNL     1       4.611   6.718  17.043  0.00  0.00    +0.000 A 
ENDBRANCH  12  15
ENDBRANCH   2   9
BRANCH   7  21
ATOM     21  C   UNL     1       1.223  13.923  19.013  0.00  0.00    +0.000 A 
ATOM     22  C   UNL     1       0.847  15.282  19.039  0.00  0.00    +0.000 A 
ATOM     23  C   UNL     1       1.682  16.284  18.537  0.00  0.00    +0.000 A 
ATOM     24  C   UNL     1       2.926  15.955  18.015  0.00  0.00    +0.000 A 
ATOM     25  C   UNL     1       3.335  14.626  18.000  0.00  0.00    +0.000 A 
ATOM     26  C   UNL     1       2.496  13.622  18.496  0.00  0.00    +0.000 A 
ENDBRANCH   7  21
BRANCH   7  27
ATOM     27  C   UNL     1      -0.575  12.311  18.441  0.00  0.00    +0.000 C 
BRANCH  27  28
ATOM     28  O   UNL     1      -1.851  12.933  18.352  0.00  0.00    +0.000 OA
ATOM     29  H   UNL     1      -1.716  13.777  17.883  0.00  0.00    +0.000 HD
ENDBRANCH  27  28
ENDBRANCH   7  27
TORSDOF 5
ENDMDL
