MODEL 1
REMARK VINA RESULT:      -9.3      0.000      0.000
REMARK  Name = 
REMARK  6 active torsions:
REMARK  status: ('A' for Active; 'I' for Inactive)
REMARK    1  A    between atoms: C_1  and  C_2
REMARK    2  A    between atoms: C_5  and  S_6
REMARK    3  A    between atoms: S_6  and  N_9
REMARK    4  A    between atoms: N_9  and  C_10
REMARK    5  A    between atoms: C_18  and  C_19
REMARK    6  A    between atoms: N_21  and  C_22
REMARK                            x       y       z     vdW  Elec       q    Type
REMARK                         _______ _______ _______ _____ _____    ______ ____
ROOT
ATOM      1  C   UNL     1       2.399   3.216  20.007  0.00  0.00    +0.000 C 
ATOM      2  C   UNL     1       3.290   4.048  19.128  0.00  0.00    +0.000 A 
ATOM      3  C   UNL     1       4.179   3.369  18.267  0.00  0.00    +0.000 A 
ATOM      4  C   UNL     1       5.005   4.061  17.375  0.00  0.00    +0.000 A 
ATOM      5  C   UNL     1       4.957   5.452  17.337  0.00  0.00    +0.000 A 
ATOM      6  C   UNL     1       4.119   6.149  18.211  0.00  0.00    +0.000 A 
ATOM      7  C   UNL     1       3.268   5.459  19.097  0.00  0.00    +0.000 A 
ENDROOT
BRANCH   7   8
ATOM      8  C   UNL     1       2.323   6.333  19.859  0.00  0.00    +0.000 C 
ATOM      9  O   UNL     1       1.627   5.787  20.713  0.00  0.00    +0.000 OA
ATOM     10  N   UNL     1       2.246   7.661  19.497  0.00  0.00    +0.000 N 
ATOM     11  H   UNL     1       2.740   7.963  18.665  0.00  0.00    +0.000 HD
BRANCH  10  12
ATOM     12  C   UNL     1       1.357   8.624  20.046  0.00  0.00    +0.000 A 
ATOM     13  C   UNL     1       0.910   8.615  21.372  0.00  0.00    +0.000 A 
ATOM     14  C   UNL     1      -0.016   9.569  21.813  0.00  0.00    +0.000 A 
ATOM     15  C   UNL     1      -0.488  10.534  20.932  0.00  0.00    +0.000 A 
ATOM     16  F   UNL     1      -1.394  11.426  21.354  0.00  0.00    +0.000 F 
ATOM     17  C   UNL     1      -0.038  10.583  19.618  0.00  0.00    +0.000 A 
ATOM     18  C   UNL     1       0.885   9.634  19.192  0.00  0.00    +0.000 A 
ATOM     19  F   UNL     1       1.319   9.678  17.923  0.00  0.00    +0.000 F 
ENDBRANCH  10  12
ENDBRANCH   7   8
BRANCH   5  20
ATOM     20  S   UNL     1       5.997   6.355  16.208  0.00  0.00    +0.000 S 
ATOM     21  O   UNL     1       5.163   6.868  15.146  0.00  0.00    +0.000 OA
ATOM     22  O   UNL     1       6.816   7.244  17.011  0.00  0.00    +0.000 OA
BRANCH  20  23
ATOM     23  N   UNL     1       7.053   5.183  15.582  0.00  0.00    +0.000 N 
ATOM     24  H   UNL     1       7.237   4.460  16.275  0.00  0.00    +0.000 HD
BRANCH  23  25
ATOM     25  C   UNL     1       6.796   4.706  14.257  0.00  0.00    +0.000 A 
ATOM     26  C   UNL     1       5.731   3.842  14.028  0.00  0.00    +0.000 A 
ATOM     27  C   UNL     1       5.516   3.325  12.745  0.00  0.00    +0.000 A 
ATOM     28  C   UNL     1       6.388   3.650  11.703  0.00  0.00    +0.000 A 
ATOM     29  C   UNL     1       7.464   4.507  11.933  0.00  0.00    +0.000 A 
ATOM     30  C   UNL     1       7.653   5.039  13.204  0.00  0.00    +0.000 A 
ATOM     31  F   UNL     1       8.686   5.868  13.420  0.00  0.00    +0.000 F 
ENDBRANCH  23  25
ENDBRANCH  20  23
ENDBRANCH   5  20
TORSDOF 5
ENDMDL
MODEL 2
REMARK VINA RESULT:      -9.1      1.685      2.211
REMARK  Name = 
REMARK  6 active torsions:
REMARK  status: ('A' for Active; 'I' for Inactive)
REMARK    1  A    between atoms: C_1  and  C_2
REMARK    2  A    between atoms: C_5  and  S_6
REMARK    3  A    between atoms: S_6  and  N_9
REMARK    4  A    between atoms: N_9  and  C_10
REMARK    5  A    between atoms: C_18  and  C_19
REMARK    6  A    between atoms: N_21  and  C_22
REMARK                            x       y       z     vdW  Elec       q    Type
REMARK                         _______ _______ _______ _____ _____    ______ ____
ROOT
ATOM      1  C   UNL     1       2.169   3.728  20.169  0.00  0.00    +0.000 C 
ATOM      2  C   UNL     1       3.395   4.234  19.464  0.00  0.00    +0.000 A 
ATOM      3  C   UNL     1       4.513   3.375  19.393  0.00  0.00    +0.000 A 
ATOM      4  C   UNL     1       5.676   3.741  18.709  0.00  0.00    +0.000 A 
ATOM      5  C   UNL     1       5.740   4.985  18.086  0.00  0.00    +0.000 A 
ATOM      6  C   UNL     1       4.665   5.873  18.180  0.00  0.00    +0.000 A 
ATOM      7  C   UNL     1       3.482   5.503  18.849  0.00  0.00    +0.000 A 
ENDROOT
BRANCH   7   8
ATOM      8  C   UNL     1       2.367   6.494  18.736  0.00  0.00    +0.000 C 
ATOM      9  O   UNL     1       1.545   6.305  17.840  0.00  0.00    +0.000 OA
ATOM     10  N   UNL     1       2.386   7.580  19.585  0.00  0.00    +0.000 N 
ATOM     11  H   UNL     1       3.204   7.722  20.166  0.00  0.00    +0.000 HD
BRANCH  10  12
ATOM     12  C   UNL     1       1.464   8.660  19.576  0.00  0.00    +0.000 A 
ATOM     13  C   UNL     1       1.229   9.485  18.470  0.00  0.00    +0.000 A 
ATOM     14  C   UNL     1       0.347  10.568  18.569  0.00  0.00    +0.000 A 
ATOM     15  C   UNL     1      -0.305  10.822  19.769  0.00  0.00    +0.000 A 
ATOM     16  F   UNL     1      -1.127  11.876  19.863  0.00  0.00    +0.000 F 
ATOM     17  C   UNL     1      -0.111  10.002  20.874  0.00  0.00    +0.000 A 
ATOM     18  C   UNL     1       0.763   8.926  20.763  0.00  0.00    +0.000 A 
ATOM     19  F   UNL     1       0.954   8.135  21.830  0.00  0.00    +0.000 F 
ENDBRANCH  10  12
ENDBRANCH   7   8
BRANCH   5  20
ATOM     20  S   UNL     1       7.209   5.474  17.206  0.00  0.00    +0.000 S 
ATOM     21  O   UNL     1       7.850   6.527  17.959  0.00  0.00    +0.000 OA
ATOM     22  O   UNL     1       7.922   4.256  16.869  0.00  0.00    +0.000 OA
BRANCH  20  23
ATOM     23  N   UNL     1       6.630   6.100  15.738  0.00  0.00    +0.000 N 
ATOM     24  H   UNL     1       7.010   7.030  15.572  0.00  0.00    +0.000 HD
BRANCH  23  25
ATOM     25  C   UNL     1       6.632   5.228  14.604  0.00  0.00    +0.000 A 
ATOM     26  C   UNL     1       7.624   5.352  13.638  0.00  0.00    +0.000 A 
ATOM     27  C   UNL     1       7.591   4.542  12.497  0.00  0.00    +0.000 A 
ATOM     28  C   UNL     1       6.547   3.633  12.311  0.00  0.00    +0.000 A 
ATOM     29  C   UNL     1       5.545   3.515  13.273  0.00  0.00    +0.000 A 
ATOM     30  C   UNL     1       5.600   4.304  14.418  0.00  0.00    +0.000 A 
ATOM     31  F   UNL     1       4.636   4.182  15.343  0.00  0.00    +0.000 F 
ENDBRANCH  23  25
ENDBRANCH  20  23
ENDBRANCH   5  20
TORSDOF 5
ENDMDL
MODEL 3
REMARK VINA RESULT:      -9.0      1.064      1.204
REMARK  Name = 
REMARK  6 active torsions:
REMARK  status: ('A' for Active; 'I' for Inactive)
REMARK    1  A    between atoms: C_1  and  C_2
REMARK    2  A    between atoms: C_5  and  S_6
REMARK    3  A    between atoms: S_6  and  N_9
REMARK    4  A    between atoms: N_9  and  C_10
REMARK    5  A    between atoms: C_18  and  C_19
REMARK    6  A    between atoms: N_21  and  C_22
REMARK                            x       y       z     vdW  Elec       q    Type
REMARK                         _______ _______ _______ _____ _____    ______ ____
ROOT
ATOM      1  C   UNL     1       1.524   3.039  18.741  0.00  0.00    +0.000 C 
ATOM      2  C   UNL     1       2.859   3.618  18.367  0.00  0.00    +0.000 A 
ATOM      3  C   UNL     1       3.716   2.829  17.570  0.00  0.00    +0.000 A 
ATOM      4  C   UNL     1       4.953   3.309  17.129  0.00  0.00    +0.000 A 
ATOM      5  C   UNL     1       5.356   4.593  17.487  0.00  0.00    +0.000 A 
ATOM      6  C   UNL     1       4.546   5.377  18.312  0.00  0.00    +0.000 A 
ATOM      7  C   UNL     1       3.289   4.909  18.743  0.00  0.00    +0.000 A 
ENDROOT
BRANCH   7   8
ATOM      8  C   UNL     1       2.474   5.916  19.491  0.00  0.00    +0.000 C 
ATOM      9  O   UNL     1       1.774   5.492  20.409  0.00  0.00    +0.000 OA
ATOM     10  N   UNL     1       2.506   7.222  19.050  0.00  0.00    +0.000 N 
ATOM     11  H   UNL     1       2.983   7.424  18.179  0.00  0.00    +0.000 HD
BRANCH  10  12
ATOM     12  C   UNL     1       1.745   8.298  19.577  0.00  0.00    +0.000 A 
ATOM     13  C   UNL     1       1.405   8.433  20.928  0.00  0.00    +0.000 A 
ATOM     14  C   UNL     1       0.597   9.496  21.352  0.00  0.00    +0.000 A 
ATOM     15  C   UNL     1       0.136  10.426  20.429  0.00  0.00    +0.000 A 
ATOM     16  F   UNL     1      -0.658  11.424  20.838  0.00  0.00    +0.000 F 
ATOM     17  C   UNL     1       0.483  10.331  19.087  0.00  0.00    +0.000 A 
ATOM     18  C   UNL     1       1.290   9.275  18.678  0.00  0.00    +0.000 A 
ATOM     19  F   UNL     1       1.623   9.181  17.381  0.00  0.00    +0.000 F 
ENDBRANCH  10  12
ENDBRANCH   7   8
BRANCH   5  20
ATOM     20  S   UNL     1       6.925   5.228  16.935  0.00  0.00    +0.000 S 
ATOM     21  O   UNL     1       7.360   6.228  17.882  0.00  0.00    +0.000 OA
ATOM     22  O   UNL     1       7.758   4.081  16.626  0.00  0.00    +0.000 OA
BRANCH  20  23
ATOM     23  N   UNL     1       6.579   5.970  15.448  0.00  0.00    +0.000 N 
ATOM     24  H   UNL     1       7.178   6.780  15.304  0.00  0.00    +0.000 HD
BRANCH  23  25
ATOM     25  C   UNL     1       6.418   5.119  14.309  0.00  0.00    +0.000 A 
ATOM     26  C   UNL     1       5.272   4.341  14.183  0.00  0.00    +0.000 A 
ATOM     27  C   UNL     1       5.142   3.461  13.102  0.00  0.00    +0.000 A 
ATOM     28  C   UNL     1       6.173   3.341  12.167  0.00  0.00    +0.000 A 
ATOM     29  C   UNL     1       7.328   4.112  12.298  0.00  0.00    +0.000 A 
ATOM     30  C   UNL     1       7.437   5.004  13.359  0.00  0.00    +0.000 A 
ATOM     31  F   UNL     1       8.547   5.749  13.477  0.00  0.00    +0.000 F 
ENDBRANCH  23  25
ENDBRANCH  20  23
ENDBRANCH   5  20
TORSDOF 5
ENDMDL
MODEL 4
REMARK VINA RESULT:      -9.0      0.944      1.291
REMARK  Name = 
REMARK  6 active torsions:
REMARK  status: ('A' for Active; 'I' for Inactive)
REMARK    1  A    between atoms: C_1  and  C_2
REMARK    2  A    between atoms: C_5  and  S_6
REMARK    3  A    between atoms: S_6  and  N_9
REMARK    4  A    between atoms: N_9  and  C_10
REMARK    5  A    between atoms: C_18  and  C_19
REMARK    6  A    between atoms: N_21  and  C_22
REMARK                            x       y       z     vdW  Elec       q    Type
REMARK                         _______ _______ _______ _____ _____    ______ ____
ROOT
ATOM      1  C   UNL     1       2.288   3.024  20.088  0.00  0.00    +0.000 C 
ATOM      2  C   UNL     1       3.200   3.885  19.259  0.00  0.00    +0.000 A 
ATOM      3  C   UNL     1       4.107   3.235  18.395  0.00  0.00    +0.000 A 
ATOM      4  C   UNL     1       4.954   3.956  17.547  0.00  0.00    +0.000 A 
ATOM      5  C   UNL     1       4.908   5.348  17.557  0.00  0.00    +0.000 A 
ATOM      6  C   UNL     1       4.052   6.015  18.436  0.00  0.00    +0.000 A 
ATOM      7  C   UNL     1       3.180   5.296  19.278  0.00  0.00    +0.000 A 
ENDROOT
BRANCH   7   8
ATOM      8  C   UNL     1       2.219   6.145  20.049  0.00  0.00    +0.000 C 
ATOM      9  O   UNL     1       1.385   5.556  20.735  0.00  0.00    +0.000 OA
ATOM     10  N   UNL     1       2.287   7.510  19.874  0.00  0.00    +0.000 N 
ATOM     11  H   UNL     1       2.900   7.873  19.153  0.00  0.00    +0.000 HD
BRANCH  10  12
ATOM     12  C   UNL     1       1.415   8.469  20.454  0.00  0.00    +0.000 A 
ATOM     13  C   UNL     1       1.104   8.527  21.818  0.00  0.00    +0.000 A 
ATOM     14  C   UNL     1       0.184   9.468  22.295  0.00  0.00    +0.000 A 
ATOM     15  C   UNL     1      -0.419  10.356  21.412  0.00  0.00    +0.000 A 
ATOM     16  F   UNL     1      -1.318  11.235  21.873  0.00  0.00    +0.000 F 
ATOM     17  C   UNL     1      -0.107  10.338  20.059  0.00  0.00    +0.000 A 
ATOM     18  C   UNL     1       0.812   9.403  19.596  0.00  0.00    +0.000 A 
ATOM     19  F   UNL     1       1.112   9.383  18.288  0.00  0.00    +0.000 F 
ENDBRANCH  10  12
ENDBRANCH   7   8
BRANCH   5  20
ATOM     20  S   UNL     1       5.974   6.289  16.485  0.00  0.00    +0.000 S 
ATOM     21  O   UNL     1       5.188   6.744  15.362  0.00  0.00    +0.000 OA
ATOM     22  O   UNL     1       6.692   7.229  17.325  0.00  0.00    +0.000 OA
BRANCH  20  23
ATOM     23  N   UNL     1       7.127   5.164  15.949  0.00  0.00    +0.000 N 
ATOM     24  H   UNL     1       7.180   4.373  16.588  0.00  0.00    +0.000 HD
BRANCH  23  25
ATOM     25  C   UNL     1       7.120   4.825  14.559  0.00  0.00    +0.000 A 
ATOM     26  C   UNL     1       7.866   5.578  13.659  0.00  0.00    +0.000 A 
ATOM     27  C   UNL     1       7.810   5.287  12.291  0.00  0.00    +0.000 A 
ATOM     28  C   UNL     1       6.983   4.263  11.825  0.00  0.00    +0.000 A 
ATOM     29  C   UNL     1       6.225   3.513  12.724  0.00  0.00    +0.000 A 
ATOM     30  C   UNL     1       6.307   3.791  14.084  0.00  0.00    +0.000 A 
ATOM     31  F   UNL     1       5.581   3.063  14.946  0.00  0.00    +0.000 F 
ENDBRANCH  23  25
ENDBRANCH  20  23
ENDBRANCH   5  20
TORSDOF 5
ENDMDL
MODEL 5
REMARK VINA RESULT:      -9.0      3.262      4.754
REMARK  Name = 
REMARK  6 active torsions:
REMARK  status: ('A' for Active; 'I' for Inactive)
REMARK    1  A    between atoms: C_1  and  C_2
REMARK    2  A    between atoms: C_5  and  S_6
REMARK    3  A    between atoms: S_6  and  N_9
REMARK    4  A    between atoms: N_9  and  C_10
REMARK    5  A    between atoms: C_18  and  C_19
REMARK    6  A    between atoms: N_21  and  C_22
REMARK                            x       y       z     vdW  Elec       q    Type
REMARK                         _______ _______ _______ _____ _____    ______ ____
ROOT
ATOM      1  C   UNL     1       1.971   9.059  17.353  0.00  0.00    +0.000 C 
ATOM      2  C   UNL     1       2.818   7.878  17.736  0.00  0.00    +0.000 A 
ATOM      3  C   UNL     1       3.759   7.412  16.792  0.00  0.00    +0.000 A 
ATOM      4  C   UNL     1       4.627   6.355  17.084  0.00  0.00    +0.000 A 
ATOM      5  C   UNL     1       4.560   5.741  18.332  0.00  0.00    +0.000 A 
ATOM      6  C   UNL     1       3.607   6.153  19.267  0.00  0.00    +0.000 A 
ATOM      7  C   UNL     1       2.744   7.231  18.988  0.00  0.00    +0.000 A 
ENDROOT
BRANCH   7   8
ATOM      8  C   UNL     1       1.886   7.655  20.139  0.00  0.00    +0.000 C 
ATOM      9  O   UNL     1       1.483   6.766  20.887  0.00  0.00    +0.000 OA
ATOM     10  N   UNL     1       1.549   8.988  20.229  0.00  0.00    +0.000 N 
ATOM     11  H   UNL     1       1.796   9.601  19.461  0.00  0.00    +0.000 HD
BRANCH  10  12
ATOM     12  C   UNL     1       0.686   9.565  21.199  0.00  0.00    +0.000 A 
ATOM     13  C   UNL     1       0.565   9.108  22.516  0.00  0.00    +0.000 A 
ATOM     14  C   UNL     1      -0.358   9.697  23.388  0.00  0.00    +0.000 A 
ATOM     15  C   UNL     1      -1.153  10.748  22.947  0.00  0.00    +0.000 A 
ATOM     16  F   UNL     1      -2.053  11.288  23.780  0.00  0.00    +0.000 F 
ATOM     17  C   UNL     1      -1.033  11.239  21.654  0.00  0.00    +0.000 A 
ATOM     18  C   UNL     1      -0.110  10.650  20.797  0.00  0.00    +0.000 A 
ATOM     19  F   UNL     1       0.005  11.121  19.547  0.00  0.00    +0.000 F 
ENDBRANCH  10  12
ENDBRANCH   7   8
BRANCH   5  20
ATOM     20  S   UNL     1       5.656   4.395  18.729  0.00  0.00    +0.000 S 
ATOM     21  O   UNL     1       6.752   4.420  17.789  0.00  0.00    +0.000 OA
ATOM     22  O   UNL     1       5.896   4.455  20.158  0.00  0.00    +0.000 OA
BRANCH  20  23
ATOM     23  N   UNL     1       4.720   3.002  18.469  0.00  0.00    +0.000 N 
ATOM     24  H   UNL     1       5.260   2.164  18.676  0.00  0.00    +0.000 HD
BRANCH  23  25
ATOM     25  C   UNL     1       3.381   3.005  18.973  0.00  0.00    +0.000 A 
ATOM     26  C   UNL     1       3.152   2.798  20.329  0.00  0.00    +0.000 A 
ATOM     27  C   UNL     1       1.841   2.738  20.814  0.00  0.00    +0.000 A 
ATOM     28  C   UNL     1       0.762   2.853  19.934  0.00  0.00    +0.000 A 
ATOM     29  C   UNL     1       0.989   3.050  18.572  0.00  0.00    +0.000 A 
ATOM     30  C   UNL     1       2.295   3.136  18.103  0.00  0.00    +0.000 A 
ATOM     31  F   UNL     1       2.508   3.331  16.793  0.00  0.00    +0.000 F 
ENDBRANCH  23  25
ENDBRANCH  20  23
ENDBRANCH   5  20
TORSDOF 5
ENDMDL
MODEL 6
REMARK VINA RESULT:      -8.9      3.463      4.835
REMARK  Name = 
REMARK  6 active torsions:
REMARK  status: ('A' for Active; 'I' for Inactive)
REMARK    1  A    between atoms: C_1  and  C_2
REMARK    2  A    between atoms: C_5  and  S_6
REMARK    3  A    between atoms: S_6  and  N_9
REMARK    4  A    between atoms: N_9  and  C_10
REMARK    5  A    between atoms: C_18  and  C_19
REMARK    6  A    between atoms: N_21  and  C_22
REMARK                            x       y       z     vdW  Elec       q    Type
REMARK                         _______ _______ _______ _____ _____    ______ ____
ROOT
ATOM      1  C   UNL     1       2.086   9.021  17.365  0.00  0.00    +0.000 C 
ATOM      2  C   UNL     1       2.912   7.832  17.768  0.00  0.00    +0.000 A 
ATOM      3  C   UNL     1       3.880   7.366  16.853  0.00  0.00    +0.000 A 
ATOM      4  C   UNL     1       4.731   6.301  17.166  0.00  0.00    +0.000 A 
ATOM      5  C   UNL     1       4.618   5.678  18.407  0.00  0.00    +0.000 A 
ATOM      6  C   UNL     1       3.637   6.090  19.312  0.00  0.00    +0.000 A 
ATOM      7  C   UNL     1       2.791   7.177  19.012  0.00  0.00    +0.000 A 
ENDROOT
BRANCH   7   8
ATOM      8  C   UNL     1       1.898   7.598  20.137  0.00  0.00    +0.000 C 
ATOM      9  O   UNL     1       1.414   6.702  20.827  0.00  0.00    +0.000 OA
ATOM     10  N   UNL     1       1.623   8.942  20.267  0.00  0.00    +0.000 N 
ATOM     11  H   UNL     1       1.939   9.571  19.538  0.00  0.00    +0.000 HD
BRANCH  10  12
ATOM     12  C   UNL     1       0.742   9.524  21.216  0.00  0.00    +0.000 A 
ATOM     13  C   UNL     1       0.648   9.120  22.553  0.00  0.00    +0.000 A 
ATOM     14  C   UNL     1      -0.294   9.708  23.406  0.00  0.00    +0.000 A 
ATOM     15  C   UNL     1      -1.137  10.703  22.925  0.00  0.00    +0.000 A 
ATOM     16  F   UNL     1      -2.054  11.242  23.740  0.00  0.00    +0.000 F 
ATOM     17  C   UNL     1      -1.045  11.142  21.610  0.00  0.00    +0.000 A 
ATOM     18  C   UNL     1      -0.102  10.555  20.774  0.00  0.00    +0.000 A 
ATOM     19  F   UNL     1      -0.015  10.976  19.503  0.00  0.00    +0.000 F 
ENDBRANCH  10  12
ENDBRANCH   7   8
BRANCH   5  20
ATOM     20  S   UNL     1       5.691   4.322  18.830  0.00  0.00    +0.000 S 
ATOM     21  O   UNL     1       6.861   4.397  17.986  0.00  0.00    +0.000 OA
ATOM     22  O   UNL     1       5.812   4.316  20.276  0.00  0.00    +0.000 OA
BRANCH  20  23
ATOM     23  N   UNL     1       4.794   2.937  18.430  0.00  0.00    +0.000 N 
ATOM     24  H   UNL     1       5.324   2.094  18.642  0.00  0.00    +0.000 HD
BRANCH  23  25
ATOM     25  C   UNL     1       3.418   2.907  18.823  0.00  0.00    +0.000 A 
ATOM     26  C   UNL     1       2.433   3.301  17.923  0.00  0.00    +0.000 A 
ATOM     27  C   UNL     1       1.093   3.333  18.325  0.00  0.00    +0.000 A 
ATOM     28  C   UNL     1       0.747   3.001  19.637  0.00  0.00    +0.000 A 
ATOM     29  C   UNL     1       1.733   2.617  20.544  0.00  0.00    +0.000 A 
ATOM     30  C   UNL     1       3.059   2.561  20.128  0.00  0.00    +0.000 A 
ATOM     31  F   UNL     1       4.004   2.185  21.003  0.00  0.00    +0.000 F 
ENDBRANCH  23  25
ENDBRANCH  20  23
ENDBRANCH   5  20
TORSDOF 5
ENDMDL
MODEL 7
REMARK VINA RESULT:      -8.8      1.379      1.718
REMARK  Name = 
REMARK  6 active torsions:
REMARK  status: ('A' for Active; 'I' for Inactive)
REMARK    1  A    between atoms: C_1  and  C_2
REMARK    2  A    between atoms: C_5  and  S_6
REMARK    3  A    between atoms: S_6  and  N_9
REMARK    4  A    between atoms: N_9  and  C_10
REMARK    5  A    between atoms: C_18  and  C_19
REMARK    6  A    between atoms: N_21  and  C_22
REMARK                            x       y       z     vdW  Elec       q    Type
REMARK                         _______ _______ _______ _____ _____    ______ ____
ROOT
ATOM      1  C   UNL     1       1.878   2.787  19.593  0.00  0.00    +0.000 C 
ATOM      2  C   UNL     1       3.111   3.485  19.092  0.00  0.00    +0.000 A 
ATOM      3  C   UNL     1       4.068   2.711  18.401  0.00  0.00    +0.000 A 
ATOM      4  C   UNL     1       5.218   3.288  17.852  0.00  0.00    +0.000 A 
ATOM      5  C   UNL     1       5.431   4.657  17.994  0.00  0.00    +0.000 A 
ATOM      6  C   UNL     1       4.523   5.437  18.713  0.00  0.00    +0.000 A 
ATOM      7  C   UNL     1       3.351   4.868  19.250  0.00  0.00    +0.000 A 
ENDROOT
BRANCH   7   8
ATOM      8  C   UNL     1       2.403   5.853  19.859  0.00  0.00    +0.000 C 
ATOM      9  O   UNL     1       1.544   5.403  20.615  0.00  0.00    +0.000 OA
ATOM     10  N   UNL     1       2.512   7.171  19.469  0.00  0.00    +0.000 N 
ATOM     11  H   UNL     1       3.145   7.398  18.711  0.00  0.00    +0.000 HD
BRANCH  10  12
ATOM     12  C   UNL     1       1.660   8.232  19.874  0.00  0.00    +0.000 A 
ATOM     13  C   UNL     1       1.233   8.440  21.191  0.00  0.00    +0.000 A 
ATOM     14  C   UNL     1       0.341   9.477  21.490  0.00  0.00    +0.000 A 
ATOM     15  C   UNL     1      -0.119  10.309  20.476  0.00  0.00    +0.000 A 
ATOM     16  F   UNL     1      -0.993  11.282  20.767  0.00  0.00    +0.000 F 
ATOM     17  C   UNL     1       0.311  10.142  19.166  0.00  0.00    +0.000 A 
ATOM     18  C   UNL     1       1.201   9.112  18.881  0.00  0.00    +0.000 A 
ATOM     19  F   UNL     1       1.615   8.947  17.615  0.00  0.00    +0.000 F 
ENDBRANCH  10  12
ENDBRANCH   7   8
BRANCH   5  20
ATOM     20  S   UNL     1       6.886   5.414  17.302  0.00  0.00    +0.000 S 
ATOM     21  O   UNL     1       7.293   6.485  18.182  0.00  0.00    +0.000 OA
ATOM     22  O   UNL     1       7.798   4.340  16.961  0.00  0.00    +0.000 OA
BRANCH  20  23
ATOM     23  N   UNL     1       6.358   6.066  15.826  0.00  0.00    +0.000 N 
ATOM     24  H   UNL     1       6.651   7.037  15.738  0.00  0.00    +0.000 HD
BRANCH  23  25
ATOM     25  C   UNL     1       6.535   5.267  14.652  0.00  0.00    +0.000 A 
ATOM     26  C   UNL     1       7.634   5.484  13.828  0.00  0.00    +0.000 A 
ATOM     27  C   UNL     1       7.776   4.747  12.646  0.00  0.00    +0.000 A 
ATOM     28  C   UNL     1       6.801   3.817  12.278  0.00  0.00    +0.000 A 
ATOM     29  C   UNL     1       5.692   3.606  13.098  0.00  0.00    +0.000 A 
ATOM     30  C   UNL     1       5.573   4.323  14.284  0.00  0.00    +0.000 A 
ATOM     31  F   UNL     1       4.508   4.112  15.072  0.00  0.00    +0.000 F 
ENDBRANCH  23  25
ENDBRANCH  20  23
ENDBRANCH   5  20
TORSDOF 5
ENDMDL
MODEL 8
REMARK VINA RESULT:      -8.6      1.547      1.872
REMARK  Name = 
REMARK  6 active torsions:
REMARK  status: ('A' for Active; 'I' for Inactive)
REMARK    1  A    between atoms: C_1  and  C_2
REMARK    2  A    between atoms: C_5  and  S_6
REMARK    3  A    between atoms: S_6  and  N_9
REMARK    4  A    between atoms: N_9  and  C_10
REMARK    5  A    between atoms: C_18  and  C_19
REMARK    6  A    between atoms: N_21  and  C_22
REMARK                            x       y       z     vdW  Elec       q    Type
REMARK                         _______ _______ _______ _____ _____    ______ ____
ROOT
ATOM      1  C   UNL     1       1.487   3.921  18.910  0.00  0.00    +0.000 C 
ATOM      2  C   UNL     1       2.879   4.341  18.529  0.00  0.00    +0.000 A 
ATOM      3  C   UNL     1       3.848   3.328  18.364  0.00  0.00    +0.000 A 
ATOM      4  C   UNL     1       5.152   3.623  17.956  0.00  0.00    +0.000 A 
ATOM      5  C   UNL     1       5.510   4.947  17.711  0.00  0.00    +0.000 A 
ATOM      6  C   UNL     1       4.583   5.972  17.911  0.00  0.00    +0.000 A 
ATOM      7  C   UNL     1       3.260   5.681  18.301  0.00  0.00    +0.000 A 
ENDROOT
BRANCH   7   8
ATOM      8  C   UNL     1       2.345   6.865  18.326  0.00  0.00    +0.000 C 
ATOM      9  O   UNL     1       1.782   7.153  17.271  0.00  0.00    +0.000 OA
ATOM     10  N   UNL     1       2.261   7.585  19.498  0.00  0.00    +0.000 N 
ATOM     11  H   UNL     1       2.901   7.357  20.250  0.00  0.00    +0.000 HD
BRANCH  10  12
ATOM     12  C   UNL     1       1.512   8.776  19.692  0.00  0.00    +0.000 A 
ATOM     13  C   UNL     1       1.527   9.867  18.815  0.00  0.00    +0.000 A 
ATOM     14  C   UNL     1       0.805  11.028  19.116  0.00  0.00    +0.000 A 
ATOM     15  C   UNL     1       0.063  11.096  20.288  0.00  0.00    +0.000 A 
ATOM     16  F   UNL     1      -0.603  12.221  20.582  0.00  0.00    +0.000 F 
ATOM     17  C   UNL     1       0.008  10.018  21.162  0.00  0.00    +0.000 A 
ATOM     18  C   UNL     1       0.725   8.868  20.851  0.00  0.00    +0.000 A 
ATOM     19  F   UNL     1       0.675   7.826  21.695  0.00  0.00    +0.000 F 
ENDBRANCH  10  12
ENDBRANCH   7   8
BRANCH   5  20
ATOM     20  S   UNL     1       7.164   5.347  17.188  0.00  0.00    +0.000 S 
ATOM     21  O   UNL     1       7.706   6.310  18.119  0.00  0.00    +0.000 OA
ATOM     22  O   UNL     1       7.842   4.090  16.935  0.00  0.00    +0.000 OA
BRANCH  20  23
ATOM     23  N   UNL     1       6.958   6.082  15.671  0.00  0.00    +0.000 N 
ATOM     24  H   UNL     1       7.693   6.766  15.503  0.00  0.00    +0.000 HD
BRANCH  23  25
ATOM     25  C   UNL     1       6.652   5.230  14.563  0.00  0.00    +0.000 A 
ATOM     26  C   UNL     1       5.480   4.482  14.569  0.00  0.00    +0.000 A 
ATOM     27  C   UNL     1       5.209   3.601  13.516  0.00  0.00    +0.000 A 
ATOM     28  C   UNL     1       6.128   3.449  12.475  0.00  0.00    +0.000 A 
ATOM     29  C   UNL     1       7.309   4.190  12.472  0.00  0.00    +0.000 A 
ATOM     30  C   UNL     1       7.557   5.084  13.508  0.00  0.00    +0.000 A 
ATOM     31  F   UNL     1       8.693   5.799  13.498  0.00  0.00    +0.000 F 
ENDBRANCH  23  25
ENDBRANCH  20  23
ENDBRANCH   5  20
TORSDOF 5
ENDMDL
MODEL 9
REMARK VINA RESULT:      -8.6      3.112      4.158
REMARK  Name = 
REMARK  6 active torsions:
REMARK  status: ('A' for Active; 'I' for Inactive)
REMARK    1  A    between atoms: C_1  and  C_2
REMARK    2  A    between atoms: C_5  and  S_6
REMARK    3  A    between atoms: S_6  and  N_9
REMARK    4  A    between atoms: N_9  and  C_10
REMARK    5  A    between atoms: C_18  and  C_19
REMARK    6  A    between atoms: N_21  and  C_22
REMARK                            x       y       z     vdW  Elec       q    Type
REMARK                         _______ _______ _______ _____ _____    ______ ____
ROOT
ATOM      1  C   UNL     1       1.322   7.840  21.501  0.00  0.00    +0.000 C 
ATOM      2  C   UNL     1       1.874   6.900  20.467  0.00  0.00    +0.000 A 
ATOM      3  C   UNL     1       2.130   5.569  20.862  0.00  0.00    +0.000 A 
ATOM      4  C   UNL     1       2.591   4.612  19.953  0.00  0.00    +0.000 A 
ATOM      5  C   UNL     1       2.811   4.978  18.627  0.00  0.00    +0.000 A 
ATOM      6  C   UNL     1       2.609   6.299  18.222  0.00  0.00    +0.000 A 
ATOM      7  C   UNL     1       2.124   7.264  19.126  0.00  0.00    +0.000 A 
ENDROOT
BRANCH   7   8
ATOM      8  C   UNL     1       1.814   8.592  18.512  0.00  0.00    +0.000 C 
ATOM      9  O   UNL     1       2.269   8.805  17.389  0.00  0.00    +0.000 OA
ATOM     10  N   UNL     1       1.113   9.503  19.274  0.00  0.00    +0.000 N 
ATOM     11  H   UNL     1       0.939   9.283  20.247  0.00  0.00    +0.000 HD
BRANCH  10  12
ATOM     12  C   UNL     1       0.793  10.834  18.896  0.00  0.00    +0.000 A 
ATOM     13  C   UNL     1       1.731  11.867  18.784  0.00  0.00    +0.000 A 
ATOM     14  C   UNL     1       1.319  13.167  18.466  0.00  0.00    +0.000 A 
ATOM     15  C   UNL     1      -0.028  13.432  18.253  0.00  0.00    +0.000 A 
ATOM     16  F   UNL     1      -0.417  14.684  17.975  0.00  0.00    +0.000 F 
ATOM     17  C   UNL     1      -0.976  12.420  18.330  0.00  0.00    +0.000 A 
ATOM     18  C   UNL     1      -0.555  11.132  18.641  0.00  0.00    +0.000 A 
ATOM     19  F   UNL     1      -1.470  10.153  18.719  0.00  0.00    +0.000 F 
ENDBRANCH  10  12
ENDBRANCH   7   8
BRANCH   5  20
ATOM     20  S   UNL     1       3.396   3.776  17.450  0.00  0.00    +0.000 S 
ATOM     21  O   UNL     1       4.187   2.801  18.163  0.00  0.00    +0.000 OA
ATOM     22  O   UNL     1       2.251   3.373  16.656  0.00  0.00    +0.000 OA
BRANCH  20  23
ATOM     23  N   UNL     1       4.399   4.665  16.407  0.00  0.00    +0.000 N 
ATOM     24  H   UNL     1       3.842   5.248  15.785  0.00  0.00    +0.000 HD
BRANCH  23  25
ATOM     25  C   UNL     1       5.543   5.305  16.981  0.00  0.00    +0.000 A 
ATOM     26  C   UNL     1       6.375   4.595  17.840  0.00  0.00    +0.000 A 
ATOM     27  C   UNL     1       7.458   5.237  18.451  0.00  0.00    +0.000 A 
ATOM     28  C   UNL     1       7.686   6.596  18.226  0.00  0.00    +0.000 A 
ATOM     29  C   UNL     1       6.846   7.314  17.375  0.00  0.00    +0.000 A 
ATOM     30  C   UNL     1       5.789   6.661  16.749  0.00  0.00    +0.000 A 
ATOM     31  F   UNL     1       4.988   7.354  15.926  0.00  0.00    +0.000 F 
ENDBRANCH  23  25
ENDBRANCH  20  23
ENDBRANCH   5  20
TORSDOF 5
ENDMDL
