MODEL 1
REMARK VINA RESULT:      -9.2      0.000      0.000
REMARK  Name = 
REMARK  6 active torsions:
REMARK  status: ('A' for Active; 'I' for Inactive)
REMARK    1  A    between atoms: C_1  and  C_2
REMARK    2  A    between atoms: N_5  and  C_6
REMARK    3  A    between atoms: C_6  and  C_7
REMARK    4  A    between atoms: C_11  and  C_12
REMARK    5  A    between atoms: C_12  and  C_13
REMARK    6  A    between atoms: N_18  and  C_19
REMARK                            x       y       z     vdW  Elec       q    Type
REMARK                         _______ _______ _______ _____ _____    ______ ____
ROOT
ATOM      1  C   UNL     1       3.895   6.335  17.811  0.00  0.00    +0.000 A 
ATOM      2  C   UNL     1       3.203   7.545  17.871  0.00  0.00    +0.000 A 
ATOM      3  C   UNL     1       2.331   7.737  18.919  0.00  0.00    +0.000 A 
ATOM      4  C   UNL     1       2.030   6.764  19.860  0.00  0.00    +0.000 A 
ATOM      5  C   UNL     1       2.604   5.501  19.754  0.00  0.00    +0.000 A 
ATOM      6  C   UNL     1       3.578   5.315  18.741  0.00  0.00    +0.000 A 
ATOM      7  C   UNL     1       1.096   7.346  20.878  0.00  0.00    +0.000 C 
ATOM      8  N   UNL     1       0.913   8.723  20.421  0.00  0.00    +0.000 N 
ATOM      9  C   UNL     1       1.627   8.968  19.251  0.00  0.00    +0.000 C 
ATOM     10  O   UNL     1       1.737   9.963  18.558  0.00  0.00    +0.000 OA
ENDROOT
BRANCH   8  11
ATOM     11  C   UNL     1       0.119   9.675  21.114  0.00  0.00    +0.000 A 
ATOM     12  C   UNL     1      -0.096   9.567  22.498  0.00  0.00    +0.000 A 
ATOM     13  C   UNL     1      -0.857  10.507  23.198  0.00  0.00    +0.000 A 
ATOM     14  C   UNL     1      -1.429  11.572  22.517  0.00  0.00    +0.000 A 
ATOM     15  C   UNL     1      -1.235  11.682  21.148  0.00  0.00    +0.000 A 
ATOM     16  F   UNL     1      -1.795  12.702  20.485  0.00  0.00    +0.000 F 
ATOM     17  C   UNL     1      -0.469  10.752  20.443  0.00  0.00    +0.000 A 
ENDBRANCH   8  11
BRANCH   5  18
ATOM     18  C   UNL     1       2.179   4.356  20.645  0.00  0.00    +0.000 C 
ATOM     19  C   UNL     1       2.834   3.054  20.200  0.00  0.00    +0.000 C 
ATOM     20  F   UNL     1       2.502   4.559  21.954  0.00  0.00    +0.000 F 
ATOM     21  F   UNL     1       0.827   4.161  20.629  0.00  0.00    +0.000 F 
ENDBRANCH   5  18
BRANCH   1  22
ATOM     22  C   UNL     1       4.973   6.168  16.757  0.00  0.00    +0.000 C 
BRANCH  22  27
ATOM     23  C   UNL     1       6.029   3.602  13.194  0.00  0.00    +0.000 C 
ATOM     24  C   UNL     1       5.949   4.576  14.359  0.00  0.00    +0.000 C 
ATOM     25  C   UNL     1       7.305   4.861  15.000  0.00  0.00    +0.000 C 
ATOM     26  C   UNL     1       7.045   4.804  16.503  0.00  0.00    +0.000 C 
ATOM     27  N   UNL     1       5.585   4.826  16.704  0.00  0.00    +0.000 NA
ATOM     28  C   UNL     1       5.091   4.081  15.525  0.00  0.00    +0.000 C 
ENDBRANCH  22  27
ENDBRANCH   1  22
TORSDOF 4
ENDMDL
MODEL 2
REMARK VINA RESULT:      -8.9      2.569      8.190
REMARK  Name = 
REMARK  6 active torsions:
REMARK  status: ('A' for Active; 'I' for Inactive)
REMARK    1  A    between atoms: C_1  and  C_2
REMARK    2  A    between atoms: N_5  and  C_6
REMARK    3  A    between atoms: C_6  and  C_7
REMARK    4  A    between atoms: C_11  and  C_12
REMARK    5  A    between atoms: C_12  and  C_13
REMARK    6  A    between atoms: N_18  and  C_19
REMARK                            x       y       z     vdW  Elec       q    Type
REMARK                         _______ _______ _______ _____ _____    ______ ____
ROOT
ATOM      1  C   UNL     1       1.605   6.517  20.495  0.00  0.00    +0.000 A 
ATOM      2  C   UNL     1       2.480   6.985  19.513  0.00  0.00    +0.000 A 
ATOM      3  C   UNL     1       3.197   6.057  18.793  0.00  0.00    +0.000 A 
ATOM      4  C   UNL     1       3.170   4.694  19.049  0.00  0.00    +0.000 A 
ATOM      5  C   UNL     1       2.407   4.206  20.106  0.00  0.00    +0.000 A 
ATOM      6  C   UNL     1       1.587   5.134  20.796  0.00  0.00    +0.000 A 
ATOM      7  C   UNL     1       4.019   3.992  18.033  0.00  0.00    +0.000 C 
ATOM      8  N   UNL     1       4.510   5.083  17.192  0.00  0.00    +0.000 N 
ATOM      9  C   UNL     1       4.045   6.317  17.638  0.00  0.00    +0.000 C 
ATOM     10  O   UNL     1       4.221   7.450  17.229  0.00  0.00    +0.000 OA
ENDROOT
BRANCH   8  11
ATOM     11  C   UNL     1       5.340   4.879  16.057  0.00  0.00    +0.000 A 
ATOM     12  C   UNL     1       6.700   5.232  16.084  0.00  0.00    +0.000 A 
ATOM     13  C   UNL     1       7.535   5.019  14.984  0.00  0.00    +0.000 A 
ATOM     14  C   UNL     1       7.016   4.455  13.827  0.00  0.00    +0.000 A 
ATOM     15  C   UNL     1       5.672   4.115  13.783  0.00  0.00    +0.000 A 
ATOM     16  F   UNL     1       5.165   3.582  12.665  0.00  0.00    +0.000 F 
ATOM     17  C   UNL     1       4.834   4.317  14.881  0.00  0.00    +0.000 A 
ENDBRANCH   8  11
BRANCH   5  18
ATOM     18  C   UNL     1       2.479   2.758  20.538  0.00  0.00    +0.000 C 
ATOM     19  C   UNL     1       1.605   2.516  21.762  0.00  0.00    +0.000 C 
ATOM     20  F   UNL     1       2.077   1.897  19.560  0.00  0.00    +0.000 F 
ATOM     21  F   UNL     1       3.751   2.376  20.860  0.00  0.00    +0.000 F 
ENDBRANCH   5  18
BRANCH   1  22
ATOM     22  C   UNL     1       0.694   7.512  21.188  0.00  0.00    +0.000 C 
BRANCH  22  27
ATOM     23  C   UNL     1      -1.027  11.682  20.973  0.00  0.00    +0.000 C 
ATOM     24  C   UNL     1      -0.555  10.280  21.324  0.00  0.00    +0.000 C 
ATOM     25  C   UNL     1      -0.256  10.099  22.811  0.00  0.00    +0.000 C 
ATOM     26  C   UNL     1       1.062   9.331  22.854  0.00  0.00    +0.000 C 
ATOM     27  N   UNL     1       1.319   8.813  21.498  0.00  0.00    +0.000 NA
ATOM     28  C   UNL     1       0.751   9.875  20.639  0.00  0.00    +0.000 C 
ENDBRANCH  22  27
ENDBRANCH   1  22
TORSDOF 4
ENDMDL
MODEL 3
REMARK VINA RESULT:      -8.7      1.033      1.445
REMARK  Name = 
REMARK  6 active torsions:
REMARK  status: ('A' for Active; 'I' for Inactive)
REMARK    1  A    between atoms: C_1  and  C_2
REMARK    2  A    between atoms: N_5  and  C_6
REMARK    3  A    between atoms: C_6  and  C_7
REMARK    4  A    between atoms: C_11  and  C_12
REMARK    5  A    between atoms: C_12  and  C_13
REMARK    6  A    between atoms: N_18  and  C_19
REMARK                            x       y       z     vdW  Elec       q    Type
REMARK                         _______ _______ _______ _____ _____    ______ ____
ROOT
ATOM      1  C   UNL     1       4.152   6.407  17.465  0.00  0.00    +0.000 A 
ATOM      2  C   UNL     1       3.428   7.600  17.432  0.00  0.00    +0.000 A 
ATOM      3  C   UNL     1       2.547   7.848  18.461  0.00  0.00    +0.000 A 
ATOM      4  C   UNL     1       2.269   6.942  19.473  0.00  0.00    +0.000 A 
ATOM      5  C   UNL     1       2.876   5.690  19.464  0.00  0.00    +0.000 A 
ATOM      6  C   UNL     1       3.859   5.453  18.470  0.00  0.00    +0.000 A 
ATOM      7  C   UNL     1       1.317   7.574  20.442  0.00  0.00    +0.000 C 
ATOM      8  N   UNL     1       1.099   8.907  19.882  0.00  0.00    +0.000 N 
ATOM      9  C   UNL     1       1.810   9.081  18.698  0.00  0.00    +0.000 C 
ATOM     10  O   UNL     1       1.897  10.024  17.931  0.00  0.00    +0.000 OA
ENDROOT
BRANCH   8  11
ATOM     11  C   UNL     1       0.278   9.888  20.499  0.00  0.00    +0.000 A 
ATOM     12  C   UNL     1      -0.249  10.959  19.758  0.00  0.00    +0.000 A 
ATOM     13  C   UNL     1      -1.077  11.921  20.345  0.00  0.00    +0.000 A 
ATOM     14  C   UNL     1      -1.383  11.831  21.696  0.00  0.00    +0.000 A 
ATOM     15  C   UNL     1      -0.858  10.786  22.441  0.00  0.00    +0.000 A 
ATOM     16  F   UNL     1      -1.142  10.702  23.747  0.00  0.00    +0.000 F 
ATOM     17  C   UNL     1      -0.038   9.816  21.860  0.00  0.00    +0.000 A 
ENDBRANCH   8  11
BRANCH   5  18
ATOM     18  C   UNL     1       2.478   4.605  20.439  0.00  0.00    +0.000 C 
ATOM     19  C   UNL     1       1.085   4.076  20.120  0.00  0.00    +0.000 C 
ATOM     20  F   UNL     1       3.339   3.547  20.430  0.00  0.00    +0.000 F 
ATOM     21  F   UNL     1       2.462   5.049  21.731  0.00  0.00    +0.000 F 
ENDBRANCH   5  18
BRANCH   1  22
ATOM     22  C   UNL     1       5.237   6.190  16.429  0.00  0.00    +0.000 C 
BRANCH  22  27
ATOM     23  C   UNL     1       5.909   3.500  12.864  0.00  0.00    +0.000 C 
ATOM     24  C   UNL     1       5.960   4.499  14.009  0.00  0.00    +0.000 C 
ATOM     25  C   UNL     1       7.370   4.717  14.555  0.00  0.00    +0.000 C 
ATOM     26  C   UNL     1       7.207   4.702  16.072  0.00  0.00    +0.000 C 
ATOM     27  N   UNL     1       5.767   4.813  16.366  0.00  0.00    +0.000 NA
ATOM     28  C   UNL     1       5.155   4.077  15.239  0.00  0.00    +0.000 C 
ENDBRANCH  22  27
ENDBRANCH   1  22
TORSDOF 4
ENDMDL
MODEL 4
REMARK VINA RESULT:      -8.7      1.465      2.340
REMARK  Name = 
REMARK  6 active torsions:
REMARK  status: ('A' for Active; 'I' for Inactive)
REMARK    1  A    between atoms: C_1  and  C_2
REMARK    2  A    between atoms: N_5  and  C_6
REMARK    3  A    between atoms: C_6  and  C_7
REMARK    4  A    between atoms: C_11  and  C_12
REMARK    5  A    between atoms: C_12  and  C_13
REMARK    6  A    between atoms: N_18  and  C_19
REMARK                            x       y       z     vdW  Elec       q    Type
REMARK                         _______ _______ _______ _____ _____    ______ ____
ROOT
ATOM      1  C   UNL     1       3.865   5.162  17.504  0.00  0.00    +0.000 A 
ATOM      2  C   UNL     1       3.305   6.440  17.459  0.00  0.00    +0.000 A 
ATOM      3  C   UNL     1       2.598   6.873  18.558  0.00  0.00    +0.000 A 
ATOM      4  C   UNL     1       2.331   6.080  19.664  0.00  0.00    +0.000 A 
ATOM      5  C   UNL     1       2.764   4.758  19.686  0.00  0.00    +0.000 A 
ATOM      6  C   UNL     1       3.577   4.324  18.608  0.00  0.00    +0.000 A 
ATOM      7  C   UNL     1       1.596   6.899  20.682  0.00  0.00    +0.000 C 
ATOM      8  N   UNL     1       1.487   8.211  20.045  0.00  0.00    +0.000 N 
ATOM      9  C   UNL     1       2.063   8.209  18.778  0.00  0.00    +0.000 C 
ATOM     10  O   UNL     1       2.176   9.080  17.934  0.00  0.00    +0.000 OA
ENDROOT
BRANCH   8  11
ATOM     11  C   UNL     1       0.883   9.333  20.672  0.00  0.00    +0.000 A 
ATOM     12  C   UNL     1       0.887  10.595  20.053  0.00  0.00    +0.000 A 
ATOM     13  C   UNL     1       0.278  11.705  20.646  0.00  0.00    +0.000 A 
ATOM     14  C   UNL     1      -0.339  11.571  21.882  0.00  0.00    +0.000 A 
ATOM     15  C   UNL     1      -0.337  10.334  22.509  0.00  0.00    +0.000 A 
ATOM     16  F   UNL     1      -0.922  10.204  23.706  0.00  0.00    +0.000 F 
ATOM     17  C   UNL     1       0.260   9.219  21.919  0.00  0.00    +0.000 A 
ENDBRANCH   8  11
BRANCH   5  18
ATOM     18  C   UNL     1       2.351   3.803  20.783  0.00  0.00    +0.000 C 
ATOM     19  C   UNL     1       0.925   3.314  20.566  0.00  0.00    +0.000 C 
ATOM     20  F   UNL     1       3.161   2.708  20.860  0.00  0.00    +0.000 F 
ATOM     21  F   UNL     1       2.403   4.381  22.020  0.00  0.00    +0.000 F 
ENDBRANCH   5  18
BRANCH   1  22
ATOM     22  C   UNL     1       4.777   4.731  16.372  0.00  0.00    +0.000 C 
BRANCH  22  27
ATOM     23  C   UNL     1       7.966   5.850  19.368  0.00  0.00    +0.000 C 
ATOM     24  C   UNL     1       7.065   5.236  18.308  0.00  0.00    +0.000 C 
ATOM     25  C   UNL     1       7.828   4.406  17.277  0.00  0.00    +0.000 C 
ATOM     26  C   UNL     1       7.231   4.810  15.932  0.00  0.00    +0.000 C 
ATOM     27  N   UNL     1       5.989   5.557  16.203  0.00  0.00    +0.000 NA
ATOM     28  C   UNL     1       6.311   6.262  17.462  0.00  0.00    +0.000 C 
ENDBRANCH  22  27
ENDBRANCH   1  22
TORSDOF 4
ENDMDL
MODEL 5
REMARK VINA RESULT:      -8.7      1.260      2.027
REMARK  Name = 
REMARK  6 active torsions:
REMARK  status: ('A' for Active; 'I' for Inactive)
REMARK    1  A    between atoms: C_1  and  C_2
REMARK    2  A    between atoms: N_5  and  C_6
REMARK    3  A    between atoms: C_6  and  C_7
REMARK    4  A    between atoms: C_11  and  C_12
REMARK    5  A    between atoms: C_12  and  C_13
REMARK    6  A    between atoms: N_18  and  C_19
REMARK                            x       y       z     vdW  Elec       q    Type
REMARK                         _______ _______ _______ _____ _____    ______ ____
ROOT
ATOM      1  C   UNL     1       3.756   5.321  17.642  0.00  0.00    +0.000 A 
ATOM      2  C   UNL     1       3.153   6.579  17.676  0.00  0.00    +0.000 A 
ATOM      3  C   UNL     1       2.451   6.927  18.809  0.00  0.00    +0.000 A 
ATOM      4  C   UNL     1       2.231   6.067  19.874  0.00  0.00    +0.000 A 
ATOM      5  C   UNL     1       2.708   4.761  19.816  0.00  0.00    +0.000 A 
ATOM      6  C   UNL     1       3.516   4.415  18.703  0.00  0.00    +0.000 A 
ATOM      7  C   UNL     1       1.487   6.803  20.946  0.00  0.00    +0.000 C 
ATOM      8  N   UNL     1       1.322   8.143  20.385  0.00  0.00    +0.000 N 
ATOM      9  C   UNL     1       1.875   8.230  19.110  0.00  0.00    +0.000 C 
ATOM     10  O   UNL     1       1.944   9.149  18.313  0.00  0.00    +0.000 OA
ENDROOT
BRANCH   8  11
ATOM     11  C   UNL     1       0.692   9.209  21.081  0.00  0.00    +0.000 A 
ATOM     12  C   UNL     1       0.104   9.001  22.340  0.00  0.00    +0.000 A 
ATOM     13  C   UNL     1      -0.501  10.044  23.048  0.00  0.00    +0.000 A 
ATOM     14  C   UNL     1      -0.537  11.317  22.498  0.00  0.00    +0.000 A 
ATOM     15  C   UNL     1       0.028  11.531  21.250  0.00  0.00    +0.000 A 
ATOM     16  F   UNL     1      -0.015  12.757  20.711  0.00  0.00    +0.000 F 
ATOM     17  C   UNL     1       0.642  10.498  20.540  0.00  0.00    +0.000 A 
ENDBRANCH   8  11
BRANCH   5  18
ATOM     18  C   UNL     1       2.348   3.734  20.866  0.00  0.00    +0.000 C 
ATOM     19  C   UNL     1       0.937   3.204  20.641  0.00  0.00    +0.000 C 
ATOM     20  F   UNL     1       3.198   2.668  20.873  0.00  0.00    +0.000 F 
ATOM     21  F   UNL     1       2.396   4.247  22.131  0.00  0.00    +0.000 F 
ENDBRANCH   5  18
BRANCH   1  22
ATOM     22  C   UNL     1       4.662   4.983  16.474  0.00  0.00    +0.000 C 
BRANCH  22  27
ATOM     23  C   UNL     1       7.933   5.728  19.497  0.00  0.00    +0.000 C 
ATOM     24  C   UNL     1       7.001   5.246  18.396  0.00  0.00    +0.000 C 
ATOM     25  C   UNL     1       7.730   4.536  17.258  0.00  0.00    +0.000 C 
ATOM     26  C   UNL     1       7.104   5.097  15.984  0.00  0.00    +0.000 C 
ATOM     27  N   UNL     1       5.877   5.816  16.371  0.00  0.00    +0.000 NA
ATOM     28  C   UNL     1       6.236   6.369  17.694  0.00  0.00    +0.000 C 
ENDBRANCH  22  27
ENDBRANCH   1  22
TORSDOF 4
ENDMDL
MODEL 6
REMARK VINA RESULT:      -8.6      1.671      2.472
REMARK  Name = 
REMARK  6 active torsions:
REMARK  status: ('A' for Active; 'I' for Inactive)
REMARK    1  A    between atoms: C_1  and  C_2
REMARK    2  A    between atoms: N_5  and  C_6
REMARK    3  A    between atoms: C_6  and  C_7
REMARK    4  A    between atoms: C_11  and  C_12
REMARK    5  A    between atoms: C_12  and  C_13
REMARK    6  A    between atoms: N_18  and  C_19
REMARK                            x       y       z     vdW  Elec       q    Type
REMARK                         _______ _______ _______ _____ _____    ______ ____
ROOT
ATOM      1  C   UNL     1       4.129   4.905  17.525  0.00  0.00    +0.000 A 
ATOM      2  C   UNL     1       3.580   6.188  17.485  0.00  0.00    +0.000 A 
ATOM      3  C   UNL     1       2.805   6.591  18.549  0.00  0.00    +0.000 A 
ATOM      4  C   UNL     1       2.462   5.766  19.609  0.00  0.00    +0.000 A 
ATOM      5  C   UNL     1       2.885   4.440  19.616  0.00  0.00    +0.000 A 
ATOM      6  C   UNL     1       3.764   4.035  18.581  0.00  0.00    +0.000 A 
ATOM      7  C   UNL     1       1.666   6.557  20.602  0.00  0.00    +0.000 C 
ATOM      8  N   UNL     1       1.606   7.890  20.002  0.00  0.00    +0.000 N 
ATOM      9  C   UNL     1       2.264   7.924  18.776  0.00  0.00    +0.000 C 
ATOM     10  O   UNL     1       2.438   8.820  17.969  0.00  0.00    +0.000 OA
ENDROOT
BRANCH   8  11
ATOM     11  C   UNL     1       0.969   8.996  20.624  0.00  0.00    +0.000 A 
ATOM     12  C   UNL     1       0.746  10.191  19.919  0.00  0.00    +0.000 A 
ATOM     13  C   UNL     1       0.101  11.282  20.508  0.00  0.00    +0.000 A 
ATOM     14  C   UNL     1      -0.325  11.197  21.827  0.00  0.00    +0.000 A 
ATOM     15  C   UNL     1      -0.098  10.029  22.537  0.00  0.00    +0.000 A 
ATOM     16  F   UNL     1      -0.497   9.947  23.813  0.00  0.00    +0.000 F 
ATOM     17  C   UNL     1       0.537   8.932  21.953  0.00  0.00    +0.000 A 
ENDBRANCH   8  11
BRANCH   5  18
ATOM     18  C   UNL     1       2.396   3.454  20.653  0.00  0.00    +0.000 C 
ATOM     19  C   UNL     1       0.976   3.001  20.339  0.00  0.00    +0.000 C 
ATOM     20  F   UNL     1       3.181   2.342  20.733  0.00  0.00    +0.000 F 
ATOM     21  F   UNL     1       2.389   3.986  21.911  0.00  0.00    +0.000 F 
ENDBRANCH   5  18
BRANCH   1  22
ATOM     22  C   UNL     1       5.111   4.503  16.442  0.00  0.00    +0.000 C 
BRANCH  22  27
ATOM     23  C   UNL     1       7.850   7.932  17.507  0.00  0.00    +0.000 C 
ATOM     24  C   UNL     1       6.857   6.782  17.438  0.00  0.00    +0.000 C 
ATOM     25  C   UNL     1       6.755   5.996  18.743  0.00  0.00    +0.000 C 
ATOM     26  C   UNL     1       6.755   4.530  18.317  0.00  0.00    +0.000 C 
ATOM     27  N   UNL     1       6.527   4.491  16.861  0.00  0.00    +0.000 NA
ATOM     28  C   UNL     1       7.211   5.718  16.399  0.00  0.00    +0.000 C 
ENDBRANCH  22  27
ENDBRANCH   1  22
TORSDOF 4
ENDMDL
MODEL 7
REMARK VINA RESULT:      -8.5      2.578      8.407
REMARK  Name = 
REMARK  6 active torsions:
REMARK  status: ('A' for Active; 'I' for Inactive)
REMARK    1  A    between atoms: C_1  and  C_2
REMARK    2  A    between atoms: N_5  and  C_6
REMARK    3  A    between atoms: C_6  and  C_7
REMARK    4  A    between atoms: C_11  and  C_12
REMARK    5  A    between atoms: C_12  and  C_13
REMARK    6  A    between atoms: N_18  and  C_19
REMARK                            x       y       z     vdW  Elec       q    Type
REMARK                         _______ _______ _______ _____ _____    ______ ____
ROOT
ATOM      1  C   UNL     1       2.277   6.552  20.088  0.00  0.00    +0.000 A 
ATOM      2  C   UNL     1       3.312   6.868  19.207  0.00  0.00    +0.000 A 
ATOM      3  C   UNL     1       3.685   5.918  18.283  0.00  0.00    +0.000 A 
ATOM      4  C   UNL     1       3.157   4.636  18.240  0.00  0.00    +0.000 A 
ATOM      5  C   UNL     1       2.216   4.245  19.187  0.00  0.00    +0.000 A 
ATOM      6  C   UNL     1       1.748   5.238  20.085  0.00  0.00    +0.000 A 
ATOM      7  C   UNL     1       3.751   3.906  17.073  0.00  0.00    +0.000 C 
ATOM      8  N   UNL     1       4.644   4.897  16.474  0.00  0.00    +0.000 N 
ATOM      9  C   UNL     1       4.629   6.091  17.188  0.00  0.00    +0.000 C 
ATOM     10  O   UNL     1       5.222   7.144  17.029  0.00  0.00    +0.000 OA
ENDROOT
BRANCH   8  11
ATOM     11  C   UNL     1       5.404   4.651  15.299  0.00  0.00    +0.000 A 
ATOM     12  C   UNL     1       6.745   5.061  15.208  0.00  0.00    +0.000 A 
ATOM     13  C   UNL     1       7.513   4.808  14.068  0.00  0.00    +0.000 A 
ATOM     14  C   UNL     1       6.944   4.147  12.989  0.00  0.00    +0.000 A 
ATOM     15  C   UNL     1       5.617   3.751  13.061  0.00  0.00    +0.000 A 
ATOM     16  F   UNL     1       5.060   3.123  12.018  0.00  0.00    +0.000 F 
ATOM     17  C   UNL     1       4.846   3.991  14.200  0.00  0.00    +0.000 A 
ENDBRANCH   8  11
BRANCH   5  18
ATOM     18  C   UNL     1       1.740   2.814  19.294  0.00  0.00    +0.000 C 
ATOM     19  C   UNL     1       1.355   2.479  20.730  0.00  0.00    +0.000 C 
ATOM     20  F   UNL     1       0.662   2.556  18.501  0.00  0.00    +0.000 F 
ATOM     21  F   UNL     1       2.698   1.920  18.907  0.00  0.00    +0.000 F 
ENDBRANCH   5  18
BRANCH   1  22
ATOM     22  C   UNL     1       1.749   7.639  21.005  0.00  0.00    +0.000 C 
BRANCH  22  27
ATOM     23  C   UNL     1      -0.945  10.614  23.076  0.00  0.00    +0.000 C 
ATOM     24  C   UNL     1       0.119   9.853  22.300  0.00  0.00    +0.000 C 
ATOM     25  C   UNL     1       0.733  10.667  21.163  0.00  0.00    +0.000 C 
ATOM     26  C   UNL     1       0.794   9.703  19.982  0.00  0.00    +0.000 C 
ATOM     27  N   UNL     1       0.553   8.345  20.503  0.00  0.00    +0.000 NA
ATOM     28  C   UNL     1      -0.399   8.593  21.607  0.00  0.00    +0.000 C 
ENDBRANCH  22  27
ENDBRANCH   1  22
TORSDOF 4
ENDMDL
MODEL 8
REMARK VINA RESULT:      -8.5      2.742      8.510
REMARK  Name = 
REMARK  6 active torsions:
REMARK  status: ('A' for Active; 'I' for Inactive)
REMARK    1  A    between atoms: C_1  and  C_2
REMARK    2  A    between atoms: N_5  and  C_6
REMARK    3  A    between atoms: C_6  and  C_7
REMARK    4  A    between atoms: C_11  and  C_12
REMARK    5  A    between atoms: C_12  and  C_13
REMARK    6  A    between atoms: N_18  and  C_19
REMARK                            x       y       z     vdW  Elec       q    Type
REMARK                         _______ _______ _______ _____ _____    ______ ____
ROOT
ATOM      1  C   UNL     1       2.671   6.541  19.607  0.00  0.00    +0.000 A 
ATOM      2  C   UNL     1       3.642   6.875  18.661  0.00  0.00    +0.000 A 
ATOM      3  C   UNL     1       4.017   5.909  17.754  0.00  0.00    +0.000 A 
ATOM      4  C   UNL     1       3.557   4.601  17.786  0.00  0.00    +0.000 A 
ATOM      5  C   UNL     1       2.687   4.200  18.796  0.00  0.00    +0.000 A 
ATOM      6  C   UNL     1       2.213   5.203  19.679  0.00  0.00    +0.000 A 
ATOM      7  C   UNL     1       4.128   3.857  16.618  0.00  0.00    +0.000 C 
ATOM      8  N   UNL     1       4.936   4.867  15.936  0.00  0.00    +0.000 N 
ATOM      9  C   UNL     1       4.894   6.087  16.605  0.00  0.00    +0.000 C 
ATOM     10  O   UNL     1       5.421   7.161  16.376  0.00  0.00    +0.000 OA
ENDROOT
BRANCH   8  11
ATOM     11  C   UNL     1       5.647   4.615  14.733  0.00  0.00    +0.000 A 
ATOM     12  C   UNL     1       5.141   3.731  13.765  0.00  0.00    +0.000 A 
ATOM     13  C   UNL     1       5.817   3.489  12.566  0.00  0.00    +0.000 A 
ATOM     14  C   UNL     1       7.027   4.123  12.320  0.00  0.00    +0.000 A 
ATOM     15  C   UNL     1       7.544   4.987  13.274  0.00  0.00    +0.000 A 
ATOM     16  F   UNL     1       8.717   5.592  13.045  0.00  0.00    +0.000 F 
ATOM     17  C   UNL     1       6.870   5.242  14.469  0.00  0.00    +0.000 A 
ENDBRANCH   8  11
BRANCH   5  18
ATOM     18  C   UNL     1       2.295   2.752  18.981  0.00  0.00    +0.000 C 
ATOM     19  C   UNL     1       1.413   2.584  20.212  0.00  0.00    +0.000 C 
ATOM     20  F   UNL     1       1.617   2.249  17.910  0.00  0.00    +0.000 F 
ATOM     21  F   UNL     1       3.380   1.937  19.139  0.00  0.00    +0.000 F 
ENDBRANCH   5  18
BRANCH   1  22
ATOM     22  C   UNL     1       2.132   7.635  20.509  0.00  0.00    +0.000 C 
BRANCH  22  27
ATOM     23  C   UNL     1      -0.710  10.375  22.701  0.00  0.00    +0.000 C 
ATOM     24  C   UNL     1       0.380   9.706  21.879  0.00  0.00    +0.000 C 
ATOM     25  C   UNL     1       0.876  10.568  20.721  0.00  0.00    +0.000 C 
ATOM     26  C   UNL     1       0.968   9.613  19.534  0.00  0.00    +0.000 C 
ATOM     27  N   UNL     1       0.863   8.240  20.060  0.00  0.00    +0.000 NA
ATOM     28  C   UNL     1      -0.061   8.407  21.203  0.00  0.00    +0.000 C 
ENDBRANCH  22  27
ENDBRANCH   1  22
TORSDOF 4
ENDMDL
MODEL 9
REMARK VINA RESULT:      -8.4      1.444      2.127
REMARK  Name = 
REMARK  6 active torsions:
REMARK  status: ('A' for Active; 'I' for Inactive)
REMARK    1  A    between atoms: C_1  and  C_2
REMARK    2  A    between atoms: N_5  and  C_6
REMARK    3  A    between atoms: C_6  and  C_7
REMARK    4  A    between atoms: C_11  and  C_12
REMARK    5  A    between atoms: C_12  and  C_13
REMARK    6  A    between atoms: N_18  and  C_19
REMARK                            x       y       z     vdW  Elec       q    Type
REMARK                         _______ _______ _______ _____ _____    ______ ____
ROOT
ATOM      1  C   UNL     1       4.044   4.980  17.586  0.00  0.00    +0.000 A 
ATOM      2  C   UNL     1       3.471   6.253  17.574  0.00  0.00    +0.000 A 
ATOM      3  C   UNL     1       2.712   6.629  18.659  0.00  0.00    +0.000 A 
ATOM      4  C   UNL     1       2.406   5.785  19.716  0.00  0.00    +0.000 A 
ATOM      5  C   UNL     1       2.853   4.467  19.698  0.00  0.00    +0.000 A 
ATOM      6  C   UNL     1       3.717   4.090  18.638  0.00  0.00    +0.000 A 
ATOM      7  C   UNL     1       1.618   6.549  20.736  0.00  0.00    +0.000 C 
ATOM      8  N   UNL     1       1.522   7.887  20.154  0.00  0.00    +0.000 N 
ATOM      9  C   UNL     1       2.152   7.949  18.915  0.00  0.00    +0.000 C 
ATOM     10  O   UNL     1       2.292   8.857  18.116  0.00  0.00    +0.000 OA
ENDROOT
BRANCH   8  11
ATOM     11  C   UNL     1       0.878   8.975  20.803  0.00  0.00    +0.000 A 
ATOM     12  C   UNL     1       0.524   8.900  22.161  0.00  0.00    +0.000 A 
ATOM     13  C   UNL     1      -0.090   9.969  22.819  0.00  0.00    +0.000 A 
ATOM     14  C   UNL     1      -0.373  11.134  22.121  0.00  0.00    +0.000 A 
ATOM     15  C   UNL     1      -0.041  11.215  20.777  0.00  0.00    +0.000 A 
ATOM     16  F   UNL     1      -0.323  12.334  20.097  0.00  0.00    +0.000 F 
ATOM     17  C   UNL     1       0.580  10.156  20.114  0.00  0.00    +0.000 A 
ENDBRANCH   8  11
BRANCH   5  18
ATOM     18  C   UNL     1       2.405   3.459  20.732  0.00  0.00    +0.000 C 
ATOM     19  C   UNL     1       0.997   2.962  20.426  0.00  0.00    +0.000 C 
ATOM     20  F   UNL     1       3.226   2.373  20.800  0.00  0.00    +0.000 F 
ATOM     21  F   UNL     1       2.390   3.983  21.993  0.00  0.00    +0.000 F 
ENDBRANCH   5  18
BRANCH   1  22
ATOM     22  C   UNL     1       5.009   4.609  16.477  0.00  0.00    +0.000 C 
BRANCH  22  27
ATOM     23  C   UNL     1       7.886   7.935  17.506  0.00  0.00    +0.000 C 
ATOM     24  C   UNL     1       6.850   6.823  17.450  0.00  0.00    +0.000 C 
ATOM     25  C   UNL     1       6.729   6.046  18.759  0.00  0.00    +0.000 C 
ATOM     26  C   UNL     1       6.668   4.580  18.339  0.00  0.00    +0.000 C 
ATOM     27  N   UNL     1       6.426   4.544  16.885  0.00  0.00    +0.000 NA
ATOM     28  C   UNL     1       7.153   5.742  16.412  0.00  0.00    +0.000 C 
ENDBRANCH  22  27
ENDBRANCH   1  22
TORSDOF 4
ENDMDL
