MODEL 1
REMARK VINA RESULT:      -8.3      0.000      0.000
REMARK  Name = 
REMARK  3 active torsions:
REMARK  status: ('A' for Active; 'I' for Inactive)
REMARK    1  A    between atoms: N_3  and  C_4
REMARK    2  A    between atoms: C_4  and  C_5
REMARK    3  A    between atoms: N_18  and  C_19
REMARK                            x       y       z     vdW  Elec       q    Type
REMARK                         _______ _______ _______ _____ _____    ______ ____
ROOT
ATOM      1  O   UNL     1       0.437   9.171  21.679  0.00  0.00    +0.000 OA
ATOM      2  C   UNL     1       1.021   8.493  20.837  0.00  0.00    +0.000 C 
ATOM      3  N   UNL     1       1.352   8.949  19.603  0.00  0.00    +0.000 N 
ATOM      4  N   UNL     1       1.351   7.201  21.129  0.00  0.00    +0.000 N 
ATOM      5  C   UNL     1       2.075   6.312  20.365  0.00  0.00    +0.000 A 
ATOM      6  C   UNL     1       2.373   4.991  20.749  0.00  0.00    +0.000 A 
ATOM      7  C   UNL     1       3.130   4.482  19.722  0.00  0.00    +0.000 A 
ATOM      8  N   UNL     1       3.280   5.491  18.796  0.00  0.00    +0.000 N 
ATOM      9  N   UNL     1       2.589   6.598  19.168  0.00  0.00    +0.000 NA
ATOM     10  H   UNL     1       1.813   8.280  18.991  0.00  0.00    +0.000 HD
ATOM     11  H   UNL     1       1.052   6.896  22.043  0.00  0.00    +0.000 HD
ENDROOT
BRANCH   8  12
ATOM     12  C   UNL     1       4.017   5.468  17.581  0.00  0.00    +0.000 A 
ATOM     13  C   UNL     1       4.423   6.658  16.962  0.00  0.00    +0.000 A 
ATOM     14  C   UNL     1       5.183   6.611  15.792  0.00  0.00    +0.000 A 
ATOM     15  C   UNL     1       5.533   5.385  15.228  0.00  0.00    +0.000 A 
ATOM     16  C   UNL     1       5.109   4.198  15.823  0.00  0.00    +0.000 A 
ATOM     17  C   UNL     1       4.350   4.236  16.994  0.00  0.00    +0.000 A 
ENDBRANCH   8  12
BRANCH   3  18
ATOM     18  C   UNL     1       1.083  10.280  19.132  0.00  0.00    +0.000 C 
BRANCH  18  19
ATOM     19  C   UNL     1      -0.348  10.431  18.676  0.00  0.00    +0.000 A 
ATOM     20  C   UNL     1      -0.815   9.699  17.559  0.00  0.00    +0.000 A 
ATOM     21  C   UNL     1      -2.127   9.846  17.095  0.00  0.00    +0.000 A 
ATOM     22  C   UNL     1      -2.949  10.717  17.769  0.00  0.00    +0.000 A 
ATOM     23  C   UNL     1      -2.515  11.421  18.872  0.00  0.00    +0.000 A 
ATOM     24  C   UNL     1      -1.226  11.293  19.351  0.00  0.00    +0.000 A 
ATOM     25  O   UNL     1      -3.482  12.223  19.388  0.00  0.00    +0.000 OA
ATOM     26  C   UNL     1      -4.565  11.971  18.467  0.00  0.00    +0.000 C 
ATOM     27  O   UNL     1      -4.244  10.998  17.453  0.00  0.00    +0.000 OA
ENDBRANCH  18  19
ENDBRANCH   3  18
TORSDOF 3
ENDMDL
MODEL 2
REMARK VINA RESULT:      -8.2      0.686      1.423
REMARK  Name = 
REMARK  3 active torsions:
REMARK  status: ('A' for Active; 'I' for Inactive)
REMARK    1  A    between atoms: N_3  and  C_4
REMARK    2  A    between atoms: C_4  and  C_5
REMARK    3  A    between atoms: N_18  and  C_19
REMARK                            x       y       z     vdW  Elec       q    Type
REMARK                         _______ _______ _______ _____ _____    ______ ____
ROOT
ATOM      1  O   UNL     1       0.508   9.156  21.854  0.00  0.00    +0.000 OA
ATOM      2  C   UNL     1       1.068   8.483  20.991  0.00  0.00    +0.000 C 
ATOM      3  N   UNL     1       1.479   8.982  19.799  0.00  0.00    +0.000 N 
ATOM      4  N   UNL     1       1.283   7.153  21.214  0.00  0.00    +0.000 N 
ATOM      5  C   UNL     1       1.962   6.256  20.421  0.00  0.00    +0.000 A 
ATOM      6  C   UNL     1       2.140   4.894  20.732  0.00  0.00    +0.000 A 
ATOM      7  C   UNL     1       2.892   4.386  19.701  0.00  0.00    +0.000 A 
ATOM      8  N   UNL     1       3.155   5.433  18.844  0.00  0.00    +0.000 N 
ATOM      9  N   UNL     1       2.541   6.568  19.260  0.00  0.00    +0.000 NA
ATOM     10  H   UNL     1       1.907   8.315  19.162  0.00  0.00    +0.000 HD
ATOM     11  H   UNL     1       0.927   6.822  22.098  0.00  0.00    +0.000 HD
ENDROOT
BRANCH   8  12
ATOM     12  C   UNL     1       3.933   5.421  17.654  0.00  0.00    +0.000 A 
ATOM     13  C   UNL     1       4.378   6.615  17.073  0.00  0.00    +0.000 A 
ATOM     14  C   UNL     1       5.177   6.579  15.928  0.00  0.00    +0.000 A 
ATOM     15  C   UNL     1       5.526   5.358  15.352  0.00  0.00    +0.000 A 
ATOM     16  C   UNL     1       5.064   4.167  15.909  0.00  0.00    +0.000 A 
ATOM     17  C   UNL     1       4.267   4.195  17.055  0.00  0.00    +0.000 A 
ENDBRANCH   8  12
BRANCH   3  18
ATOM     18  C   UNL     1       1.334  10.356  19.402  0.00  0.00    +0.000 C 
BRANCH  18  19
ATOM     19  C   UNL     1      -0.055  10.643  18.887  0.00  0.00    +0.000 A 
ATOM     20  C   UNL     1      -0.886  11.562  19.571  0.00  0.00    +0.000 A 
ATOM     21  C   UNL     1      -2.190  11.821  19.136  0.00  0.00    +0.000 A 
ATOM     22  C   UNL     1      -2.632  11.162  18.013  0.00  0.00    +0.000 A 
ATOM     23  C   UNL     1      -1.828  10.281  17.323  0.00  0.00    +0.000 A 
ATOM     24  C   UNL     1      -0.536  10.008  17.732  0.00  0.00    +0.000 A 
ATOM     25  O   UNL     1      -2.455   9.740  16.248  0.00  0.00    +0.000 OA
ATOM     26  C   UNL     1      -3.757  10.354  16.354  0.00  0.00    +0.000 C 
ATOM     27  O   UNL     1      -3.870  11.277  17.455  0.00  0.00    +0.000 OA
ENDBRANCH  18  19
ENDBRANCH   3  18
TORSDOF 3
ENDMDL
MODEL 3
REMARK VINA RESULT:      -8.1      1.842      3.558
REMARK  Name = 
REMARK  3 active torsions:
REMARK  status: ('A' for Active; 'I' for Inactive)
REMARK    1  A    between atoms: N_3  and  C_4
REMARK    2  A    between atoms: C_4  and  C_5
REMARK    3  A    between atoms: N_18  and  C_19
REMARK                            x       y       z     vdW  Elec       q    Type
REMARK                         _______ _______ _______ _____ _____    ______ ____
ROOT
ATOM      1  O   UNL     1       1.772  11.271  18.093  0.00  0.00    +0.000 OA
ATOM      2  C   UNL     1       1.844  10.071  18.353  0.00  0.00    +0.000 C 
ATOM      3  N   UNL     1       0.984   9.431  19.184  0.00  0.00    +0.000 N 
ATOM      4  N   UNL     1       2.844   9.325  17.800  0.00  0.00    +0.000 N 
ATOM      5  C   UNL     1       3.044   7.966  17.895  0.00  0.00    +0.000 A 
ATOM      6  C   UNL     1       4.107   7.274  17.285  0.00  0.00    +0.000 A 
ATOM      7  C   UNL     1       3.906   5.953  17.605  0.00  0.00    +0.000 A 
ATOM      8  N   UNL     1       2.749   5.894  18.351  0.00  0.00    +0.000 N 
ATOM      9  N   UNL     1       2.249   7.135  18.571  0.00  0.00    +0.000 NA
ATOM     10  H   UNL     1       1.166   8.442  19.335  0.00  0.00    +0.000 HD
ATOM     11  H   UNL     1       3.478   9.852  17.219  0.00  0.00    +0.000 HD
ENDROOT
BRANCH   8  12
ATOM     12  C   UNL     1       2.102   4.744  18.881  0.00  0.00    +0.000 A 
ATOM     13  C   UNL     1       1.790   4.656  20.244  0.00  0.00    +0.000 A 
ATOM     14  C   UNL     1       1.116   3.537  20.735  0.00  0.00    +0.000 A 
ATOM     15  C   UNL     1       0.758   2.498  19.876  0.00  0.00    +0.000 A 
ATOM     16  C   UNL     1       1.088   2.567  18.524  0.00  0.00    +0.000 A 
ATOM     17  C   UNL     1       1.761   3.684  18.025  0.00  0.00    +0.000 A 
ENDBRANCH   8  12
BRANCH   3  18
ATOM     18  C   UNL     1      -0.123  10.062  19.848  0.00  0.00    +0.000 C 
BRANCH  18  19
ATOM     19  C   UNL     1      -1.204  10.460  18.872  0.00  0.00    +0.000 A 
ATOM     20  C   UNL     1      -2.113  11.492  19.207  0.00  0.00    +0.000 A 
ATOM     21  C   UNL     1      -3.145  11.857  18.336  0.00  0.00    +0.000 A 
ATOM     22  C   UNL     1      -3.237  11.188  17.139  0.00  0.00    +0.000 A 
ATOM     23  C   UNL     1      -2.346  10.196  16.789  0.00  0.00    +0.000 A 
ATOM     24  C   UNL     1      -1.318   9.818  17.630  0.00  0.00    +0.000 A 
ATOM     25  O   UNL     1      -2.614   9.666  15.568  0.00  0.00    +0.000 OA
ATOM     26  C   UNL     1      -3.795  10.412  15.199  0.00  0.00    +0.000 C 
ATOM     27  O   UNL     1      -4.181  11.397  16.178  0.00  0.00    +0.000 OA
ENDBRANCH  18  19
ENDBRANCH   3  18
TORSDOF 3
ENDMDL
MODEL 4
REMARK VINA RESULT:      -7.9      4.528      7.862
REMARK  Name = 
REMARK  3 active torsions:
REMARK  status: ('A' for Active; 'I' for Inactive)
REMARK    1  A    between atoms: N_3  and  C_4
REMARK    2  A    between atoms: C_4  and  C_5
REMARK    3  A    between atoms: N_18  and  C_19
REMARK                            x       y       z     vdW  Elec       q    Type
REMARK                         _______ _______ _______ _____ _____    ______ ____
ROOT
ATOM      1  O   UNL     1      -3.454  12.847  24.169  0.00  0.00    +0.000 OA
ATOM      2  C   UNL     1      -3.433  12.629  22.960  0.00  0.00    +0.000 C 
ATOM      3  N   UNL     1      -2.377  12.074  22.316  0.00  0.00    +0.000 N 
ATOM      4  N   UNL     1      -4.513  12.972  22.199  0.00  0.00    +0.000 N 
ATOM      5  C   UNL     1      -4.720  12.735  20.858  0.00  0.00    +0.000 A 
ATOM      6  C   UNL     1      -5.874  13.123  20.150  0.00  0.00    +0.000 A 
ATOM      7  C   UNL     1      -5.679  12.665  18.869  0.00  0.00    +0.000 A 
ATOM      8  N   UNL     1      -4.465  12.014  18.857  0.00  0.00    +0.000 N 
ATOM      9  N   UNL     1      -3.854  12.102  20.065  0.00  0.00    +0.000 NA
ATOM     10  H   UNL     1      -2.476  11.968  21.309  0.00  0.00    +0.000 HD
ATOM     11  H   UNL     1      -5.257  13.414  22.716  0.00  0.00    +0.000 HD
ENDROOT
BRANCH   8  12
ATOM     12  C   UNL     1      -3.843  11.333  17.776  0.00  0.00    +0.000 A 
ATOM     13  C   UNL     1      -2.674  10.585  17.972  0.00  0.00    +0.000 A 
ATOM     14  C   UNL     1      -2.103   9.890  16.904  0.00  0.00    +0.000 A 
ATOM     15  C   UNL     1      -2.685   9.942  15.638  0.00  0.00    +0.000 A 
ATOM     16  C   UNL     1      -3.832  10.705  15.430  0.00  0.00    +0.000 A 
ATOM     17  C   UNL     1      -4.410  11.403  16.493  0.00  0.00    +0.000 A 
ENDBRANCH   8  12
BRANCH   3  18
ATOM     18  C   UNL     1      -1.163  11.653  22.961  0.00  0.00    +0.000 C 
BRANCH  18  19
ATOM     19  C   UNL     1      -0.380  10.691  22.101  0.00  0.00    +0.000 A 
ATOM     20  C   UNL     1       0.170   9.519  22.672  0.00  0.00    +0.000 A 
ATOM     21  C   UNL     1       0.929   8.629  21.905  0.00  0.00    +0.000 A 
ATOM     22  C   UNL     1       1.112   8.925  20.576  0.00  0.00    +0.000 A 
ATOM     23  C   UNL     1       0.564  10.051  19.999  0.00  0.00    +0.000 A 
ATOM     24  C   UNL     1      -0.190  10.945  20.733  0.00  0.00    +0.000 A 
ATOM     25  O   UNL     1       0.864  10.155  18.679  0.00  0.00    +0.000 OA
ATOM     26  C   UNL     1       1.689   8.985  18.493  0.00  0.00    +0.000 C 
ATOM     27  O   UNL     1       1.830   8.186  19.684  0.00  0.00    +0.000 OA
ENDBRANCH  18  19
ENDBRANCH   3  18
TORSDOF 3
ENDMDL
MODEL 5
REMARK VINA RESULT:      -7.9      1.768      3.267
REMARK  Name = 
REMARK  3 active torsions:
REMARK  status: ('A' for Active; 'I' for Inactive)
REMARK    1  A    between atoms: N_3  and  C_4
REMARK    2  A    between atoms: C_4  and  C_5
REMARK    3  A    between atoms: N_18  and  C_19
REMARK                            x       y       z     vdW  Elec       q    Type
REMARK                         _______ _______ _______ _____ _____    ______ ____
ROOT
ATOM      1  O   UNL     1       1.691  11.410  18.007  0.00  0.00    +0.000 OA
ATOM      2  C   UNL     1       1.770  10.214  18.281  0.00  0.00    +0.000 C 
ATOM      3  N   UNL     1       0.904   9.575  19.106  0.00  0.00    +0.000 N 
ATOM      4  N   UNL     1       2.787   9.472  17.753  0.00  0.00    +0.000 N 
ATOM      5  C   UNL     1       2.999   8.116  17.866  0.00  0.00    +0.000 A 
ATOM      6  C   UNL     1       4.079   7.428  17.281  0.00  0.00    +0.000 A 
ATOM      7  C   UNL     1       3.886   6.109  17.613  0.00  0.00    +0.000 A 
ATOM      8  N   UNL     1       2.717   6.046  18.341  0.00  0.00    +0.000 N 
ATOM      9  N   UNL     1       2.201   7.285  18.539  0.00  0.00    +0.000 NA
ATOM     10  H   UNL     1       1.093   8.589  19.271  0.00  0.00    +0.000 HD
ATOM     11  H   UNL     1       3.425   9.999  17.176  0.00  0.00    +0.000 HD
ENDROOT
BRANCH   8  12
ATOM     12  C   UNL     1       2.072   4.896  18.873  0.00  0.00    +0.000 A 
ATOM     13  C   UNL     1       1.781   4.801  20.240  0.00  0.00    +0.000 A 
ATOM     14  C   UNL     1       1.109   3.681  20.734  0.00  0.00    +0.000 A 
ATOM     15  C   UNL     1       0.734   2.650  19.874  0.00  0.00    +0.000 A 
ATOM     16  C   UNL     1       1.044   2.726  18.517  0.00  0.00    +0.000 A 
ATOM     17  C   UNL     1       1.714   3.843  18.016  0.00  0.00    +0.000 A 
ENDBRANCH   8  12
BRANCH   3  18
ATOM     18  C   UNL     1      -0.221  10.201  19.744  0.00  0.00    +0.000 C 
BRANCH  18  19
ATOM     19  C   UNL     1      -1.368  10.398  18.784  0.00  0.00    +0.000 A 
ATOM     20  C   UNL     1      -1.353   9.755  17.524  0.00  0.00    +0.000 A 
ATOM     21  C   UNL     1      -2.388   9.948  16.601  0.00  0.00    +0.000 A 
ATOM     22  C   UNL     1      -3.425  10.773  16.967  0.00  0.00    +0.000 A 
ATOM     23  C   UNL     1      -3.465  11.389  18.200  0.00  0.00    +0.000 A 
ATOM     24  C   UNL     1      -2.457  11.214  19.128  0.00  0.00    +0.000 A 
ATOM     25  O   UNL     1      -4.572  12.158  18.359  0.00  0.00    +0.000 OA
ATOM     26  C   UNL     1      -5.212  11.984  17.076  0.00  0.00    +0.000 C 
ATOM     27  O   UNL     1      -4.504  11.087  16.198  0.00  0.00    +0.000 OA
ENDBRANCH  18  19
ENDBRANCH   3  18
TORSDOF 3
ENDMDL
MODEL 6
REMARK VINA RESULT:      -7.8      1.711      3.339
REMARK  Name = 
REMARK  3 active torsions:
REMARK  status: ('A' for Active; 'I' for Inactive)
REMARK    1  A    between atoms: N_3  and  C_4
REMARK    2  A    between atoms: C_4  and  C_5
REMARK    3  A    between atoms: N_18  and  C_19
REMARK                            x       y       z     vdW  Elec       q    Type
REMARK                         _______ _______ _______ _____ _____    ______ ____
ROOT
ATOM      1  O   UNL     1       2.073  11.253  17.901  0.00  0.00    +0.000 OA
ATOM      2  C   UNL     1       2.082  10.060  18.201  0.00  0.00    +0.000 C 
ATOM      3  N   UNL     1       1.207   9.499  19.071  0.00  0.00    +0.000 N 
ATOM      4  N   UNL     1       3.026   9.240  17.655  0.00  0.00    +0.000 N 
ATOM      5  C   UNL     1       3.151   7.875  17.792  0.00  0.00    +0.000 A 
ATOM      6  C   UNL     1       4.160   7.103  17.185  0.00  0.00    +0.000 A 
ATOM      7  C   UNL     1       3.892   5.808  17.556  0.00  0.00    +0.000 A 
ATOM      8  N   UNL     1       2.750   5.840  18.326  0.00  0.00    +0.000 N 
ATOM      9  N   UNL     1       2.326   7.114  18.513  0.00  0.00    +0.000 NA
ATOM     10  H   UNL     1       1.335   8.506  19.253  0.00  0.00    +0.000 HD
ATOM     11  H   UNL     1       3.676   9.710  17.043  0.00  0.00    +0.000 HD
ENDROOT
BRANCH   8  12
ATOM     12  C   UNL     1       2.050   4.748  18.908  0.00  0.00    +0.000 A 
ATOM     13  C   UNL     1       1.565   3.699  18.116  0.00  0.00    +0.000 A 
ATOM     14  C   UNL     1       0.918   2.615  18.712  0.00  0.00    +0.000 A 
ATOM     15  C   UNL     1       0.741   2.575  20.095  0.00  0.00    +0.000 A 
ATOM     16  C   UNL     1       1.197   3.628  20.886  0.00  0.00    +0.000 A 
ATOM     17  C   UNL     1       1.846   4.714  20.297  0.00  0.00    +0.000 A 
ENDBRANCH   8  12
BRANCH   3  18
ATOM     18  C   UNL     1       0.151  10.214  19.734  0.00  0.00    +0.000 C 
BRANCH  18  19
ATOM     19  C   UNL     1      -1.043  10.408  18.832  0.00  0.00    +0.000 A 
ATOM     20  C   UNL     1      -1.079   9.784  17.563  0.00  0.00    +0.000 A 
ATOM     21  C   UNL     1      -2.158   9.975  16.693  0.00  0.00    +0.000 A 
ATOM     22  C   UNL     1      -3.188  10.779  17.120  0.00  0.00    +0.000 A 
ATOM     23  C   UNL     1      -3.179  11.375  18.362  0.00  0.00    +0.000 A 
ATOM     24  C   UNL     1      -2.126  11.202  19.240  0.00  0.00    +0.000 A 
ATOM     25  O   UNL     1      -4.288  12.126  18.586  0.00  0.00    +0.000 OA
ATOM     26  C   UNL     1      -4.985  11.962  17.331  0.00  0.00    +0.000 C 
ATOM     27  O   UNL     1      -4.307  11.088  16.407  0.00  0.00    +0.000 OA
ENDBRANCH  18  19
ENDBRANCH   3  18
TORSDOF 3
ENDMDL
MODEL 7
REMARK VINA RESULT:      -7.7      2.790      7.690
REMARK  Name = 
REMARK  3 active torsions:
REMARK  status: ('A' for Active; 'I' for Inactive)
REMARK    1  A    between atoms: N_3  and  C_4
REMARK    2  A    between atoms: C_4  and  C_5
REMARK    3  A    between atoms: N_18  and  C_19
REMARK                            x       y       z     vdW  Elec       q    Type
REMARK                         _______ _______ _______ _____ _____    ______ ____
ROOT
ATOM      1  O   UNL     1       1.745   9.209  22.852  0.00  0.00    +0.000 OA
ATOM      2  C   UNL     1       1.061   9.536  21.884  0.00  0.00    +0.000 C 
ATOM      3  N   UNL     1       0.785   8.707  20.847  0.00  0.00    +0.000 N 
ATOM      4  N   UNL     1       0.555  10.802  21.819  0.00  0.00    +0.000 N 
ATOM      5  C   UNL     1      -0.295  11.332  20.874  0.00  0.00    +0.000 A 
ATOM      6  C   UNL     1      -0.773  12.656  20.886  0.00  0.00    +0.000 A 
ATOM      7  C   UNL     1      -1.606  12.746  19.797  0.00  0.00    +0.000 A 
ATOM      8  N   UNL     1      -1.622  11.504  19.201  0.00  0.00    +0.000 N 
ATOM      9  N   UNL     1      -0.778  10.651  19.832  0.00  0.00    +0.000 NA
ATOM     10  H   UNL     1       0.228   9.107  20.096  0.00  0.00    +0.000 HD
ATOM     11  H   UNL     1       0.818  11.391  22.595  0.00  0.00    +0.000 HD
ENDROOT
BRANCH   8  12
ATOM     12  C   UNL     1      -2.368  11.082  18.067  0.00  0.00    +0.000 A 
ATOM     13  C   UNL     1      -3.642  11.604  17.808  0.00  0.00    +0.000 A 
ATOM     14  C   UNL     1      -4.340  11.207  16.666  0.00  0.00    +0.000 A 
ATOM     15  C   UNL     1      -3.780  10.284  15.784  0.00  0.00    +0.000 A 
ATOM     16  C   UNL     1      -2.524   9.741  16.049  0.00  0.00    +0.000 A 
ATOM     17  C   UNL     1      -1.819  10.134  17.188  0.00  0.00    +0.000 A 
ENDBRANCH   8  12
BRANCH   3  18
ATOM     18  C   UNL     1       1.234   7.346  20.755  0.00  0.00    +0.000 C 
BRANCH  18  19
ATOM     19  C   UNL     1       2.220   7.159  19.627  0.00  0.00    +0.000 A 
ATOM     20  C   UNL     1       2.265   8.095  18.566  0.00  0.00    +0.000 A 
ATOM     21  C   UNL     1       3.145   7.927  17.491  0.00  0.00    +0.000 A 
ATOM     22  C   UNL     1       3.972   6.829  17.507  0.00  0.00    +0.000 A 
ATOM     23  C   UNL     1       3.955   5.921  18.544  0.00  0.00    +0.000 A 
ATOM     24  C   UNL     1       3.097   6.064  19.617  0.00  0.00    +0.000 A 
ATOM     25  O   UNL     1       4.847   4.913  18.365  0.00  0.00    +0.000 OA
ATOM     26  C   UNL     1       5.408   5.271  17.083  0.00  0.00    +0.000 C 
ATOM     27  O   UNL     1       4.877   6.497  16.545  0.00  0.00    +0.000 OA
ENDBRANCH  18  19
ENDBRANCH   3  18
TORSDOF 3
ENDMDL
MODEL 8
REMARK VINA RESULT:      -7.6      2.825      7.531
REMARK  Name = 
REMARK  3 active torsions:
REMARK  status: ('A' for Active; 'I' for Inactive)
REMARK    1  A    between atoms: N_3  and  C_4
REMARK    2  A    between atoms: C_4  and  C_5
REMARK    3  A    between atoms: N_18  and  C_19
REMARK                            x       y       z     vdW  Elec       q    Type
REMARK                         _______ _______ _______ _____ _____    ______ ____
ROOT
ATOM      1  O   UNL     1       0.756   9.639  23.467  0.00  0.00    +0.000 OA
ATOM      2  C   UNL     1       0.243   9.905  22.381  0.00  0.00    +0.000 C 
ATOM      3  N   UNL     1       0.317   9.092  21.298  0.00  0.00    +0.000 N 
ATOM      4  N   UNL     1      -0.429  11.083  22.228  0.00  0.00    +0.000 N 
ATOM      5  C   UNL     1      -1.139  11.522  21.134  0.00  0.00    +0.000 A 
ATOM      6  C   UNL     1      -1.809  12.759  21.063  0.00  0.00    +0.000 A 
ATOM      7  C   UNL     1      -2.405  12.774  19.825  0.00  0.00    +0.000 A 
ATOM      8  N   UNL     1      -2.105  11.572  19.222  0.00  0.00    +0.000 N 
ATOM      9  N   UNL     1      -1.287  10.826  20.005  0.00  0.00    +0.000 NA
ATOM     10  H   UNL     1      -0.130   9.438  20.452  0.00  0.00    +0.000 HD
ATOM     11  H   UNL     1      -0.425  11.668  23.050  0.00  0.00    +0.000 HD
ENDROOT
BRANCH   8  12
ATOM     12  C   UNL     1      -2.529  11.096  17.952  0.00  0.00    +0.000 A 
ATOM     13  C   UNL     1      -1.803  10.107  17.274  0.00  0.00    +0.000 A 
ATOM     14  C   UNL     1      -2.260   9.623  16.047  0.00  0.00    +0.000 A 
ATOM     15  C   UNL     1      -3.433  10.126  15.485  0.00  0.00    +0.000 A 
ATOM     16  C   UNL     1      -4.145  11.128  16.141  0.00  0.00    +0.000 A 
ATOM     17  C   UNL     1      -3.696  11.616  17.369  0.00  0.00    +0.000 A 
ENDBRANCH   8  12
BRANCH   3  18
ATOM     18  C   UNL     1       0.981   7.818  21.283  0.00  0.00    +0.000 C 
BRANCH  18  19
ATOM     19  C   UNL     1       1.822   7.642  20.043  0.00  0.00    +0.000 A 
ATOM     20  C   UNL     1       1.830   8.646  19.046  0.00  0.00    +0.000 A 
ATOM     21  C   UNL     1       2.574   8.493  17.871  0.00  0.00    +0.000 A 
ATOM     22  C   UNL     1       3.306   7.339  17.724  0.00  0.00    +0.000 A 
ATOM     23  C   UNL     1       3.326   6.362  18.695  0.00  0.00    +0.000 A 
ATOM     24  C   UNL     1       2.602   6.489  19.865  0.00  0.00    +0.000 A 
ATOM     25  O   UNL     1       4.110   5.307  18.353  0.00  0.00    +0.000 OA
ATOM     26  C   UNL     1       4.558   5.714  17.042  0.00  0.00    +0.000 C 
ATOM     27  O   UNL     1       4.074   7.012  16.647  0.00  0.00    +0.000 OA
ENDBRANCH  18  19
ENDBRANCH   3  18
TORSDOF 3
ENDMDL
MODEL 9
REMARK VINA RESULT:      -7.6      5.055      9.678
REMARK  Name = 
REMARK  3 active torsions:
REMARK  status: ('A' for Active; 'I' for Inactive)
REMARK    1  A    between atoms: N_3  and  C_4
REMARK    2  A    between atoms: C_4  and  C_5
REMARK    3  A    between atoms: N_18  and  C_19
REMARK                            x       y       z     vdW  Elec       q    Type
REMARK                         _______ _______ _______ _____ _____    ______ ____
ROOT
ATOM      1  O   UNL     1      -3.310  11.156  15.416  0.00  0.00    +0.000 OA
ATOM      2  C   UNL     1      -3.769  11.301  16.548  0.00  0.00    +0.000 C 
ATOM      3  N   UNL     1      -3.017  11.240  17.675  0.00  0.00    +0.000 N 
ATOM      4  N   UNL     1      -5.107  11.519  16.705  0.00  0.00    +0.000 N 
ATOM      5  C   UNL     1      -5.795  11.790  17.867  0.00  0.00    +0.000 A 
ATOM      6  C   UNL     1      -7.184  12.007  17.937  0.00  0.00    +0.000 A 
ATOM      7  C   UNL     1      -7.439  12.272  19.261  0.00  0.00    +0.000 A 
ATOM      8  N   UNL     1      -6.228  12.233  19.917  0.00  0.00    +0.000 N 
ATOM      9  N   UNL     1      -5.227  11.887  19.070  0.00  0.00    +0.000 NA
ATOM     10  H   UNL     1      -3.521  11.353  18.551  0.00  0.00    +0.000 HD
ATOM     11  H   UNL     1      -5.628  11.520  15.841  0.00  0.00    +0.000 HD
ENDROOT
BRANCH   8  12
ATOM     12  C   UNL     1      -5.964  12.485  21.291  0.00  0.00    +0.000 A 
ATOM     13  C   UNL     1      -4.661  12.738  21.740  0.00  0.00    +0.000 A 
ATOM     14  C   UNL     1      -4.430  13.024  23.087  0.00  0.00    +0.000 A 
ATOM     15  C   UNL     1      -5.490  13.051  23.992  0.00  0.00    +0.000 A 
ATOM     16  C   UNL     1      -6.785  12.774  23.558  0.00  0.00    +0.000 A 
ATOM     17  C   UNL     1      -7.024  12.488  22.213  0.00  0.00    +0.000 A 
ENDBRANCH   8  12
BRANCH   3  18
ATOM     18  C   UNL     1      -1.597  11.021  17.693  0.00  0.00    +0.000 C 
BRANCH  18  19
ATOM     19  C   UNL     1      -1.080  10.832  19.098  0.00  0.00    +0.000 A 
ATOM     20  C   UNL     1      -1.506  11.701  20.130  0.00  0.00    +0.000 A 
ATOM     21  C   UNL     1      -1.015  11.570  21.434  0.00  0.00    +0.000 A 
ATOM     22  C   UNL     1      -0.116  10.561  21.680  0.00  0.00    +0.000 A 
ATOM     23  C   UNL     1       0.292   9.692  20.690  0.00  0.00    +0.000 A 
ATOM     24  C   UNL     1      -0.178   9.799  19.396  0.00  0.00    +0.000 A 
ATOM     25  O   UNL     1       1.181   8.771  21.142  0.00  0.00    +0.000 OA
ATOM     26  C   UNL     1       1.314   9.175  22.523  0.00  0.00    +0.000 C 
ATOM     27  O   UNL     1       0.476  10.292  22.878  0.00  0.00    +0.000 OA
ENDBRANCH  18  19
ENDBRANCH   3  18
TORSDOF 3
ENDMDL
