MODEL 1
REMARK VINA RESULT:      -9.4      0.000      0.000
REMARK  Name = 
REMARK  3 active torsions:
REMARK  status: ('A' for Active; 'I' for Inactive)
REMARK    1  A    between atoms: C_2  and  C_5
REMARK    2  A    between atoms: N_8  and  C_9
REMARK    3  A    between atoms: C_9  and  C_10
REMARK                            x       y       z     vdW  Elec       q    Type
REMARK                         _______ _______ _______ _____ _____    ______ ____
ROOT
ATOM      1  C   UNL     1       2.757   6.615  18.905  0.00  0.00    +0.000 A 
ATOM      2  N   UNL     1       4.001   6.166  18.645  0.00  0.00    +0.000 NA
ATOM      3  C   UNL     1       4.360   4.941  19.079  0.00  0.00    +0.000 A 
ATOM      4  N   UNL     1       5.696   4.530  18.834  0.00  0.00    +0.000 N 
ATOM      5  C   UNL     1       3.468   4.140  19.823  0.00  0.00    +0.000 A 
ATOM      6  C   UNL     1       3.732   2.845  20.347  0.00  0.00    +0.000 A 
ATOM      7  C   UNL     1       2.763   2.147  21.077  0.00  0.00    +0.000 A 
ATOM      8  C   UNL     1       1.524   2.730  21.302  0.00  0.00    +0.000 A 
ATOM      9  C   UNL     1       1.260   3.997  20.783  0.00  0.00    +0.000 A 
ATOM     10  C   UNL     1       2.199   4.703  20.048  0.00  0.00    +0.000 A 
ATOM     11  N   UNL     1       1.844   5.906  19.600  0.00  0.00    +0.000 NA
ATOM     12  H   UNL     1       5.712   3.574  18.497  0.00  0.00    +0.000 HD
ENDROOT
BRANCH   1  14
ATOM     13  F   UNL     1       1.404   8.001  17.436  0.00  0.00    +0.000 F 
ATOM     14  C   UNL     1       2.365   8.010  18.409  0.00  0.00    +0.000 C 
ATOM     15  F   UNL     1       3.415   8.701  17.870  0.00  0.00    +0.000 F 
ATOM     16  F   UNL     1       1.865   8.812  19.398  0.00  0.00    +0.000 F 
ENDBRANCH   1  14
BRANCH   4  17
ATOM     17  C   UNL     1       6.397   5.422  17.905  0.00  0.00    +0.000 C 
BRANCH  17  18
ATOM     18  C   UNL     1       6.482   4.928  16.497  0.00  0.00    +0.000 A 
ATOM     19  C   UNL     1       5.672   4.043  15.808  0.00  0.00    +0.000 A 
ATOM     20  C   UNL     1       6.079   4.035  14.447  0.00  0.00    +0.000 A 
ATOM     21  C   UNL     1       5.613   3.381  13.289  0.00  0.00    +0.000 A 
ATOM     22  C   UNL     1       6.246   3.617  12.063  0.00  0.00    +0.000 A 
ATOM     23  C   UNL     1       7.327   4.492  11.980  0.00  0.00    +0.000 A 
ATOM     24  C   UNL     1       7.804   5.158  13.117  0.00  0.00    +0.000 A 
ATOM     25  C   UNL     1       7.163   4.908  14.337  0.00  0.00    +0.000 A 
ATOM     26  N   UNL     1       7.398   5.419  15.597  0.00  0.00    +0.000 N 
ATOM     27  H   UNL     1       8.112   6.102  15.810  0.00  0.00    +0.000 HD
ENDBRANCH  17  18
ENDBRANCH   4  17
TORSDOF 3
ENDMDL
MODEL 2
REMARK VINA RESULT:      -8.9      4.100      8.422
REMARK  Name = 
REMARK  3 active torsions:
REMARK  status: ('A' for Active; 'I' for Inactive)
REMARK    1  A    between atoms: C_2  and  C_5
REMARK    2  A    between atoms: N_8  and  C_9
REMARK    3  A    between atoms: C_9  and  C_10
REMARK                            x       y       z     vdW  Elec       q    Type
REMARK                         _______ _______ _______ _____ _____    ______ ____
ROOT
ATOM      1  C   UNL     1       2.144   3.744  18.941  0.00  0.00    +0.000 A 
ATOM      2  N   UNL     1       1.959   4.916  19.579  0.00  0.00    +0.000 NA
ATOM      3  C   UNL     1       2.629   6.006  19.156  0.00  0.00    +0.000 A 
ATOM      4  N   UNL     1       2.449   7.207  19.890  0.00  0.00    +0.000 N 
ATOM      5  C   UNL     1       3.539   5.931  18.080  0.00  0.00    +0.000 A 
ATOM      6  C   UNL     1       4.313   7.000  17.553  0.00  0.00    +0.000 A 
ATOM      7  C   UNL     1       5.190   6.800  16.481  0.00  0.00    +0.000 A 
ATOM      8  C   UNL     1       5.314   5.535  15.924  0.00  0.00    +0.000 A 
ATOM      9  C   UNL     1       4.549   4.486  16.434  0.00  0.00    +0.000 A 
ATOM     10  C   UNL     1       3.667   4.662  17.489  0.00  0.00    +0.000 A 
ATOM     11  N   UNL     1       2.987   3.593  17.900  0.00  0.00    +0.000 NA
ATOM     12  H   UNL     1       2.317   7.989  19.258  0.00  0.00    +0.000 HD
ENDROOT
BRANCH   1  14
ATOM     13  F   UNL     1       0.218   2.272  18.752  0.00  0.00    +0.000 F 
ATOM     14  C   UNL     1       1.378   2.514  19.437  0.00  0.00    +0.000 C 
ATOM     15  F   UNL     1       1.007   2.607  20.750  0.00  0.00    +0.000 F 
ATOM     16  F   UNL     1       2.099   1.355  19.339  0.00  0.00    +0.000 F 
ENDBRANCH   1  14
BRANCH   4  17
ATOM     17  C   UNL     1       1.343   7.119  20.848  0.00  0.00    +0.000 C 
BRANCH  17  18
ATOM     18  C   UNL     1       0.704   8.424  21.198  0.00  0.00    +0.000 A 
ATOM     19  C   UNL     1      -0.237   8.729  22.165  0.00  0.00    +0.000 A 
ATOM     20  C   UNL     1      -0.392  10.142  22.205  0.00  0.00    +0.000 A 
ATOM     21  C   UNL     1      -1.157  11.021  22.997  0.00  0.00    +0.000 A 
ATOM     22  C   UNL     1      -1.058  12.401  22.784  0.00  0.00    +0.000 A 
ATOM     23  C   UNL     1      -0.212  12.908  21.802  0.00  0.00    +0.000 A 
ATOM     24  C   UNL     1       0.563  12.054  21.006  0.00  0.00    +0.000 A 
ATOM     25  C   UNL     1       0.450  10.675  21.228  0.00  0.00    +0.000 A 
ATOM     26  N   UNL     1       1.087   9.612  20.620  0.00  0.00    +0.000 N 
ATOM     27  H   UNL     1       1.779   9.705  19.889  0.00  0.00    +0.000 HD
ENDBRANCH  17  18
ENDBRANCH   4  17
TORSDOF 3
ENDMDL
MODEL 3
REMARK VINA RESULT:      -8.9      4.034      8.451
REMARK  Name = 
REMARK  3 active torsions:
REMARK  status: ('A' for Active; 'I' for Inactive)
REMARK    1  A    between atoms: C_2  and  C_5
REMARK    2  A    between atoms: N_8  and  C_9
REMARK    3  A    between atoms: C_9  and  C_10
REMARK                            x       y       z     vdW  Elec       q    Type
REMARK                         _______ _______ _______ _____ _____    ______ ____
ROOT
ATOM      1  C   UNL     1       2.090   3.749  18.874  0.00  0.00    +0.000 A 
ATOM      2  N   UNL     1       1.984   4.935  19.507  0.00  0.00    +0.000 NA
ATOM      3  C   UNL     1       2.714   5.979  19.070  0.00  0.00    +0.000 A 
ATOM      4  N   UNL     1       2.616   7.192  19.799  0.00  0.00    +0.000 N 
ATOM      5  C   UNL     1       3.604   5.843  17.983  0.00  0.00    +0.000 A 
ATOM      6  C   UNL     1       4.436   6.860  17.441  0.00  0.00    +0.000 A 
ATOM      7  C   UNL     1       5.286   6.601  16.360  0.00  0.00    +0.000 A 
ATOM      8  C   UNL     1       5.326   5.328  15.809  0.00  0.00    +0.000 A 
ATOM      9  C   UNL     1       4.505   4.330  16.335  0.00  0.00    +0.000 A 
ATOM     10  C   UNL     1       3.648   4.565  17.399  0.00  0.00    +0.000 A 
ATOM     11  N   UNL     1       2.909   3.542  17.824  0.00  0.00    +0.000 NA
ATOM     12  H   UNL     1       2.524   7.977  19.164  0.00  0.00    +0.000 HD
ENDROOT
BRANCH   1  14
ATOM     13  F   UNL     1       0.721   2.772  20.630  0.00  0.00    +0.000 F 
ATOM     14  C   UNL     1       1.257   2.571  19.387  0.00  0.00    +0.000 C 
ATOM     15  F   UNL     1       1.975   1.411  19.489  0.00  0.00    +0.000 F 
ATOM     16  F   UNL     1       0.191   2.274  18.582  0.00  0.00    +0.000 F 
ENDBRANCH   1  14
BRANCH   4  17
ATOM     17  C   UNL     1       1.519   7.177  20.771  0.00  0.00    +0.000 C 
BRANCH  17  18
ATOM     18  C   UNL     1       0.869   8.502  21.011  0.00  0.00    +0.000 A 
ATOM     19  C   UNL     1       0.561   9.521  20.128  0.00  0.00    +0.000 A 
ATOM     20  C   UNL     1      -0.203  10.497  20.824  0.00  0.00    +0.000 A 
ATOM     21  C   UNL     1      -0.823  11.706  20.449  0.00  0.00    +0.000 A 
ATOM     22  C   UNL     1      -1.537  12.437  21.405  0.00  0.00    +0.000 A 
ATOM     23  C   UNL     1      -1.642  11.980  22.716  0.00  0.00    +0.000 A 
ATOM     24  C   UNL     1      -1.039  10.778  23.110  0.00  0.00    +0.000 A 
ATOM     25  C   UNL     1      -0.324  10.059  22.144  0.00  0.00    +0.000 A 
ATOM     26  N   UNL     1       0.351   8.859  22.235  0.00  0.00    +0.000 N 
ATOM     27  H   UNL     1       0.407   8.298  23.074  0.00  0.00    +0.000 HD
ENDBRANCH  17  18
ENDBRANCH   4  17
TORSDOF 3
ENDMDL
MODEL 4
REMARK VINA RESULT:      -8.7      3.295      7.854
REMARK  Name = 
REMARK  3 active torsions:
REMARK  status: ('A' for Active; 'I' for Inactive)
REMARK    1  A    between atoms: C_2  and  C_5
REMARK    2  A    between atoms: N_8  and  C_9
REMARK    3  A    between atoms: C_9  and  C_10
REMARK                            x       y       z     vdW  Elec       q    Type
REMARK                         _______ _______ _______ _____ _____    ______ ____
ROOT
ATOM      1  C   UNL     1       2.795   4.753  18.623  0.00  0.00    +0.000 A 
ATOM      2  N   UNL     1       2.534   6.047  18.348  0.00  0.00    +0.000 NA
ATOM      3  C   UNL     1       3.534   6.841  17.919  0.00  0.00    +0.000 A 
ATOM      4  N   UNL     1       3.229   8.209  17.696  0.00  0.00    +0.000 N 
ATOM      5  C   UNL     1       4.849   6.348  17.781  0.00  0.00    +0.000 A 
ATOM      6  C   UNL     1       5.987   7.085  17.355  0.00  0.00    +0.000 A 
ATOM      7  C   UNL     1       7.248   6.484  17.263  0.00  0.00    +0.000 A 
ATOM      8  C   UNL     1       7.395   5.146  17.601  0.00  0.00    +0.000 A 
ATOM      9  C   UNL     1       6.278   4.418  18.013  0.00  0.00    +0.000 A 
ATOM     10  C   UNL     1       5.018   4.989  18.102  0.00  0.00    +0.000 A 
ATOM     11  N   UNL     1       4.021   4.205  18.507  0.00  0.00    +0.000 NA
ATOM     12  H   UNL     1       3.636   8.521  16.821  0.00  0.00    +0.000 HD
ENDROOT
BRANCH   1  14
ATOM     13  F   UNL     1       2.064   2.698  19.696  0.00  0.00    +0.000 F 
ATOM     14  C   UNL     1       1.648   3.865  19.115  0.00  0.00    +0.000 C 
ATOM     15  F   UNL     1       0.798   3.485  18.113  0.00  0.00    +0.000 F 
ATOM     16  F   UNL     1       0.862   4.473  20.055  0.00  0.00    +0.000 F 
ENDBRANCH   1  14
BRANCH   4  17
ATOM     17  C   UNL     1       1.789   8.475  17.725  0.00  0.00    +0.000 C 
BRANCH  17  18
ATOM     18  C   UNL     1       1.292   9.134  18.972  0.00  0.00    +0.000 A 
ATOM     19  C   UNL     1       0.678  10.360  19.152  0.00  0.00    +0.000 A 
ATOM     20  C   UNL     1       0.248  10.448  20.504  0.00  0.00    +0.000 A 
ATOM     21  C   UNL     1      -0.457  11.416  21.247  0.00  0.00    +0.000 A 
ATOM     22  C   UNL     1      -0.744  11.174  22.595  0.00  0.00    +0.000 A 
ATOM     23  C   UNL     1      -0.342   9.988  23.203  0.00  0.00    +0.000 A 
ATOM     24  C   UNL     1       0.356   9.008  22.484  0.00  0.00    +0.000 A 
ATOM     25  C   UNL     1       0.639   9.267  21.136  0.00  0.00    +0.000 A 
ATOM     26  N   UNL     1       1.287   8.498  20.191  0.00  0.00    +0.000 N 
ATOM     27  H   UNL     1       1.654   7.573  20.364  0.00  0.00    +0.000 HD
ENDBRANCH  17  18
ENDBRANCH   4  17
TORSDOF 3
ENDMDL
MODEL 5
REMARK VINA RESULT:      -8.7      4.225      8.537
REMARK  Name = 
REMARK  3 active torsions:
REMARK  status: ('A' for Active; 'I' for Inactive)
REMARK    1  A    between atoms: C_2  and  C_5
REMARK    2  A    between atoms: N_8  and  C_9
REMARK    3  A    between atoms: C_9  and  C_10
REMARK                            x       y       z     vdW  Elec       q    Type
REMARK                         _______ _______ _______ _____ _____    ______ ____
ROOT
ATOM      1  C   UNL     1       2.460   3.875  19.562  0.00  0.00    +0.000 A 
ATOM      2  N   UNL     1       2.153   5.105  20.020  0.00  0.00    +0.000 NA
ATOM      3  C   UNL     1       2.630   6.185  19.370  0.00  0.00    +0.000 A 
ATOM      4  N   UNL     1       2.330   7.459  19.918  0.00  0.00    +0.000 N 
ATOM      5  C   UNL     1       3.466   6.047  18.242  0.00  0.00    +0.000 A 
ATOM      6  C   UNL     1       4.043   7.103  17.485  0.00  0.00    +0.000 A 
ATOM      7  C   UNL     1       4.865   6.839  16.383  0.00  0.00    +0.000 A 
ATOM      8  C   UNL     1       5.130   5.525  16.025  0.00  0.00    +0.000 A 
ATOM      9  C   UNL     1       4.559   4.487  16.763  0.00  0.00    +0.000 A 
ATOM     10  C   UNL     1       3.735   4.724  17.851  0.00  0.00    +0.000 A 
ATOM     11  N   UNL     1       3.243   3.660  18.486  0.00  0.00    +0.000 NA
ATOM     12  H   UNL     1       2.046   8.098  19.185  0.00  0.00    +0.000 HD
ENDROOT
BRANCH   1  14
ATOM     13  F   UNL     1       2.722   2.230  21.332  0.00  0.00    +0.000 F 
ATOM     14  C   UNL     1       1.914   2.658  20.314  0.00  0.00    +0.000 C 
ATOM     15  F   UNL     1       1.739   1.565  19.510  0.00  0.00    +0.000 F 
ATOM     16  F   UNL     1       0.697   2.886  20.895  0.00  0.00    +0.000 F 
ENDBRANCH   1  14
BRANCH   4  17
ATOM     17  C   UNL     1       1.316   7.392  20.974  0.00  0.00    +0.000 C 
BRANCH  17  18
ATOM     18  C   UNL     1       0.654   8.693  21.299  0.00  0.00    +0.000 A 
ATOM     19  C   UNL     1      -0.315   8.993  22.238  0.00  0.00    +0.000 A 
ATOM     20  C   UNL     1      -0.486  10.404  22.265  0.00  0.00    +0.000 A 
ATOM     21  C   UNL     1      -1.281  11.280  23.031  0.00  0.00    +0.000 A 
ATOM     22  C   UNL     1      -1.191  12.659  22.813  0.00  0.00    +0.000 A 
ATOM     23  C   UNL     1      -0.325  13.170  21.850  0.00  0.00    +0.000 A 
ATOM     24  C   UNL     1       0.480  12.319  21.080  0.00  0.00    +0.000 A 
ATOM     25  C   UNL     1       0.376  10.941  21.308  0.00  0.00    +0.000 A 
ATOM     26  N   UNL     1       1.040   9.881  20.723  0.00  0.00    +0.000 N 
ATOM     27  H   UNL     1       1.750   9.977  20.011  0.00  0.00    +0.000 HD
ENDBRANCH  17  18
ENDBRANCH   4  17
TORSDOF 3
ENDMDL
MODEL 6
REMARK VINA RESULT:      -8.6      3.380      7.604
REMARK  Name = 
REMARK  3 active torsions:
REMARK  status: ('A' for Active; 'I' for Inactive)
REMARK    1  A    between atoms: C_2  and  C_5
REMARK    2  A    between atoms: N_8  and  C_9
REMARK    3  A    between atoms: C_9  and  C_10
REMARK                            x       y       z     vdW  Elec       q    Type
REMARK                         _______ _______ _______ _____ _____    ______ ____
ROOT
ATOM      1  C   UNL     1       5.359   5.917  17.701  0.00  0.00    +0.000 A 
ATOM      2  N   UNL     1       4.266   6.697  17.823  0.00  0.00    +0.000 NA
ATOM      3  C   UNL     1       3.061   6.116  17.987  0.00  0.00    +0.000 A 
ATOM      4  N   UNL     1       1.931   6.971  18.055  0.00  0.00    +0.000 N 
ATOM      5  C   UNL     1       2.924   4.712  18.003  0.00  0.00    +0.000 A 
ATOM      6  C   UNL     1       1.713   3.983  18.152  0.00  0.00    +0.000 A 
ATOM      7  C   UNL     1       1.704   2.583  18.146  0.00  0.00    +0.000 A 
ATOM      8  C   UNL     1       2.895   1.891  17.985  0.00  0.00    +0.000 A 
ATOM      9  C   UNL     1       4.087   2.604  17.845  0.00  0.00    +0.000 A 
ATOM     10  C   UNL     1       4.122   3.990  17.858  0.00  0.00    +0.000 A 
ATOM     11  N   UNL     1       5.313   4.570  17.716  0.00  0.00    +0.000 NA
ATOM     12  H   UNL     1       1.317   6.682  18.808  0.00  0.00    +0.000 HD
ENDROOT
BRANCH   1  14
ATOM     13  F   UNL     1       7.403   6.157  16.407  0.00  0.00    +0.000 F 
ATOM     14  C   UNL     1       6.720   6.593  17.510  0.00  0.00    +0.000 C 
ATOM     15  F   UNL     1       7.571   6.390  18.562  0.00  0.00    +0.000 F 
ATOM     16  F   UNL     1       6.632   7.950  17.363  0.00  0.00    +0.000 F 
ENDBRANCH   1  14
BRANCH   4  17
ATOM     17  C   UNL     1       2.300   8.382  18.196  0.00  0.00    +0.000 C 
BRANCH  17  18
ATOM     18  C   UNL     1       1.590   9.116  19.287  0.00  0.00    +0.000 A 
ATOM     19  C   UNL     1       0.952  10.343  19.272  0.00  0.00    +0.000 A 
ATOM     20  C   UNL     1       0.290  10.515  20.517  0.00  0.00    +0.000 A 
ATOM     21  C   UNL     1      -0.537  11.522  21.056  0.00  0.00    +0.000 A 
ATOM     22  C   UNL     1      -1.058  11.366  22.345  0.00  0.00    +0.000 A 
ATOM     23  C   UNL     1      -0.769  10.230  23.096  0.00  0.00    +0.000 A 
ATOM     24  C   UNL     1       0.047   9.214  22.579  0.00  0.00    +0.000 A 
ATOM     25  C   UNL     1       0.564   9.385  21.288  0.00  0.00    +0.000 A 
ATOM     26  N   UNL     1       1.370   8.563  20.527  0.00  0.00    +0.000 N 
ATOM     27  H   UNL     1       1.703   7.656  20.825  0.00  0.00    +0.000 HD
ENDBRANCH  17  18
ENDBRANCH   4  17
TORSDOF 3
ENDMDL
MODEL 7
REMARK VINA RESULT:      -8.5      4.166      8.590
REMARK  Name = 
REMARK  3 active torsions:
REMARK  status: ('A' for Active; 'I' for Inactive)
REMARK    1  A    between atoms: C_2  and  C_5
REMARK    2  A    between atoms: N_8  and  C_9
REMARK    3  A    between atoms: C_9  and  C_10
REMARK                            x       y       z     vdW  Elec       q    Type
REMARK                         _______ _______ _______ _____ _____    ______ ____
ROOT
ATOM      1  C   UNL     1       3.107   3.956  19.935  0.00  0.00    +0.000 A 
ATOM      2  N   UNL     1       2.619   5.187  20.187  0.00  0.00    +0.000 NA
ATOM      3  C   UNL     1       2.906   6.193  19.336  0.00  0.00    +0.000 A 
ATOM      4  N   UNL     1       2.420   7.484  19.669  0.00  0.00    +0.000 N 
ATOM      5  C   UNL     1       3.729   5.983  18.210  0.00  0.00    +0.000 A 
ATOM      6  C   UNL     1       4.115   6.961  17.253  0.00  0.00    +0.000 A 
ATOM      7  C   UNL     1       4.944   6.631  16.174  0.00  0.00    +0.000 A 
ATOM      8  C   UNL     1       5.406   5.330  16.038  0.00  0.00    +0.000 A 
ATOM      9  C   UNL     1       5.023   4.367  16.972  0.00  0.00    +0.000 A 
ATOM     10  C   UNL     1       4.194   4.667  18.042  0.00  0.00    +0.000 A 
ATOM     11  N   UNL     1       3.891   3.673  18.875  0.00  0.00    +0.000 NA
ATOM     12  H   UNL     1       2.022   7.930  18.850  0.00  0.00    +0.000 HD
ENDROOT
BRANCH   1  14
ATOM     13  F   UNL     1       2.297   3.260  22.119  0.00  0.00    +0.000 F 
ATOM     14  C   UNL     1       2.776   2.825  20.913  0.00  0.00    +0.000 C 
ATOM     15  F   UNL     1       3.858   2.046  21.217  0.00  0.00    +0.000 F 
ATOM     16  F   UNL     1       1.824   1.965  20.439  0.00  0.00    +0.000 F 
ENDBRANCH   1  14
BRANCH   4  17
ATOM     17  C   UNL     1       1.452   7.454  20.769  0.00  0.00    +0.000 C 
BRANCH  17  18
ATOM     18  C   UNL     1       0.737   8.744  21.017  0.00  0.00    +0.000 A 
ATOM     19  C   UNL     1       0.347   9.735  20.134  0.00  0.00    +0.000 A 
ATOM     20  C   UNL     1      -0.449  10.674  20.844  0.00  0.00    +0.000 A 
ATOM     21  C   UNL     1      -1.145  11.843  20.477  0.00  0.00    +0.000 A 
ATOM     22  C   UNL     1      -1.870  12.545  21.447  0.00  0.00    +0.000 A 
ATOM     23  C   UNL     1      -1.910  12.097  22.765  0.00  0.00    +0.000 A 
ATOM     24  C   UNL     1      -1.230  10.934  23.152  0.00  0.00    +0.000 A 
ATOM     25  C   UNL     1      -0.505  10.245  22.171  0.00  0.00    +0.000 A 
ATOM     26  N   UNL     1       0.237   9.085  22.252  0.00  0.00    +0.000 N 
ATOM     27  H   UNL     1       0.349   8.537  23.094  0.00  0.00    +0.000 HD
ENDBRANCH  17  18
ENDBRANCH   4  17
TORSDOF 3
ENDMDL
MODEL 8
REMARK VINA RESULT:      -8.4      3.751      7.133
REMARK  Name = 
REMARK  3 active torsions:
REMARK  status: ('A' for Active; 'I' for Inactive)
REMARK    1  A    between atoms: C_2  and  C_5
REMARK    2  A    between atoms: N_8  and  C_9
REMARK    3  A    between atoms: C_9  and  C_10
REMARK                            x       y       z     vdW  Elec       q    Type
REMARK                         _______ _______ _______ _____ _____    ______ ____
ROOT
ATOM      1  C   UNL     1       5.586   5.071  18.640  0.00  0.00    +0.000 A 
ATOM      2  N   UNL     1       4.664   5.998  18.313  0.00  0.00    +0.000 NA
ATOM      3  C   UNL     1       3.367   5.638  18.246  0.00  0.00    +0.000 A 
ATOM      4  N   UNL     1       2.437   6.631  17.843  0.00  0.00    +0.000 N 
ATOM      5  C   UNL     1       2.967   4.306  18.482  0.00  0.00    +0.000 A 
ATOM      6  C   UNL     1       1.639   3.801  18.426  0.00  0.00    +0.000 A 
ATOM      7  C   UNL     1       1.366   2.451  18.676  0.00  0.00    +0.000 A 
ATOM      8  C   UNL     1       2.408   1.586  18.977  0.00  0.00    +0.000 A 
ATOM      9  C   UNL     1       3.711   2.081  19.039  0.00  0.00    +0.000 A 
ATOM     10  C   UNL     1       4.005   3.415  18.806  0.00  0.00    +0.000 A 
ATOM     11  N   UNL     1       5.283   3.781  18.890  0.00  0.00    +0.000 NA
ATOM     12  H   UNL     1       1.617   6.606  18.440  0.00  0.00    +0.000 HD
ENDROOT
BRANCH   1  14
ATOM     13  F   UNL     1       7.319   6.680  18.074  0.00  0.00    +0.000 F 
ATOM     14  C   UNL     1       7.056   5.495  18.708  0.00  0.00    +0.000 C 
ATOM     15  F   UNL     1       7.903   4.586  18.135  0.00  0.00    +0.000 F 
ATOM     16  F   UNL     1       7.509   5.666  19.987  0.00  0.00    +0.000 F 
ENDBRANCH   1  14
BRANCH   4  17
ATOM     17  C   UNL     1       3.023   7.973  17.817  0.00  0.00    +0.000 C 
BRANCH  17  18
ATOM     18  C   UNL     1       2.171   9.048  18.413  0.00  0.00    +0.000 A 
ATOM     19  C   UNL     1       1.870  10.314  17.945  0.00  0.00    +0.000 A 
ATOM     20  C   UNL     1       0.882  10.880  18.796  0.00  0.00    +0.000 A 
ATOM     21  C   UNL     1       0.172  12.097  18.798  0.00  0.00    +0.000 A 
ATOM     22  C   UNL     1      -0.775  12.338  19.800  0.00  0.00    +0.000 A 
ATOM     23  C   UNL     1      -1.021  11.389  20.788  0.00  0.00    +0.000 A 
ATOM     24  C   UNL     1      -0.330  10.169  20.803  0.00  0.00    +0.000 A 
ATOM     25  C   UNL     1       0.617   9.943  19.796  0.00  0.00    +0.000 A 
ATOM     26  N   UNL     1       1.425   8.852  19.552  0.00  0.00    +0.000 N 
ATOM     27  H   UNL     1       1.424   8.006  20.106  0.00  0.00    +0.000 HD
ENDBRANCH  17  18
ENDBRANCH   4  17
TORSDOF 3
ENDMDL
MODEL 9
REMARK VINA RESULT:      -8.4      2.356      7.033
REMARK  Name = 
REMARK  3 active torsions:
REMARK  status: ('A' for Active; 'I' for Inactive)
REMARK    1  A    between atoms: C_2  and  C_5
REMARK    2  A    between atoms: N_8  and  C_9
REMARK    3  A    between atoms: C_9  and  C_10
REMARK                            x       y       z     vdW  Elec       q    Type
REMARK                         _______ _______ _______ _____ _____    ______ ____
ROOT
ATOM      1  C   UNL     1       6.945   5.209  17.341  0.00  0.00    +0.000 A 
ATOM      2  N   UNL     1       5.720   4.670  17.494  0.00  0.00    +0.000 NA
ATOM      3  C   UNL     1       5.100   4.138  16.422  0.00  0.00    +0.000 A 
ATOM      4  N   UNL     1       3.788   3.632  16.614  0.00  0.00    +0.000 N 
ATOM      5  C   UNL     1       5.699   4.163  15.145  0.00  0.00    +0.000 A 
ATOM      6  C   UNL     1       5.143   3.651  13.941  0.00  0.00    +0.000 A 
ATOM      7  C   UNL     1       5.836   3.740  12.728  0.00  0.00    +0.000 A 
ATOM      8  C   UNL     1       7.084   4.344  12.695  0.00  0.00    +0.000 A 
ATOM      9  C   UNL     1       7.635   4.841  13.876  0.00  0.00    +0.000 A 
ATOM     10  C   UNL     1       6.973   4.755  15.091  0.00  0.00    +0.000 A 
ATOM     11  N   UNL     1       7.589   5.263  16.158  0.00  0.00    +0.000 NA
ATOM     12  H   UNL     1       3.688   2.733  16.157  0.00  0.00    +0.000 HD
ENDROOT
BRANCH   1  14
ATOM     13  F   UNL     1       8.684   5.070  19.035  0.00  0.00    +0.000 F 
ATOM     14  C   UNL     1       7.635   5.814  18.568  0.00  0.00    +0.000 C 
ATOM     15  F   UNL     1       6.794   5.961  19.637  0.00  0.00    +0.000 F 
ATOM     16  F   UNL     1       8.154   7.058  18.334  0.00  0.00    +0.000 F 
ENDBRANCH   1  14
BRANCH   4  17
ATOM     17  C   UNL     1       3.422   3.540  18.030  0.00  0.00    +0.000 C 
BRANCH  17  18
ATOM     18  C   UNL     1       2.793   4.770  18.603  0.00  0.00    +0.000 A 
ATOM     19  C   UNL     1       2.321   5.022  19.878  0.00  0.00    +0.000 A 
ATOM     20  C   UNL     1       1.973   6.398  19.959  0.00  0.00    +0.000 A 
ATOM     21  C   UNL     1       1.489   7.227  20.991  0.00  0.00    +0.000 A 
ATOM     22  C   UNL     1       1.265   8.584  20.735  0.00  0.00    +0.000 A 
ATOM     23  C   UNL     1       1.517   9.119  19.474  0.00  0.00    +0.000 A 
ATOM     24  C   UNL     1       2.003   8.316  18.434  0.00  0.00    +0.000 A 
ATOM     25  C   UNL     1       2.220   6.958  18.704  0.00  0.00    +0.000 A 
ATOM     26  N   UNL     1       2.697   5.946  17.897  0.00  0.00    +0.000 N 
ATOM     27  H   UNL     1       2.985   6.072  16.936  0.00  0.00    +0.000 HD
ENDBRANCH  17  18
ENDBRANCH   4  17
TORSDOF 3
ENDMDL
