MODEL 1
REMARK VINA RESULT:      -9.0      0.000      0.000
REMARK  Name = 
REMARK  5 active torsions:
REMARK  status: ('A' for Active; 'I' for Inactive)
REMARK    1  A    between atoms: C_1  and  C_2
REMARK    2  A    between atoms: C_5  and  C_6
REMARK    3  A    between atoms: N_8  and  C_9
REMARK    4  A    between atoms: C_12  and  O_13
REMARK    5  A    between atoms: O_13  and  C_14
REMARK                            x       y       z     vdW  Elec       q    Type
REMARK                         _______ _______ _______ _____ _____    ______ ____
ROOT
ATOM      1  C   UNL     1       1.498   7.632  20.181  0.00  0.00    +0.000 A 
ATOM      2  C   UNL     1       2.307   7.771  19.047  0.00  0.00    +0.000 A 
ATOM      3  C   UNL     1       3.126   6.728  18.614  0.00  0.00    +0.000 A 
ATOM      4  C   UNL     1       3.170   5.532  19.319  0.00  0.00    +0.000 A 
ATOM      5  C   UNL     1       2.439   5.441  20.520  0.00  0.00    +0.000 A 
ATOM      6  F   UNL     1       2.455   4.330  21.274  0.00  0.00    +0.000 F 
ATOM      7  C   UNL     1       1.589   6.464  20.932  0.00  0.00    +0.000 A 
ENDROOT
BRANCH   1  10
ATOM      8  C   UNL     1       0.711   9.435  21.687  0.00  0.00    +0.000 C 
ATOM      9  O   UNL     1       1.689   9.413  22.448  0.00  0.00    +0.000 OA
ATOM     10  N   UNL     1       0.569   8.611  20.584  0.00  0.00    +0.000 N 
ATOM     11  H   UNL     1      -0.175   8.832  19.918  0.00  0.00    +0.000 HD
BRANCH   8  16
ATOM     12  C   UNL     1      -3.394  13.525  22.398  0.00  0.00    +0.000 C 
ATOM     13  C   UNL     1      -2.356  12.451  22.296  0.00  0.00    +0.000 A 
ATOM     14  C   UNL     1      -2.008  11.634  23.291  0.00  0.00    +0.000 A 
ATOM     15  C   UNL     1      -0.981  10.625  23.092  0.00  0.00    +0.000 A 
ATOM     16  C   UNL     1      -0.365  10.467  21.893  0.00  0.00    +0.000 A 
ATOM     17  C   UNL     1      -0.780  11.385  20.800  0.00  0.00    +0.000 A 
ATOM     18  O   UNL     1      -0.270  11.338  19.658  0.00  0.00    +0.000 OA
ATOM     19  N   UNL     1      -1.731  12.316  21.076  0.00  0.00    +0.000 N 
ATOM     20  H   UNL     1      -1.974  12.926  20.307  0.00  0.00    +0.000 HD
ENDBRANCH   8  16
ENDBRANCH   1  10
BRANCH   4  21
ATOM     21  O   UNL     1       3.946   4.531  18.759  0.00  0.00    +0.000 OA
BRANCH  21  22
ATOM     22  C   UNL     1       5.218   4.858  18.315  0.00  0.00    +0.000 A 
ATOM     23  C   UNL     1       6.172   5.244  19.253  0.00  0.00    +0.000 A 
ATOM     24  C   UNL     1       7.417   5.576  18.815  0.00  0.00    +0.000 A 
ATOM     25  N   UNL     1       7.802   5.474  17.541  0.00  0.00    +0.000 NA
ATOM     26  C   UNL     1       6.908   5.053  16.620  0.00  0.00    +0.000 A 
ATOM     27  C   UNL     1       7.343   4.899  15.307  0.00  0.00    +0.000 A 
ATOM     28  C   UNL     1       6.483   4.457  14.306  0.00  0.00    +0.000 A 
ATOM     29 CL   UNL     1       7.075   4.213  12.709  0.00  0.00    +0.000 Cl
ATOM     30  C   UNL     1       5.147   4.202  14.592  0.00  0.00    +0.000 A 
ATOM     31  C   UNL     1       4.685   4.368  15.901  0.00  0.00    +0.000 A 
ATOM     32  C   UNL     1       5.568   4.753  16.943  0.00  0.00    +0.000 A 
ENDBRANCH  21  22
ENDBRANCH   4  21
TORSDOF 4
ENDMDL
MODEL 2
REMARK VINA RESULT:      -8.7      1.066      1.380
REMARK  Name = 
REMARK  5 active torsions:
REMARK  status: ('A' for Active; 'I' for Inactive)
REMARK    1  A    between atoms: C_1  and  C_2
REMARK    2  A    between atoms: C_5  and  C_6
REMARK    3  A    between atoms: N_8  and  C_9
REMARK    4  A    between atoms: C_12  and  O_13
REMARK    5  A    between atoms: O_13  and  C_14
REMARK                            x       y       z     vdW  Elec       q    Type
REMARK                         _______ _______ _______ _____ _____    ______ ____
ROOT
ATOM      1  C   UNL     1       1.470   7.641  20.158  0.00  0.00    +0.000 A 
ATOM      2  C   UNL     1       1.546   6.408  20.817  0.00  0.00    +0.000 A 
ATOM      3  C   UNL     1       2.413   5.408  20.376  0.00  0.00    +0.000 A 
ATOM      4  C   UNL     1       3.204   5.612  19.252  0.00  0.00    +0.000 A 
ATOM      5  C   UNL     1       3.039   6.811  18.531  0.00  0.00    +0.000 A 
ATOM      6  F   UNL     1       3.744   7.069  17.418  0.00  0.00    +0.000 F 
ATOM      7  C   UNL     1       2.206   7.827  18.992  0.00  0.00    +0.000 A 
ENDROOT
BRANCH   1  10
ATOM      8  C   UNL     1       0.956   9.423  21.803  0.00  0.00    +0.000 C 
ATOM      9  O   UNL     1       1.908   9.188  22.560  0.00  0.00    +0.000 OA
ATOM     10  N   UNL     1       0.700   8.720  20.638  0.00  0.00    +0.000 N 
ATOM     11  H   UNL     1       0.009   9.107  19.991  0.00  0.00    +0.000 HD
BRANCH   8  16
ATOM     12  C   UNL     1      -2.441  14.045  22.892  0.00  0.00    +0.000 C 
ATOM     13  C   UNL     1      -1.617  12.815  22.668  0.00  0.00    +0.000 A 
ATOM     14  C   UNL     1      -1.795  11.655  23.302  0.00  0.00    +0.000 A 
ATOM     15  C   UNL     1      -0.936  10.518  23.017  0.00  0.00    +0.000 A 
ATOM     16  C   UNL     1       0.052  10.591  22.089  0.00  0.00    +0.000 A 
ATOM     17  C   UNL     1       0.221  11.893  21.391  0.00  0.00    +0.000 A 
ATOM     18  O   UNL     1       1.107  12.078  20.526  0.00  0.00    +0.000 OA
ATOM     19  N   UNL     1      -0.610  12.913  21.733  0.00  0.00    +0.000 N 
ATOM     20  H   UNL     1      -0.452  13.782  21.242  0.00  0.00    +0.000 HD
ENDBRANCH   8  16
ENDBRANCH   1  10
BRANCH   4  21
ATOM     21  O   UNL     1       4.092   4.594  18.948  0.00  0.00    +0.000 OA
BRANCH  21  22
ATOM     22  C   UNL     1       5.327   4.935  18.420  0.00  0.00    +0.000 A 
ATOM     23  C   UNL     1       6.313   5.406  19.282  0.00  0.00    +0.000 A 
ATOM     24  C   UNL     1       7.522   5.752  18.762  0.00  0.00    +0.000 A 
ATOM     25  N   UNL     1       7.845   5.589  17.477  0.00  0.00    +0.000 NA
ATOM     26  C   UNL     1       6.921   5.088  16.629  0.00  0.00    +0.000 A 
ATOM     27  C   UNL     1       7.293   4.873  15.305  0.00  0.00    +0.000 A 
ATOM     28  C   UNL     1       6.400   4.346  14.378  0.00  0.00    +0.000 A 
ATOM     29 CL   UNL     1       6.918   4.031  12.768  0.00  0.00    +0.000 Cl
ATOM     30  C   UNL     1       5.090   4.066  14.747  0.00  0.00    +0.000 A 
ATOM     31  C   UNL     1       4.690   4.291  16.068  0.00  0.00    +0.000 A 
ATOM     32  C   UNL     1       5.610   4.763  17.039  0.00  0.00    +0.000 A 
ENDBRANCH  21  22
ENDBRANCH   4  21
TORSDOF 4
ENDMDL
MODEL 3
REMARK VINA RESULT:      -8.7      0.797      1.325
REMARK  Name = 
REMARK  5 active torsions:
REMARK  status: ('A' for Active; 'I' for Inactive)
REMARK    1  A    between atoms: C_1  and  C_2
REMARK    2  A    between atoms: C_5  and  C_6
REMARK    3  A    between atoms: N_8  and  C_9
REMARK    4  A    between atoms: C_12  and  O_13
REMARK    5  A    between atoms: O_13  and  C_14
REMARK                            x       y       z     vdW  Elec       q    Type
REMARK                         _______ _______ _______ _____ _____    ______ ____
ROOT
ATOM      1  C   UNL     1       1.547   7.666  20.299  0.00  0.00    +0.000 A 
ATOM      2  C   UNL     1       2.194   7.872  19.075  0.00  0.00    +0.000 A 
ATOM      3  C   UNL     1       2.929   6.852  18.468  0.00  0.00    +0.000 A 
ATOM      4  C   UNL     1       3.049   5.613  19.086  0.00  0.00    +0.000 A 
ATOM      5  C   UNL     1       2.489   5.451  20.368  0.00  0.00    +0.000 A 
ATOM      6  F   UNL     1       2.590   4.295  21.043  0.00  0.00    +0.000 F 
ATOM      7  C   UNL     1       1.721   6.453  20.957  0.00  0.00    +0.000 A 
ENDROOT
BRANCH   1  10
ATOM      8  C   UNL     1       0.588   9.945  20.481  0.00  0.00    +0.000 C 
ATOM      9  O   UNL     1       1.222  10.435  19.536  0.00  0.00    +0.000 OA
ATOM     10  N   UNL     1       0.698   8.625  20.887  0.00  0.00    +0.000 N 
ATOM     11  H   UNL     1       0.002   8.271  21.547  0.00  0.00    +0.000 HD
BRANCH   8  16
ATOM     12  C   UNL     1      -3.409  13.081  23.359  0.00  0.00    +0.000 C 
ATOM     13  C   UNL     1      -2.409  12.314  22.549  0.00  0.00    +0.000 A 
ATOM     14  C   UNL     1      -2.281  12.398  21.224  0.00  0.00    +0.000 A 
ATOM     15  C   UNL     1      -1.280  11.606  20.528  0.00  0.00    +0.000 A 
ATOM     16  C   UNL     1      -0.437  10.780  21.199  0.00  0.00    +0.000 A 
ATOM     17  C   UNL     1      -0.597  10.714  22.675  0.00  0.00    +0.000 A 
ATOM     18  O   UNL     1       0.117   9.978  23.393  0.00  0.00    +0.000 OA
ATOM     19  N   UNL     1      -1.573  11.471  23.246  0.00  0.00    +0.000 N 
ATOM     20  H   UNL     1      -1.653  11.386  24.249  0.00  0.00    +0.000 HD
ENDBRANCH   8  16
ENDBRANCH   1  10
BRANCH   4  21
ATOM     21  O   UNL     1       3.724   4.643  18.363  0.00  0.00    +0.000 OA
BRANCH  21  22
ATOM     22  C   UNL     1       5.047   4.880  18.024  0.00  0.00    +0.000 A 
ATOM     23  C   UNL     1       5.955   5.162  19.041  0.00  0.00    +0.000 A 
ATOM     24  C   UNL     1       7.252   5.405  18.706  0.00  0.00    +0.000 A 
ATOM     25  N   UNL     1       7.722   5.310  17.460  0.00  0.00    +0.000 NA
ATOM     26  C   UNL     1       6.870   4.989  16.463  0.00  0.00    +0.000 A 
ATOM     27  C   UNL     1       7.388   4.839  15.180  0.00  0.00    +0.000 A 
ATOM     28  C   UNL     1       6.574   4.496  14.105  0.00  0.00    +0.000 A 
ATOM     29 CL   UNL     1       7.263   4.253  12.547  0.00  0.00    +0.000 Cl
ATOM     30  C   UNL     1       5.205   4.341  14.284  0.00  0.00    +0.000 A 
ATOM     31  C   UNL     1       4.661   4.505  15.562  0.00  0.00    +0.000 A 
ATOM     32  C   UNL     1       5.489   4.787  16.677  0.00  0.00    +0.000 A 
ENDBRANCH  21  22
ENDBRANCH   4  21
TORSDOF 4
ENDMDL
MODEL 4
REMARK VINA RESULT:      -8.7      1.184      1.824
REMARK  Name = 
REMARK  5 active torsions:
REMARK  status: ('A' for Active; 'I' for Inactive)
REMARK    1  A    between atoms: C_1  and  C_2
REMARK    2  A    between atoms: C_5  and  C_6
REMARK    3  A    between atoms: N_8  and  C_9
REMARK    4  A    between atoms: C_12  and  O_13
REMARK    5  A    between atoms: O_13  and  C_14
REMARK                            x       y       z     vdW  Elec       q    Type
REMARK                         _______ _______ _______ _____ _____    ______ ____
ROOT
ATOM      1  C   UNL     1       1.496   7.400  20.349  0.00  0.00    +0.000 A 
ATOM      2  C   UNL     1       1.622   6.127  20.916  0.00  0.00    +0.000 A 
ATOM      3  C   UNL     1       2.466   5.168  20.353  0.00  0.00    +0.000 A 
ATOM      4  C   UNL     1       3.182   5.456  19.198  0.00  0.00    +0.000 A 
ATOM      5  C   UNL     1       2.962   6.699  18.572  0.00  0.00    +0.000 A 
ATOM      6  F   UNL     1       3.593   7.038  17.436  0.00  0.00    +0.000 F 
ATOM      7  C   UNL     1       2.154   7.672  19.153  0.00  0.00    +0.000 A 
ENDROOT
BRANCH   1  10
ATOM      8  C   UNL     1       0.562   9.695  20.405  0.00  0.00    +0.000 C 
ATOM      9  O   UNL     1       1.021  10.056  19.313  0.00  0.00    +0.000 OA
ATOM     10  N   UNL     1       0.752   8.435  20.948  0.00  0.00    +0.000 N 
ATOM     11  H   UNL     1       0.181   8.175  21.756  0.00  0.00    +0.000 HD
BRANCH   8  16
ATOM     12  C   UNL     1      -2.932  13.206  23.496  0.00  0.00    +0.000 C 
ATOM     13  C   UNL     1      -2.064  12.344  22.633  0.00  0.00    +0.000 A 
ATOM     14  C   UNL     1      -2.033  12.390  21.300  0.00  0.00    +0.000 A 
ATOM     15  C   UNL     1      -1.158  11.505  20.551  0.00  0.00    +0.000 A 
ATOM     16  C   UNL     1      -0.334  10.626  21.177  0.00  0.00    +0.000 A 
ATOM     17  C   UNL     1      -0.382  10.604  22.663  0.00  0.00    +0.000 A 
ATOM     18  O   UNL     1       0.324   9.826  23.343  0.00  0.00    +0.000 OA
ATOM     19  N   UNL     1      -1.246  11.449  23.286  0.00  0.00    +0.000 N 
ATOM     20  H   UNL     1      -1.254  11.391  24.295  0.00  0.00    +0.000 HD
ENDBRANCH   8  16
ENDBRANCH   1  10
BRANCH   4  21
ATOM     21  O   UNL     1       4.055   4.470  18.769  0.00  0.00    +0.000 OA
BRANCH  21  22
ATOM     22  C   UNL     1       5.301   4.855  18.302  0.00  0.00    +0.000 A 
ATOM     23  C   UNL     1       6.248   5.303  19.219  0.00  0.00    +0.000 A 
ATOM     24  C   UNL     1       7.468   5.692  18.758  0.00  0.00    +0.000 A 
ATOM     25  N   UNL     1       7.839   5.592  17.479  0.00  0.00    +0.000 NA
ATOM     26  C   UNL     1       6.954   5.114  16.578  0.00  0.00    +0.000 A 
ATOM     27  C   UNL     1       7.377   4.965  15.260  0.00  0.00    +0.000 A 
ATOM     28  C   UNL     1       6.526   4.465  14.279  0.00  0.00    +0.000 A 
ATOM     29 CL   UNL     1       7.106   4.230  12.676  0.00  0.00    +0.000 Cl
ATOM     30  C   UNL     1       5.210   4.146  14.588  0.00  0.00    +0.000 A 
ATOM     31  C   UNL     1       4.759   4.306  15.903  0.00  0.00    +0.000 A 
ATOM     32  C   UNL     1       5.636   4.750  16.925  0.00  0.00    +0.000 A 
ENDBRANCH  21  22
ENDBRANCH   4  21
TORSDOF 4
ENDMDL
MODEL 5
REMARK VINA RESULT:      -8.6      3.232      4.337
REMARK  Name = 
REMARK  5 active torsions:
REMARK  status: ('A' for Active; 'I' for Inactive)
REMARK    1  A    between atoms: C_1  and  C_2
REMARK    2  A    between atoms: C_5  and  C_6
REMARK    3  A    between atoms: N_8  and  C_9
REMARK    4  A    between atoms: C_12  and  O_13
REMARK    5  A    between atoms: O_13  and  C_14
REMARK                            x       y       z     vdW  Elec       q    Type
REMARK                         _______ _______ _______ _____ _____    ______ ____
ROOT
ATOM      1  C   UNL     1      -0.317  10.114  19.123  0.00  0.00    +0.000 A 
ATOM      2  C   UNL     1       0.593   9.796  18.108  0.00  0.00    +0.000 A 
ATOM      3  C   UNL     1       1.665   8.935  18.346  0.00  0.00    +0.000 A 
ATOM      4  C   UNL     1       1.861   8.393  19.610  0.00  0.00    +0.000 A 
ATOM      5  C   UNL     1       1.007   8.807  20.651  0.00  0.00    +0.000 A 
ATOM      6  F   UNL     1       1.153   8.352  21.907  0.00  0.00    +0.000 F 
ATOM      7  C   UNL     1      -0.087   9.633  20.408  0.00  0.00    +0.000 A 
ENDROOT
BRANCH   1  10
ATOM      8  C   UNL     1      -2.590  10.450  18.194  0.00  0.00    +0.000 C 
ATOM      9  O   UNL     1      -2.697   9.326  17.685  0.00  0.00    +0.000 OA
ATOM     10  N   UNL     1      -1.478  10.880  18.898  0.00  0.00    +0.000 N 
ATOM     11  H   UNL     1      -1.561  11.746  19.435  0.00  0.00    +0.000 HD
BRANCH   8  16
ATOM     12  C   UNL     1      -7.125  14.127  18.121  0.00  0.00    +0.000 C 
ATOM     13  C   UNL     1      -5.983  13.160  18.061  0.00  0.00    +0.000 A 
ATOM     14  C   UNL     1      -5.720  12.359  17.027  0.00  0.00    +0.000 A 
ATOM     15  C   UNL     1      -4.587  11.449  17.069  0.00  0.00    +0.000 A 
ATOM     16  C   UNL     1      -3.754  11.402  18.139  0.00  0.00    +0.000 A 
ATOM     17  C   UNL     1      -4.065  12.314  19.272  0.00  0.00    +0.000 A 
ATOM     18  O   UNL     1      -3.374  12.347  20.314  0.00  0.00    +0.000 OA
ATOM     19  N   UNL     1      -5.158  13.117  19.163  0.00  0.00    +0.000 N 
ATOM     20  H   UNL     1      -5.338  13.711  19.959  0.00  0.00    +0.000 HD
ENDBRANCH   8  16
ENDBRANCH   1  10
BRANCH   4  21
ATOM     21  O   UNL     1       2.900   7.484  19.721  0.00  0.00    +0.000 OA
BRANCH  21  22
ATOM     22  C   UNL     1       2.724   6.218  19.186  0.00  0.00    +0.000 A 
ATOM     23  C   UNL     1       1.663   5.442  19.645  0.00  0.00    +0.000 A 
ATOM     24  C   UNL     1       1.498   4.194  19.128  0.00  0.00    +0.000 A 
ATOM     25  N   UNL     1       2.250   3.699  18.142  0.00  0.00    +0.000 NA
ATOM     26  C   UNL     1       3.254   4.452  17.646  0.00  0.00    +0.000 A 
ATOM     27  C   UNL     1       3.992   3.941  16.581  0.00  0.00    +0.000 A 
ATOM     28  C   UNL     1       5.033   4.666  16.008  0.00  0.00    +0.000 A 
ATOM     29 CL   UNL     1       5.877   4.030  14.650  0.00  0.00    +0.000 Cl
ATOM     30  C   UNL     1       5.392   5.905  16.523  0.00  0.00    +0.000 A 
ATOM     31  C   UNL     1       4.675   6.428  17.605  0.00  0.00    +0.000 A 
ATOM     32  C   UNL     1       3.569   5.731  18.153  0.00  0.00    +0.000 A 
ENDBRANCH  21  22
ENDBRANCH   4  21
TORSDOF 4
ENDMDL
MODEL 6
REMARK VINA RESULT:      -8.5      1.291      1.666
REMARK  Name = 
REMARK  5 active torsions:
REMARK  status: ('A' for Active; 'I' for Inactive)
REMARK    1  A    between atoms: C_1  and  C_2
REMARK    2  A    between atoms: C_5  and  C_6
REMARK    3  A    between atoms: N_8  and  C_9
REMARK    4  A    between atoms: C_12  and  O_13
REMARK    5  A    between atoms: O_13  and  C_14
REMARK                            x       y       z     vdW  Elec       q    Type
REMARK                         _______ _______ _______ _____ _____    ______ ____
ROOT
ATOM      1  C   UNL     1       1.754   8.212  19.582  0.00  0.00    +0.000 A 
ATOM      2  C   UNL     1       2.494   8.164  18.394  0.00  0.00    +0.000 A 
ATOM      3  C   UNL     1       3.164   7.003  18.009  0.00  0.00    +0.000 A 
ATOM      4  C   UNL     1       3.128   5.873  18.816  0.00  0.00    +0.000 A 
ATOM      5  C   UNL     1       2.477   5.965  20.062  0.00  0.00    +0.000 A 
ATOM      6  F   UNL     1       2.426   4.926  20.911  0.00  0.00    +0.000 F 
ATOM      7  C   UNL     1       1.772   7.109  20.430  0.00  0.00    +0.000 A 
ENDROOT
BRANCH   1  10
ATOM      8  C   UNL     1       0.159  10.043  19.088  0.00  0.00    +0.000 C 
ATOM      9  O   UNL     1       0.028   9.787  17.883  0.00  0.00    +0.000 OA
ATOM     10  N   UNL     1       0.966   9.320  19.950  0.00  0.00    +0.000 N 
ATOM     11  H   UNL     1       0.861   9.489  20.953  0.00  0.00    +0.000 HD
BRANCH   8  16
ATOM     12  C   UNL     1      -2.966  14.280  21.612  0.00  0.00    +0.000 C 
ATOM     13  C   UNL     1      -2.228  13.183  20.909  0.00  0.00    +0.000 A 
ATOM     14  C   UNL     1      -2.700  12.497  19.866  0.00  0.00    +0.000 A 
ATOM     15  C   UNL     1      -1.905  11.444  19.255  0.00  0.00    +0.000 A 
ATOM     16  C   UNL     1      -0.661  11.143  19.706  0.00  0.00    +0.000 A 
ATOM     17  C   UNL     1      -0.157  11.931  20.862  0.00  0.00    +0.000 A 
ATOM     18  O   UNL     1       0.970  11.731  21.367  0.00  0.00    +0.000 OA
ATOM     19  N   UNL     1      -0.973  12.882  21.390  0.00  0.00    +0.000 N 
ATOM     20  H   UNL     1      -0.595  13.385  22.180  0.00  0.00    +0.000 HD
ENDBRANCH   8  16
ENDBRANCH   1  10
BRANCH   4  21
ATOM     21  O   UNL     1       3.752   4.747  18.304  0.00  0.00    +0.000 OA
BRANCH  21  22
ATOM     22  C   UNL     1       5.079   4.852  17.916  0.00  0.00    +0.000 A 
ATOM     23  C   UNL     1       6.045   5.057  18.897  0.00  0.00    +0.000 A 
ATOM     24  C   UNL     1       7.346   5.171  18.515  0.00  0.00    +0.000 A 
ATOM     25  N   UNL     1       7.761   5.016  17.255  0.00  0.00    +0.000 NA
ATOM     26  C   UNL     1       6.847   4.767  16.293  0.00  0.00    +0.000 A 
ATOM     27  C   UNL     1       7.303   4.554  14.995  0.00  0.00    +0.000 A 
ATOM     28  C   UNL     1       6.421   4.278  13.953  0.00  0.00    +0.000 A 
ATOM     29 CL   UNL     1       7.028   3.952  12.377  0.00  0.00    +0.000 Cl
ATOM     30  C   UNL     1       5.051   4.258  14.182  0.00  0.00    +0.000 A 
ATOM     31  C   UNL     1       4.571   4.488  15.475  0.00  0.00    +0.000 A 
ATOM     32  C   UNL     1       5.462   4.702  16.557  0.00  0.00    +0.000 A 
ENDBRANCH  21  22
ENDBRANCH   4  21
TORSDOF 4
ENDMDL
MODEL 7
REMARK VINA RESULT:      -8.4      3.391      4.461
REMARK  Name = 
REMARK  5 active torsions:
REMARK  status: ('A' for Active; 'I' for Inactive)
REMARK    1  A    between atoms: C_1  and  C_2
REMARK    2  A    between atoms: C_5  and  C_6
REMARK    3  A    between atoms: N_8  and  C_9
REMARK    4  A    between atoms: C_12  and  O_13
REMARK    5  A    between atoms: O_13  and  C_14
REMARK                            x       y       z     vdW  Elec       q    Type
REMARK                         _______ _______ _______ _____ _____    ______ ____
ROOT
ATOM      1  C   UNL     1      -0.443  10.113  19.146  0.00  0.00    +0.000 A 
ATOM      2  C   UNL     1       0.490   9.819  18.144  0.00  0.00    +0.000 A 
ATOM      3  C   UNL     1       1.584   8.992  18.400  0.00  0.00    +0.000 A 
ATOM      4  C   UNL     1       1.781   8.461  19.669  0.00  0.00    +0.000 A 
ATOM      5  C   UNL     1       0.901   8.853  20.697  0.00  0.00    +0.000 A 
ATOM      6  F   UNL     1       1.043   8.408  21.956  0.00  0.00    +0.000 F 
ATOM      7  C   UNL     1      -0.215   9.644  20.436  0.00  0.00    +0.000 A 
ENDROOT
BRANCH   1  10
ATOM      8  C   UNL     1      -2.680  10.408  18.120  0.00  0.00    +0.000 C 
ATOM      9  O   UNL     1      -2.712   9.310  17.547  0.00  0.00    +0.000 OA
ATOM     10  N   UNL     1      -1.623  10.842  18.903  0.00  0.00    +0.000 N 
ATOM     11  H   UNL     1      -1.770  11.673  19.480  0.00  0.00    +0.000 HD
BRANCH   8  16
ATOM     12  C   UNL     1      -7.295  13.964  17.743  0.00  0.00    +0.000 C 
ATOM     13  C   UNL     1      -6.111  13.065  17.924  0.00  0.00    +0.000 A 
ATOM     14  C   UNL     1      -5.507  12.829  19.090  0.00  0.00    +0.000 A 
ATOM     15  C   UNL     1      -4.358  11.942  19.160  0.00  0.00    +0.000 A 
ATOM     16  C   UNL     1      -3.880  11.313  18.056  0.00  0.00    +0.000 A 
ATOM     17  C   UNL     1      -4.579  11.587  16.772  0.00  0.00    +0.000 A 
ATOM     18  O   UNL     1      -4.216  11.072  15.691  0.00  0.00    +0.000 OA
ATOM     19  N   UNL     1      -5.632  12.447  16.790  0.00  0.00    +0.000 N 
ATOM     20  H   UNL     1      -6.069  12.613  15.895  0.00  0.00    +0.000 HD
ENDBRANCH   8  16
ENDBRANCH   1  10
BRANCH   4  21
ATOM     21  O   UNL     1       2.845   7.585  19.797  0.00  0.00    +0.000 OA
BRANCH  21  22
ATOM     22  C   UNL     1       2.687   6.288  19.335  0.00  0.00    +0.000 A 
ATOM     23  C   UNL     1       1.672   5.506  19.879  0.00  0.00    +0.000 A 
ATOM     24  C   UNL     1       1.525   4.229  19.433  0.00  0.00    +0.000 A 
ATOM     25  N   UNL     1       2.250   3.706  18.441  0.00  0.00    +0.000 NA
ATOM     26  C   UNL     1       3.207   4.462  17.863  0.00  0.00    +0.000 A 
ATOM     27  C   UNL     1       3.914   3.920  16.794  0.00  0.00    +0.000 A 
ATOM     28  C   UNL     1       4.906   4.645  16.139  0.00  0.00    +0.000 A 
ATOM     29 CL   UNL     1       5.710   3.966  14.778  0.00  0.00    +0.000 Cl
ATOM     30  C   UNL     1       5.246   5.919  16.575  0.00  0.00    +0.000 A 
ATOM     31  C   UNL     1       4.561   6.476  17.659  0.00  0.00    +0.000 A 
ATOM     32  C   UNL     1       3.502   5.774  18.291  0.00  0.00    +0.000 A 
ENDBRANCH  21  22
ENDBRANCH   4  21
TORSDOF 4
ENDMDL
MODEL 8
REMARK VINA RESULT:      -8.3      2.910      3.868
REMARK  Name = 
REMARK  5 active torsions:
REMARK  status: ('A' for Active; 'I' for Inactive)
REMARK    1  A    between atoms: C_1  and  C_2
REMARK    2  A    between atoms: C_5  and  C_6
REMARK    3  A    between atoms: N_8  and  C_9
REMARK    4  A    between atoms: C_12  and  O_13
REMARK    5  A    between atoms: O_13  and  C_14
REMARK                            x       y       z     vdW  Elec       q    Type
REMARK                         _______ _______ _______ _____ _____    ______ ____
ROOT
ATOM      1  C   UNL     1       0.985   9.996  19.556  0.00  0.00    +0.000 A 
ATOM      2  C   UNL     1       0.854   9.226  20.718  0.00  0.00    +0.000 A 
ATOM      3  C   UNL     1       1.462   7.975  20.827  0.00  0.00    +0.000 A 
ATOM      4  C   UNL     1       2.194   7.458  19.765  0.00  0.00    +0.000 A 
ATOM      5  C   UNL     1       2.226   8.188  18.561  0.00  0.00    +0.000 A 
ATOM      6  F   UNL     1       2.885   7.739  17.480  0.00  0.00    +0.000 F 
ATOM      7  C   UNL     1       1.656   9.454  18.464  0.00  0.00    +0.000 A 
ENDROOT
BRANCH   1  10
ATOM      8  C   UNL     1       0.934  12.390  20.194  0.00  0.00    +0.000 C 
ATOM      9  O   UNL     1       1.834  12.324  21.043  0.00  0.00    +0.000 OA
ATOM     10  N   UNL     1       0.492  11.311  19.448  0.00  0.00    +0.000 N 
ATOM     11  H   UNL     1      -0.116  11.503  18.648  0.00  0.00    +0.000 HD
BRANCH   8  16
ATOM     12  C   UNL     1      -1.555  17.504  18.873  0.00  0.00    +0.000 C 
ATOM     13  C   UNL     1      -0.842  16.225  19.188  0.00  0.00    +0.000 A 
ATOM     14  C   UNL     1       0.462  16.016  18.999  0.00  0.00    +0.000 A 
ATOM     15  C   UNL     1       1.060  14.734  19.332  0.00  0.00    +0.000 A 
ATOM     16  C   UNL     1       0.324  13.725  19.863  0.00  0.00    +0.000 A 
ATOM     17  C   UNL     1      -1.124  13.989  20.073  0.00  0.00    +0.000 A 
ATOM     18  O   UNL     1      -1.901  13.128  20.543  0.00  0.00    +0.000 OA
ATOM     19  N   UNL     1      -1.609  15.208  19.712  0.00  0.00    +0.000 N 
ATOM     20  H   UNL     1      -2.599  15.340  19.861  0.00  0.00    +0.000 HD
ENDBRANCH   8  16
ENDBRANCH   1  10
BRANCH   4  21
ATOM     21  O   UNL     1       2.828   6.250  20.003  0.00  0.00    +0.000 OA
BRANCH  21  22
ATOM     22  C   UNL     1       2.712   5.249  19.052  0.00  0.00    +0.000 A 
ATOM     23  C   UNL     1       1.517   4.537  18.976  0.00  0.00    +0.000 A 
ATOM     24  C   UNL     1       1.408   3.547  18.049  0.00  0.00    +0.000 A 
ATOM     25  N   UNL     1       2.356   3.270  17.150  0.00  0.00    +0.000 NA
ATOM     26  C   UNL     1       3.503   3.980  17.172  0.00  0.00    +0.000 A 
ATOM     27  C   UNL     1       4.457   3.716  16.192  0.00  0.00    +0.000 A 
ATOM     28  C   UNL     1       5.658   4.417  16.142  0.00  0.00    +0.000 A 
ATOM     29 CL   UNL     1       6.781   4.110  14.876  0.00  0.00    +0.000 Cl
ATOM     30  C   UNL     1       5.953   5.371  17.108  0.00  0.00    +0.000 A 
ATOM     31  C   UNL     1       5.017   5.640  18.112  0.00  0.00    +0.000 A 
ATOM     32  C   UNL     1       3.761   4.981  18.133  0.00  0.00    +0.000 A 
ENDBRANCH  21  22
ENDBRANCH   4  21
TORSDOF 4
ENDMDL
MODEL 9
REMARK VINA RESULT:      -8.2      3.450      4.756
REMARK  Name = 
REMARK  5 active torsions:
REMARK  status: ('A' for Active; 'I' for Inactive)
REMARK    1  A    between atoms: C_1  and  C_2
REMARK    2  A    between atoms: C_5  and  C_6
REMARK    3  A    between atoms: N_8  and  C_9
REMARK    4  A    between atoms: C_12  and  O_13
REMARK    5  A    between atoms: O_13  and  C_14
REMARK                            x       y       z     vdW  Elec       q    Type
REMARK                         _______ _______ _______ _____ _____    ______ ____
ROOT
ATOM      1  C   UNL     1      -0.944  10.198  19.105  0.00  0.00    +0.000 A 
ATOM      2  C   UNL     1      -0.631   9.657  20.358  0.00  0.00    +0.000 A 
ATOM      3  C   UNL     1       0.538   8.922  20.554  0.00  0.00    +0.000 A 
ATOM      4  C   UNL     1       1.407   8.692  19.494  0.00  0.00    +0.000 A 
ATOM      5  C   UNL     1       1.029   9.143  18.214  0.00  0.00    +0.000 A 
ATOM      6  F   UNL     1       1.800   8.932  17.135  0.00  0.00    +0.000 F 
ATOM      7  C   UNL     1      -0.116   9.913  18.024  0.00  0.00    +0.000 A 
ENDROOT
BRANCH   1  10
ATOM      8  C   UNL     1      -3.216  10.681  18.242  0.00  0.00    +0.000 C 
ATOM      9  O   UNL     1      -3.430   9.551  17.782  0.00  0.00    +0.000 OA
ATOM     10  N   UNL     1      -2.048  11.046  18.890  0.00  0.00    +0.000 N 
ATOM     11  H   UNL     1      -2.043  11.935  19.396  0.00  0.00    +0.000 HD
BRANCH   8  16
ATOM     12  C   UNL     1      -7.457  14.694  18.177  0.00  0.00    +0.000 C 
ATOM     13  C   UNL     1      -6.390  13.645  18.114  0.00  0.00    +0.000 A 
ATOM     14  C   UNL     1      -6.157  12.861  17.060  0.00  0.00    +0.000 A 
ATOM     15  C   UNL     1      -5.097  11.867  17.099  0.00  0.00    +0.000 A 
ATOM     16  C   UNL     1      -4.303  11.721  18.190  0.00  0.00    +0.000 A 
ATOM     17  C   UNL     1      -4.578  12.615  19.345  0.00  0.00    +0.000 A 
ATOM     18  O   UNL     1      -3.918  12.559  20.407  0.00  0.00    +0.000 OA
ATOM     19  N   UNL     1      -5.604  13.502  19.235  0.00  0.00    +0.000 N 
ATOM     20  H   UNL     1      -5.762  14.081  20.048  0.00  0.00    +0.000 HD
ENDBRANCH   8  16
ENDBRANCH   1  10
BRANCH   4  21
ATOM     21  O   UNL     1       2.579   8.026  19.811  0.00  0.00    +0.000 OA
BRANCH  21  22
ATOM     22  C   UNL     1       2.657   6.670  19.539  0.00  0.00    +0.000 A 
ATOM     23  C   UNL     1       1.908   5.790  20.316  0.00  0.00    +0.000 A 
ATOM     24  C   UNL     1       1.993   4.458  20.057  0.00  0.00    +0.000 A 
ATOM     25  N   UNL     1       2.696   3.947  19.043  0.00  0.00    +0.000 NA
ATOM     26  C   UNL     1       3.393   4.785  18.245  0.00  0.00    +0.000 A 
ATOM     27  C   UNL     1       4.074   4.241  17.159  0.00  0.00    +0.000 A 
ATOM     28  C   UNL     1       4.801   5.043  16.285  0.00  0.00    +0.000 A 
ATOM     29 CL   UNL     1       5.573   4.342  14.916  0.00  0.00    +0.000 Cl
ATOM     30  C   UNL     1       4.902   6.410  16.507  0.00  0.00    +0.000 A 
ATOM     31  C   UNL     1       4.240   6.975  17.602  0.00  0.00    +0.000 A 
ATOM     32  C   UNL     1       3.440   6.179  18.461  0.00  0.00    +0.000 A 
ENDBRANCH  21  22
ENDBRANCH   4  21
TORSDOF 4
ENDMDL
