MODEL 1
REMARK VINA RESULT:      -9.7      0.000      0.000
REMARK  Name = 
REMARK  3 active torsions:
REMARK  status: ('A' for Active; 'I' for Inactive)
REMARK    1  A    between atoms: C_2  and  C_18
REMARK    2  A    between atoms: N_3  and  C_4
REMARK    3  A    between atoms: C_8  and  C_9
REMARK                            x       y       z     vdW  Elec       q    Type
REMARK                         _______ _______ _______ _____ _____    ______ ____
ROOT
ATOM      1  C   UNL     1       6.348   6.502  16.955  0.00  0.00    +0.000 A 
ATOM      2  C   UNL     1       6.809   5.553  16.041  0.00  0.00    +0.000 A 
ATOM      3  C   UNL     1       6.035   4.438  15.722  0.00  0.00    +0.000 A 
ATOM      4  C   UNL     1       4.785   4.263  16.311  0.00  0.00    +0.000 A 
ATOM      5  C   UNL     1       4.343   5.138  17.307  0.00  0.00    +0.000 A 
ATOM      6  C   UNL     1       5.133   6.266  17.617  0.00  0.00    +0.000 A 
ENDROOT
BRANCH   5   7
ATOM      7  C   UNL     1       2.995   5.007  17.946  0.00  0.00    +0.000 C 
ATOM      8  O   UNL     1       2.204   5.936  17.755  0.00  0.00    +0.000 OA
ATOM      9  N   UNL     1       2.632   3.878  18.692  0.00  0.00    +0.000 N 
ATOM     10  C   UNL     1       1.214   3.677  19.006  0.00  0.00    +0.000 C 
ATOM     11  C   UNL     1       0.984   3.583  20.512  0.00  0.00    +0.000 C 
ATOM     12  C   UNL     1       1.863   2.500  21.132  0.00  0.00    +0.000 C 
ATOM     13  C   UNL     1       3.327   2.730  20.774  0.00  0.00    +0.000 C 
ATOM     14  C   UNL     1       3.534   2.879  19.270  0.00  0.00    +0.000 C 
ENDBRANCH   5   7
BRANCH   1  17
ATOM     15  O   UNL     1       8.477   6.961  18.934  0.00  0.00    +0.000 OA
ATOM     16  C   UNL     1       8.026   7.860  18.233  0.00  0.00    +0.000 C 
ATOM     17  N   UNL     1       7.056   7.688  17.244  0.00  0.00    +0.000 N 
ATOM     18  H   UNL     1       6.917   8.482  16.633  0.00  0.00    +0.000 HD
BRANCH  16  19
ATOM     19  C   UNL     1       8.483   9.230  18.370  0.00  0.00    +0.000 A 
ATOM     20  C   UNL     1       8.290  10.330  17.550  0.00  0.00    +0.000 A 
ATOM     21  C   UNL     1       9.089  11.380  18.075  0.00  0.00    +0.000 A 
ATOM     22  C   UNL     1       9.397  12.699  17.694  0.00  0.00    +0.000 A 
ATOM     23  C   UNL     1      10.313  13.426  18.469  0.00  0.00    +0.000 A 
ATOM     24  C   UNL     1      10.891  12.868  19.613  0.00  0.00    +0.000 A 
ATOM     25  C   UNL     1      10.574  11.569  20.023  0.00  0.00    +0.000 A 
ATOM     26  C   UNL     1       9.682  10.863  19.220  0.00  0.00    +0.000 A 
ATOM     27  O   UNL     1       9.293   9.572  19.420  0.00  0.00    +0.000 OA
ENDBRANCH  16  19
ENDBRANCH   1  17
TORSDOF 3
ENDMDL
MODEL 2
REMARK VINA RESULT:      -9.3      0.723      1.265
REMARK  Name = 
REMARK  3 active torsions:
REMARK  status: ('A' for Active; 'I' for Inactive)
REMARK    1  A    between atoms: C_2  and  C_18
REMARK    2  A    between atoms: N_3  and  C_4
REMARK    3  A    between atoms: C_8  and  C_9
REMARK                            x       y       z     vdW  Elec       q    Type
REMARK                         _______ _______ _______ _____ _____    ______ ____
ROOT
ATOM      1  C   UNL     1       6.323   6.425  16.879  0.00  0.00    +0.000 A 
ATOM      2  C   UNL     1       6.769   5.468  15.966  0.00  0.00    +0.000 A 
ATOM      3  C   UNL     1       5.986   4.354  15.665  0.00  0.00    +0.000 A 
ATOM      4  C   UNL     1       4.742   4.190  16.270  0.00  0.00    +0.000 A 
ATOM      5  C   UNL     1       4.316   5.075  17.265  0.00  0.00    +0.000 A 
ATOM      6  C   UNL     1       5.116   6.201  17.557  0.00  0.00    +0.000 A 
ENDROOT
BRANCH   5   7
ATOM      7  C   UNL     1       2.974   4.956  17.920  0.00  0.00    +0.000 C 
ATOM      8  O   UNL     1       2.177   5.874  17.709  0.00  0.00    +0.000 OA
ATOM      9  N   UNL     1       2.625   3.847  18.703  0.00  0.00    +0.000 N 
ATOM     10  C   UNL     1       1.212   3.647  19.037  0.00  0.00    +0.000 C 
ATOM     11  C   UNL     1       0.996   3.598  20.547  0.00  0.00    +0.000 C 
ATOM     12  C   UNL     1       1.888   2.538  21.190  0.00  0.00    +0.000 C 
ATOM     13  C   UNL     1       3.347   2.766  20.812  0.00  0.00    +0.000 C 
ATOM     14  C   UNL     1       3.539   2.871  19.302  0.00  0.00    +0.000 C 
ENDBRANCH   5   7
BRANCH   1  17
ATOM     15  O   UNL     1       8.405   6.916  18.900  0.00  0.00    +0.000 OA
ATOM     16  C   UNL     1       7.986   7.799  18.160  0.00  0.00    +0.000 C 
ATOM     17  N   UNL     1       7.041   7.610  17.151  0.00  0.00    +0.000 N 
ATOM     18  H   UNL     1       6.930   8.386  16.513  0.00  0.00    +0.000 HD
BRANCH  16  19
ATOM     19  C   UNL     1       8.460   9.166  18.268  0.00  0.00    +0.000 A 
ATOM     20  C   UNL     1       9.374   9.737  19.137  0.00  0.00    +0.000 A 
ATOM     21  C   UNL     1       9.344  11.137  18.907  0.00  0.00    +0.000 A 
ATOM     22  C   UNL     1       9.957  12.266  19.480  0.00  0.00    +0.000 A 
ATOM     23  C   UNL     1       9.611  13.537  18.997  0.00  0.00    +0.000 A 
ATOM     24  C   UNL     1       8.696  13.685  17.950  0.00  0.00    +0.000 A 
ATOM     25  C   UNL     1       8.100  12.572  17.349  0.00  0.00    +0.000 A 
ATOM     26  C   UNL     1       8.443  11.326  17.866  0.00  0.00    +0.000 A 
ATOM     27  O   UNL     1       7.930  10.132  17.454  0.00  0.00    +0.000 OA
ENDBRANCH  16  19
ENDBRANCH   1  17
TORSDOF 3
ENDMDL
MODEL 3
REMARK VINA RESULT:      -9.1      1.111      1.504
REMARK  Name = 
REMARK  3 active torsions:
REMARK  status: ('A' for Active; 'I' for Inactive)
REMARK    1  A    between atoms: C_2  and  C_18
REMARK    2  A    between atoms: N_3  and  C_4
REMARK    3  A    between atoms: C_8  and  C_9
REMARK                            x       y       z     vdW  Elec       q    Type
REMARK                         _______ _______ _______ _____ _____    ______ ____
ROOT
ATOM      1  C   UNL     1       6.417   6.495  16.966  0.00  0.00    +0.000 A 
ATOM      2  C   UNL     1       6.201   6.041  15.664  0.00  0.00    +0.000 A 
ATOM      3  C   UNL     1       5.444   4.895  15.428  0.00  0.00    +0.000 A 
ATOM      4  C   UNL     1       4.886   4.192  16.493  0.00  0.00    +0.000 A 
ATOM      5  C   UNL     1       5.172   4.561  17.811  0.00  0.00    +0.000 A 
ATOM      6  C   UNL     1       5.937   5.726  18.037  0.00  0.00    +0.000 A 
ENDROOT
BRANCH   5   7
ATOM      7  C   UNL     1       4.572   3.855  18.988  0.00  0.00    +0.000 C 
ATOM      8  O   UNL     1       5.336   3.153  19.655  0.00  0.00    +0.000 OA
ATOM      9  N   UNL     1       3.224   4.008  19.337  0.00  0.00    +0.000 N 
ATOM     10  C   UNL     1       2.792   3.555  20.663  0.00  0.00    +0.000 C 
ATOM     11  C   UNL     1       1.675   2.519  20.564  0.00  0.00    +0.000 C 
ATOM     12  C   UNL     1       0.508   3.053  19.737  0.00  0.00    +0.000 C 
ATOM     13  C   UNL     1       0.992   3.528  18.373  0.00  0.00    +0.000 C 
ATOM     14  C   UNL     1       2.146   4.519  18.486  0.00  0.00    +0.000 C 
ENDBRANCH   5   7
BRANCH   1  17
ATOM     15  O   UNL     1       8.527   7.005  18.953  0.00  0.00    +0.000 OA
ATOM     16  C   UNL     1       8.064   7.891  18.243  0.00  0.00    +0.000 C 
ATOM     17  N   UNL     1       7.103   7.695  17.250  0.00  0.00    +0.000 N 
ATOM     18  H   UNL     1       6.954   8.481  16.633  0.00  0.00    +0.000 HD
BRANCH  16  19
ATOM     19  C   UNL     1       8.498   9.270  18.372  0.00  0.00    +0.000 A 
ATOM     20  C   UNL     1       8.279  10.363  17.551  0.00  0.00    +0.000 A 
ATOM     21  C   UNL     1       9.062  11.429  18.065  0.00  0.00    +0.000 A 
ATOM     22  C   UNL     1       9.342  12.752  17.678  0.00  0.00    +0.000 A 
ATOM     23  C   UNL     1      10.251  13.499  18.444  0.00  0.00    +0.000 A 
ATOM     24  C   UNL     1      10.847  12.955  19.584  0.00  0.00    +0.000 A 
ATOM     25  C   UNL     1      10.557  11.652  20.002  0.00  0.00    +0.000 A 
ATOM     26  C   UNL     1       9.673  10.927  19.207  0.00  0.00    +0.000 A 
ATOM     27  O   UNL     1       9.309   9.630  19.415  0.00  0.00    +0.000 OA
ENDBRANCH  16  19
ENDBRANCH   1  17
TORSDOF 3
ENDMDL
MODEL 4
REMARK VINA RESULT:      -8.8      1.334      1.977
REMARK  Name = 
REMARK  3 active torsions:
REMARK  status: ('A' for Active; 'I' for Inactive)
REMARK    1  A    between atoms: C_2  and  C_18
REMARK    2  A    between atoms: N_3  and  C_4
REMARK    3  A    between atoms: C_8  and  C_9
REMARK                            x       y       z     vdW  Elec       q    Type
REMARK                         _______ _______ _______ _____ _____    ______ ____
ROOT
ATOM      1  C   UNL     1       6.412   6.522  16.930  0.00  0.00    +0.000 A 
ATOM      2  C   UNL     1       6.180   6.062  15.632  0.00  0.00    +0.000 A 
ATOM      3  C   UNL     1       5.424   4.911  15.412  0.00  0.00    +0.000 A 
ATOM      4  C   UNL     1       4.884   4.211  16.488  0.00  0.00    +0.000 A 
ATOM      5  C   UNL     1       5.187   4.586  17.800  0.00  0.00    +0.000 A 
ATOM      6  C   UNL     1       5.950   5.756  18.010  0.00  0.00    +0.000 A 
ENDROOT
BRANCH   5   7
ATOM      7  C   UNL     1       4.607   3.883  18.988  0.00  0.00    +0.000 C 
ATOM      8  O   UNL     1       5.383   3.189  19.649  0.00  0.00    +0.000 OA
ATOM      9  N   UNL     1       3.262   4.029  19.354  0.00  0.00    +0.000 N 
ATOM     10  C   UNL     1       2.850   3.581  20.688  0.00  0.00    +0.000 C 
ATOM     11  C   UNL     1       1.739   2.538  20.608  0.00  0.00    +0.000 C 
ATOM     12  C   UNL     1       0.558   3.060  19.794  0.00  0.00    +0.000 C 
ATOM     13  C   UNL     1       1.021   3.531  18.420  0.00  0.00    +0.000 C 
ATOM     14  C   UNL     1       2.171   4.530  18.514  0.00  0.00    +0.000 C 
ENDBRANCH   5   7
BRANCH   1  17
ATOM     15  O   UNL     1       8.525   7.057  18.908  0.00  0.00    +0.000 OA
ATOM     16  C   UNL     1       8.060   7.934  18.188  0.00  0.00    +0.000 C 
ATOM     17  N   UNL     1       7.098   7.726  17.199  0.00  0.00    +0.000 N 
ATOM     18  H   UNL     1       6.947   8.505  16.573  0.00  0.00    +0.000 HD
BRANCH  16  19
ATOM     19  C   UNL     1       8.492   9.315  18.301  0.00  0.00    +0.000 A 
ATOM     20  C   UNL     1       9.355   9.918  19.200  0.00  0.00    +0.000 A 
ATOM     21  C   UNL     1       9.296  11.315  18.955  0.00  0.00    +0.000 A 
ATOM     22  C   UNL     1       9.856  12.465  19.541  0.00  0.00    +0.000 A 
ATOM     23  C   UNL     1       9.494  13.722  19.032  0.00  0.00    +0.000 A 
ATOM     24  C   UNL     1       8.619  13.835  17.949  0.00  0.00    +0.000 A 
ATOM     25  C   UNL     1       8.077  12.701  17.335  0.00  0.00    +0.000 A 
ATOM     26  C   UNL     1       8.433  11.469  17.878  0.00  0.00    +0.000 A 
ATOM     27  O   UNL     1       7.969  10.259  17.458  0.00  0.00    +0.000 OA
ENDBRANCH  16  19
ENDBRANCH   1  17
TORSDOF 3
ENDMDL
MODEL 5
REMARK VINA RESULT:      -8.7      1.603      2.155
REMARK  Name = 
REMARK  3 active torsions:
REMARK  status: ('A' for Active; 'I' for Inactive)
REMARK    1  A    between atoms: C_2  and  C_18
REMARK    2  A    between atoms: N_3  and  C_4
REMARK    3  A    between atoms: C_8  and  C_9
REMARK                            x       y       z     vdW  Elec       q    Type
REMARK                         _______ _______ _______ _____ _____    ______ ____
ROOT
ATOM      1  C   UNL     1       7.223   6.159  17.739  0.00  0.00    +0.000 A 
ATOM      2  C   UNL     1       7.255   5.729  16.411  0.00  0.00    +0.000 A 
ATOM      3  C   UNL     1       6.474   4.651  15.995  0.00  0.00    +0.000 A 
ATOM      4  C   UNL     1       5.646   3.996  16.903  0.00  0.00    +0.000 A 
ATOM      5  C   UNL     1       5.672   4.335  18.259  0.00  0.00    +0.000 A 
ATOM      6  C   UNL     1       6.463   5.431  18.667  0.00  0.00    +0.000 A 
ENDROOT
BRANCH   5   7
ATOM      7  C   UNL     1       4.778   3.680  19.265  0.00  0.00    +0.000 C 
ATOM      8  O   UNL     1       5.304   2.846  20.007  0.00  0.00    +0.000 OA
ATOM      9  N   UNL     1       3.423   4.016  19.387  0.00  0.00    +0.000 N 
ATOM     10  C   UNL     1       2.701   3.580  20.586  0.00  0.00    +0.000 C 
ATOM     11  C   UNL     1       1.488   2.726  20.228  0.00  0.00    +0.000 C 
ATOM     12  C   UNL     1       0.574   3.460  19.250  0.00  0.00    +0.000 C 
ATOM     13  C   UNL     1       1.357   3.913  18.023  0.00  0.00    +0.000 C 
ATOM     14  C   UNL     1       2.598   4.716  18.398  0.00  0.00    +0.000 C 
ENDBRANCH   5   7
BRANCH   1  17
ATOM     15  O   UNL     1       6.809   8.992  17.058  0.00  0.00    +0.000 OA
ATOM     16  C   UNL     1       7.719   8.618  17.790  0.00  0.00    +0.000 C 
ATOM     17  N   UNL     1       7.929   7.297  18.188  0.00  0.00    +0.000 N 
ATOM     18  H   UNL     1       8.604   7.171  18.929  0.00  0.00    +0.000 HD
BRANCH  16  19
ATOM     19  C   UNL     1       8.688   9.552  18.333  0.00  0.00    +0.000 A 
ATOM     20  C   UNL     1       9.037   9.826  19.645  0.00  0.00    +0.000 A 
ATOM     21  C   UNL     1       9.921  10.936  19.612  0.00  0.00    +0.000 A 
ATOM     22  C   UNL     1      10.570  11.735  20.571  0.00  0.00    +0.000 A 
ATOM     23  C   UNL     1      11.341  12.822  20.130  0.00  0.00    +0.000 A 
ATOM     24  C   UNL     1      11.488  13.093  18.767  0.00  0.00    +0.000 A 
ATOM     25  C   UNL     1      10.875  12.291  17.799  0.00  0.00    +0.000 A 
ATOM     26  C   UNL     1      10.095  11.237  18.268  0.00  0.00    +0.000 A 
ATOM     27  O   UNL     1       9.376  10.381  17.488  0.00  0.00    +0.000 OA
ENDBRANCH  16  19
ENDBRANCH   1  17
TORSDOF 3
ENDMDL
MODEL 6
REMARK VINA RESULT:      -8.7      1.248      1.597
REMARK  Name = 
REMARK  3 active torsions:
REMARK  status: ('A' for Active; 'I' for Inactive)
REMARK    1  A    between atoms: C_2  and  C_18
REMARK    2  A    between atoms: N_3  and  C_4
REMARK    3  A    between atoms: C_8  and  C_9
REMARK                            x       y       z     vdW  Elec       q    Type
REMARK                         _______ _______ _______ _____ _____    ______ ____
ROOT
ATOM      1  C   UNL     1       6.691   5.968  16.564  0.00  0.00    +0.000 A 
ATOM      2  C   UNL     1       6.954   5.372  15.329  0.00  0.00    +0.000 A 
ATOM      3  C   UNL     1       6.292   4.206  14.948  0.00  0.00    +0.000 A 
ATOM      4  C   UNL     1       5.352   3.626  15.796  0.00  0.00    +0.000 A 
ATOM      5  C   UNL     1       5.144   4.140  17.080  0.00  0.00    +0.000 A 
ATOM      6  C   UNL     1       5.817   5.323  17.452  0.00  0.00    +0.000 A 
ENDROOT
BRANCH   5   7
ATOM      7  C   UNL     1       4.122   3.569  18.014  0.00  0.00    +0.000 C 
ATOM      8  O   UNL     1       3.728   2.427  17.765  0.00  0.00    +0.000 OA
ATOM      9  N   UNL     1       3.662   4.275  19.133  0.00  0.00    +0.000 N 
ATOM     10  C   UNL     1       2.921   3.542  20.164  0.00  0.00    +0.000 C 
ATOM     11  C   UNL     1       1.535   4.141  20.388  0.00  0.00    +0.000 C 
ATOM     12  C   UNL     1       1.629   5.631  20.708  0.00  0.00    +0.000 C 
ATOM     13  C   UNL     1       2.416   6.361  19.626  0.00  0.00    +0.000 C 
ATOM     14  C   UNL     1       3.776   5.717  19.371  0.00  0.00    +0.000 C 
ENDBRANCH   5   7
BRANCH   1  17
ATOM     15  O   UNL     1       8.283   6.587  18.960  0.00  0.00    +0.000 OA
ATOM     16  C   UNL     1       7.978   7.441  18.135  0.00  0.00    +0.000 C 
ATOM     17  N   UNL     1       7.272   7.193  16.956  0.00  0.00    +0.000 N 
ATOM     18  H   UNL     1       7.253   7.958  16.296  0.00  0.00    +0.000 HD
BRANCH  16  19
ATOM     19  C   UNL     1       8.345   8.834  18.313  0.00  0.00    +0.000 A 
ATOM     20  C   UNL     1       8.095   9.940  17.519  0.00  0.00    +0.000 A 
ATOM     21  C   UNL     1       8.816  11.024  18.083  0.00  0.00    +0.000 A 
ATOM     22  C   UNL     1       9.044  12.370  17.740  0.00  0.00    +0.000 A 
ATOM     23  C   UNL     1       9.900  13.133  18.549  0.00  0.00    +0.000 A 
ATOM     24  C   UNL     1      10.494  12.584  19.689  0.00  0.00    +0.000 A 
ATOM     25  C   UNL     1      10.254  11.257  20.061  0.00  0.00    +0.000 A 
ATOM     26  C   UNL     1       9.423  10.516  19.225  0.00  0.00    +0.000 A 
ATOM     27  O   UNL     1       9.113   9.199  19.386  0.00  0.00    +0.000 OA
ENDBRANCH  16  19
ENDBRANCH   1  17
TORSDOF 3
ENDMDL
MODEL 7
REMARK VINA RESULT:      -8.6      4.623      7.806
REMARK  Name = 
REMARK  3 active torsions:
REMARK  status: ('A' for Active; 'I' for Inactive)
REMARK    1  A    between atoms: C_2  and  C_18
REMARK    2  A    between atoms: N_3  and  C_4
REMARK    3  A    between atoms: C_8  and  C_9
REMARK                            x       y       z     vdW  Elec       q    Type
REMARK                         _______ _______ _______ _____ _____    ______ ____
ROOT
ATOM      1  C   UNL     1       2.447   5.403  20.435  0.00  0.00    +0.000 A 
ATOM      2  C   UNL     1       2.040   4.116  20.790  0.00  0.00    +0.000 A 
ATOM      3  C   UNL     1       2.833   3.010  20.486  0.00  0.00    +0.000 A 
ATOM      4  C   UNL     1       4.049   3.181  19.829  0.00  0.00    +0.000 A 
ATOM      5  C   UNL     1       4.433   4.444  19.368  0.00  0.00    +0.000 A 
ATOM      6  C   UNL     1       3.624   5.556  19.686  0.00  0.00    +0.000 A 
ENDROOT
BRANCH   5   7
ATOM      7  C   UNL     1       5.744   4.681  18.684  0.00  0.00    +0.000 C 
ATOM      8  O   UNL     1       6.638   5.183  19.370  0.00  0.00    +0.000 OA
ATOM      9  N   UNL     1       5.961   4.322  17.347  0.00  0.00    +0.000 N 
ATOM     10  C   UNL     1       7.340   4.284  16.850  0.00  0.00    +0.000 C 
ATOM     11  C   UNL     1       7.527   5.209  15.650  0.00  0.00    +0.000 C 
ATOM     12  C   UNL     1       6.517   4.886  14.551  0.00  0.00    +0.000 C 
ATOM     13  C   UNL     1       5.097   4.919  15.103  0.00  0.00    +0.000 C 
ATOM     14  C   UNL     1       4.939   4.035  16.336  0.00  0.00    +0.000 C 
ENDBRANCH   5   7
BRANCH   1  17
ATOM     15  O   UNL     1       2.229   7.978  19.027  0.00  0.00    +0.000 OA
ATOM     16  C   UNL     1       1.694   7.774  20.111  0.00  0.00    +0.000 C 
ATOM     17  N   UNL     1       1.721   6.558  20.796  0.00  0.00    +0.000 N 
ATOM     18  H   UNL     1       1.090   6.493  21.583  0.00  0.00    +0.000 HD
BRANCH  16  19
ATOM     19  C   UNL     1       0.953   8.815  20.798  0.00  0.00    +0.000 A 
ATOM     20  C   UNL     1       0.516   8.893  22.110  0.00  0.00    +0.000 A 
ATOM     21  C   UNL     1      -0.296  10.053  22.206  0.00  0.00    +0.000 A 
ATOM     22  C   UNL     1      -1.078  10.656  23.208  0.00  0.00    +0.000 A 
ATOM     23  C   UNL     1      -1.813  11.807  22.886  0.00  0.00    +0.000 A 
ATOM     24  C   UNL     1      -1.751  12.366  21.607  0.00  0.00    +0.000 A 
ATOM     25  C   UNL     1      -0.954  11.798  20.607  0.00  0.00    +0.000 A 
ATOM     26  C   UNL     1      -0.258  10.641  20.948  0.00  0.00    +0.000 A 
ATOM     27  O   UNL     1       0.523   9.913  20.102  0.00  0.00    +0.000 OA
ENDBRANCH  16  19
ENDBRANCH   1  17
TORSDOF 3
ENDMDL
MODEL 8
REMARK VINA RESULT:      -8.4      1.136      1.486
REMARK  Name = 
REMARK  3 active torsions:
REMARK  status: ('A' for Active; 'I' for Inactive)
REMARK    1  A    between atoms: C_2  and  C_18
REMARK    2  A    between atoms: N_3  and  C_4
REMARK    3  A    between atoms: C_8  and  C_9
REMARK                            x       y       z     vdW  Elec       q    Type
REMARK                         _______ _______ _______ _____ _____    ______ ____
ROOT
ATOM      1  C   UNL     1       7.024   6.199  17.864  0.00  0.00    +0.000 A 
ATOM      2  C   UNL     1       7.551   5.203  17.041  0.00  0.00    +0.000 A 
ATOM      3  C   UNL     1       6.747   4.157  16.588  0.00  0.00    +0.000 A 
ATOM      4  C   UNL     1       5.403   4.100  16.949  0.00  0.00    +0.000 A 
ATOM      5  C   UNL     1       4.874   5.024  17.856  0.00  0.00    +0.000 A 
ATOM      6  C   UNL     1       5.696   6.080  18.303  0.00  0.00    +0.000 A 
ENDROOT
BRANCH   5   7
ATOM      7  C   UNL     1       3.429   5.021  18.249  0.00  0.00    +0.000 C 
ATOM      8  O   UNL     1       2.772   6.016  17.931  0.00  0.00    +0.000 OA
ATOM      9  N   UNL     1       2.840   3.935  18.910  0.00  0.00    +0.000 N 
ATOM     10  C   UNL     1       1.377   3.866  18.971  0.00  0.00    +0.000 C 
ATOM     11  C   UNL     1       0.881   3.804  20.413  0.00  0.00    +0.000 C 
ATOM     12  C   UNL     1       1.536   2.650  21.167  0.00  0.00    +0.000 C 
ATOM     13  C   UNL     1       3.055   2.743  21.072  0.00  0.00    +0.000 C 
ATOM     14  C   UNL     1       3.534   2.862  19.628  0.00  0.00    +0.000 C 
ENDBRANCH   5   7
BRANCH   1  17
ATOM     15  O   UNL     1       6.863   8.987  16.935  0.00  0.00    +0.000 OA
ATOM     16  C   UNL     1       7.688   8.616  17.762  0.00  0.00    +0.000 C 
ATOM     17  N   UNL     1       7.774   7.322  18.276  0.00  0.00    +0.000 N 
ATOM     18  H   UNL     1       8.384   7.214  19.075  0.00  0.00    +0.000 HD
BRANCH  16  19
ATOM     19  C   UNL     1       8.679   9.527  18.304  0.00  0.00    +0.000 A 
ATOM     20  C   UNL     1       9.053   9.774  19.615  0.00  0.00    +0.000 A 
ATOM     21  C   UNL     1       9.953  10.872  19.586  0.00  0.00    +0.000 A 
ATOM     22  C   UNL     1      10.628  11.646  20.547  0.00  0.00    +0.000 A 
ATOM     23  C   UNL     1      11.409  12.728  20.111  0.00  0.00    +0.000 A 
ATOM     24  C   UNL     1      11.539  13.019  18.751  0.00  0.00    +0.000 A 
ATOM     25  C   UNL     1      10.899  12.241  17.780  0.00  0.00    +0.000 A 
ATOM     26  C   UNL     1      10.110  11.192  18.244  0.00  0.00    +0.000 A 
ATOM     27  O   UNL     1       9.367  10.359  17.462  0.00  0.00    +0.000 OA
ENDBRANCH  16  19
ENDBRANCH   1  17
TORSDOF 3
ENDMDL
MODEL 9
REMARK VINA RESULT:      -8.3      4.898      7.527
REMARK  Name = 
REMARK  3 active torsions:
REMARK  status: ('A' for Active; 'I' for Inactive)
REMARK    1  A    between atoms: C_2  and  C_18
REMARK    2  A    between atoms: N_3  and  C_4
REMARK    3  A    between atoms: C_8  and  C_9
REMARK                            x       y       z     vdW  Elec       q    Type
REMARK                         _______ _______ _______ _____ _____    ______ ____
ROOT
ATOM      1  C   UNL     1       1.955   5.141  20.611  0.00  0.00    +0.000 A 
ATOM      2  C   UNL     1       2.099   4.074  21.499  0.00  0.00    +0.000 A 
ATOM      3  C   UNL     1       2.736   2.899  21.100  0.00  0.00    +0.000 A 
ATOM      4  C   UNL     1       3.244   2.783  19.808  0.00  0.00    +0.000 A 
ATOM      5  C   UNL     1       3.023   3.792  18.866  0.00  0.00    +0.000 A 
ATOM      6  C   UNL     1       2.380   4.978  19.284  0.00  0.00    +0.000 A 
ENDROOT
BRANCH   5   7
ATOM      7  C   UNL     1       3.576   3.724  17.476  0.00  0.00    +0.000 C 
ATOM      8  O   UNL     1       2.961   3.016  16.675  0.00  0.00    +0.000 OA
ATOM      9  N   UNL     1       4.709   4.452  17.091  0.00  0.00    +0.000 N 
ATOM     10  C   UNL     1       4.996   4.590  15.660  0.00  0.00    +0.000 C 
ATOM     11  C   UNL     1       6.381   4.051  15.313  0.00  0.00    +0.000 C 
ATOM     12  C   UNL     1       7.455   4.713  16.174  0.00  0.00    +0.000 C 
ATOM     13  C   UNL     1       7.120   4.564  17.654  0.00  0.00    +0.000 C 
ATOM     14  C   UNL     1       5.711   5.053  17.976  0.00  0.00    +0.000 C 
ENDBRANCH   5   7
BRANCH   1  17
ATOM     15  O   UNL     1       2.240   7.782  19.344  0.00  0.00    +0.000 OA
ATOM     16  C   UNL     1       1.607   7.615  20.380  0.00  0.00    +0.000 C 
ATOM     17  N   UNL     1       1.395   6.379  20.994  0.00  0.00    +0.000 N 
ATOM     18  H   UNL     1       0.709   6.378  21.736  0.00  0.00    +0.000 HD
BRANCH  16  19
ATOM     19  C   UNL     1       0.992   8.727  21.081  0.00  0.00    +0.000 A 
ATOM     20  C   UNL     1       0.124   8.742  22.160  0.00  0.00    +0.000 A 
ATOM     21  C   UNL     1      -0.290  10.089  22.337  0.00  0.00    +0.000 A 
ATOM     22  C   UNL     1      -1.189  10.764  23.182  0.00  0.00    +0.000 A 
ATOM     23  C   UNL     1      -1.376  12.142  23.002  0.00  0.00    +0.000 A 
ATOM     24  C   UNL     1      -0.666  12.843  22.023  0.00  0.00    +0.000 A 
ATOM     25  C   UNL     1       0.255  12.193  21.193  0.00  0.00    +0.000 A 
ATOM     26  C   UNL     1       0.399  10.821  21.378  0.00  0.00    +0.000 A 
ATOM     27  O   UNL     1       1.201  10.006  20.637  0.00  0.00    +0.000 OA
ENDBRANCH  16  19
ENDBRANCH   1  17
TORSDOF 3
ENDMDL
