MODEL 1
REMARK VINA RESULT:      -8.9      0.000      0.000
REMARK  Name = 
REMARK  4 active torsions:
REMARK  status: ('A' for Active; 'I' for Inactive)
REMARK    1  A    between atoms: S_2  and  N_4
REMARK    2  A    between atoms: S_2  and  C_21
REMARK    3  A    between atoms: N_4  and  C_5
REMARK    4  A    between atoms: C_8  and  C_9
REMARK                            x       y       z     vdW  Elec       q    Type
REMARK                         _______ _______ _______ _____ _____    ______ ____
ROOT
ATOM      1  C   UNL     1       2.688   5.713  19.196  0.00  0.00    +0.000 A 
ATOM      2  C   UNL     1       2.062   5.811  20.435  0.00  0.00    +0.000 A 
ATOM      3  C   UNL     1       1.505   7.030  20.840  0.00  0.00    +0.000 A 
ATOM      4  C   UNL     1       1.567   8.160  20.011  0.00  0.00    +0.000 A 
ATOM      5  C   UNL     1       2.240   8.044  18.785  0.00  0.00    +0.000 A 
ATOM      6  C   UNL     1       2.787   6.827  18.373  0.00  0.00    +0.000 A 
ENDROOT
BRANCH   4   7
ATOM      7  C   UNL     1       0.991   9.432  20.464  0.00  0.00    +0.000 A 
ATOM      8  N   UNL     1       1.158   9.952  21.667  0.00  0.00    +0.000 NA
ATOM      9  N   UNL     1       0.561  11.183  21.704  0.00  0.00    +0.000 NA
ATOM     10  C   UNL     1       0.005  11.407  20.532  0.00  0.00    +0.000 A 
ATOM     11  N   UNL     1       0.179  10.292  19.746  0.00  0.00    +0.000 N 
ATOM     12  C   UNL     1      -0.400  10.046  18.441  0.00  0.00    +0.000 C 
ATOM     13  C   UNL     1      -1.794  10.625  18.240  0.00  0.00    +0.000 C 
ATOM     14  C   UNL     1      -1.795  12.118  17.916  0.00  0.00    +0.000 C 
ATOM     15  C   UNL     1      -0.754  12.950  18.662  0.00  0.00    +0.000 C 
ATOM     16  C   UNL     1      -0.710  12.664  20.159  0.00  0.00    +0.000 C 
ENDBRANCH   4   7
BRANCH   1  17
ATOM     17  N   UNL     1       3.313   4.506  18.810  0.00  0.00    +0.000 N 
ATOM     18  H   UNL     1       2.758   3.702  18.527  0.00  0.00    +0.000 HD
BRANCH  17  20
ATOM     19  O   UNL     1       5.463   5.397  19.755  0.00  0.00    +0.000 OA
ATOM     20  S   UNL     1       4.959   4.279  18.979  0.00  0.00    +0.000 S 
ATOM     21  O   UNL     1       5.187   2.920  19.418  0.00  0.00    +0.000 OA
BRANCH  20  22
ATOM     22  C   UNL     1       5.607   4.437  17.347  0.00  0.00    +0.000 A 
ATOM     23  C   UNL     1       4.759   4.347  16.237  0.00  0.00    +0.000 A 
ATOM     24  C   UNL     1       5.296   4.410  14.950  0.00  0.00    +0.000 A 
ATOM     25  C   UNL     1       6.673   4.559  14.772  0.00  0.00    +0.000 A 
ATOM     26  C   UNL     1       7.513   4.653  15.883  0.00  0.00    +0.000 A 
ATOM     27  C   UNL     1       6.976   4.589  17.167  0.00  0.00    +0.000 A 
ATOM     28  F   UNL     1       7.805   4.704  18.214  0.00  0.00    +0.000 F 
ENDBRANCH  20  22
ENDBRANCH  17  20
ENDBRANCH   1  17
TORSDOF 4
ENDMDL
MODEL 2
REMARK VINA RESULT:      -8.6      1.898      2.610
REMARK  Name = 
REMARK  4 active torsions:
REMARK  status: ('A' for Active; 'I' for Inactive)
REMARK    1  A    between atoms: S_2  and  N_4
REMARK    2  A    between atoms: S_2  and  C_21
REMARK    3  A    between atoms: N_4  and  C_5
REMARK    4  A    between atoms: C_8  and  C_9
REMARK                            x       y       z     vdW  Elec       q    Type
REMARK                         _______ _______ _______ _____ _____    ______ ____
ROOT
ATOM      1  C   UNL     1       2.580   7.134  19.455  0.00  0.00    +0.000 A 
ATOM      2  C   UNL     1       1.800   7.716  20.450  0.00  0.00    +0.000 A 
ATOM      3  C   UNL     1       1.060   8.872  20.169  0.00  0.00    +0.000 A 
ATOM      4  C   UNL     1       1.093   9.454  18.892  0.00  0.00    +0.000 A 
ATOM      5  C   UNL     1       1.919   8.871  17.920  0.00  0.00    +0.000 A 
ATOM      6  C   UNL     1       2.650   7.712  18.194  0.00  0.00    +0.000 A 
ENDROOT
BRANCH   4   7
ATOM      7  C   UNL     1       0.322  10.676  18.626  0.00  0.00    +0.000 A 
ATOM      8  N   UNL     1      -0.944  10.704  18.254  0.00  0.00    +0.000 NA
ATOM      9  N   UNL     1      -1.358  12.007  18.192  0.00  0.00    +0.000 NA
ATOM     10  C   UNL     1      -0.337  12.779  18.501  0.00  0.00    +0.000 A 
ATOM     11  N   UNL     1       0.767  11.984  18.700  0.00  0.00    +0.000 N 
ATOM     12  C   UNL     1       2.132  12.422  18.908  0.00  0.00    +0.000 C 
ATOM     13  C   UNL     1       2.518  13.690  18.157  0.00  0.00    +0.000 C 
ATOM     14  C   UNL     1       2.043  14.972  18.836  0.00  0.00    +0.000 C 
ATOM     15  C   UNL     1       0.663  14.896  19.487  0.00  0.00    +0.000 C 
ATOM     16  C   UNL     1      -0.397  14.269  18.588  0.00  0.00    +0.000 C 
ENDBRANCH   4   7
BRANCH   1  17
ATOM     17  N   UNL     1       3.382   6.010  19.750  0.00  0.00    +0.000 N 
ATOM     18  H   UNL     1       4.133   6.073  20.433  0.00  0.00    +0.000 HD
BRANCH  17  20
ATOM     19  O   UNL     1       3.411   3.499  19.810  0.00  0.00    +0.000 OA
ATOM     20  S   UNL     1       3.265   4.595  18.870  0.00  0.00    +0.000 S 
ATOM     21  O   UNL     1       2.097   4.683  18.022  0.00  0.00    +0.000 OA
BRANCH  20  22
ATOM     22  C   UNL     1       4.690   4.590  17.831  0.00  0.00    +0.000 A 
ATOM     23  C   UNL     1       4.571   4.299  16.468  0.00  0.00    +0.000 A 
ATOM     24  C   UNL     1       5.716   4.236  15.671  0.00  0.00    +0.000 A 
ATOM     25  C   UNL     1       6.973   4.460  16.234  0.00  0.00    +0.000 A 
ATOM     26  C   UNL     1       7.086   4.755  17.594  0.00  0.00    +0.000 A 
ATOM     27  C   UNL     1       5.942   4.817  18.388  0.00  0.00    +0.000 A 
ATOM     28  F   UNL     1       6.080   5.124  19.685  0.00  0.00    +0.000 F 
ENDBRANCH  20  22
ENDBRANCH  17  20
ENDBRANCH   1  17
TORSDOF 4
ENDMDL
MODEL 3
REMARK VINA RESULT:      -8.5      0.910      1.295
REMARK  Name = 
REMARK  4 active torsions:
REMARK  status: ('A' for Active; 'I' for Inactive)
REMARK    1  A    between atoms: S_2  and  N_4
REMARK    2  A    between atoms: S_2  and  C_21
REMARK    3  A    between atoms: N_4  and  C_5
REMARK    4  A    between atoms: C_8  and  C_9
REMARK                            x       y       z     vdW  Elec       q    Type
REMARK                         _______ _______ _______ _____ _____    ______ ____
ROOT
ATOM      1  C   UNL     1       2.690   5.723  19.196  0.00  0.00    +0.000 A 
ATOM      2  C   UNL     1       2.050   5.817  20.428  0.00  0.00    +0.000 A 
ATOM      3  C   UNL     1       1.495   7.036  20.834  0.00  0.00    +0.000 A 
ATOM      4  C   UNL     1       1.574   8.172  20.013  0.00  0.00    +0.000 A 
ATOM      5  C   UNL     1       2.260   8.060  18.795  0.00  0.00    +0.000 A 
ATOM      6  C   UNL     1       2.805   6.842  18.381  0.00  0.00    +0.000 A 
ENDROOT
BRANCH   4   7
ATOM      7  C   UNL     1       0.999   9.444  20.468  0.00  0.00    +0.000 A 
ATOM      8  N   UNL     1       1.168   9.963  21.670  0.00  0.00    +0.000 NA
ATOM      9  N   UNL     1       0.572  11.194  21.709  0.00  0.00    +0.000 NA
ATOM     10  C   UNL     1       0.015  11.420  20.538  0.00  0.00    +0.000 A 
ATOM     11  N   UNL     1       0.187  10.305  19.751  0.00  0.00    +0.000 N 
ATOM     12  C   UNL     1      -0.394  10.060  18.446  0.00  0.00    +0.000 C 
ATOM     13  C   UNL     1      -1.787  10.641  18.247  0.00  0.00    +0.000 C 
ATOM     14  C   UNL     1      -1.788  12.134  17.924  0.00  0.00    +0.000 C 
ATOM     15  C   UNL     1      -0.745  12.965  18.670  0.00  0.00    +0.000 C 
ATOM     16  C   UNL     1      -0.699  12.678  20.167  0.00  0.00    +0.000 C 
ENDBRANCH   4   7
BRANCH   1  17
ATOM     17  N   UNL     1       3.313   4.516  18.810  0.00  0.00    +0.000 N 
ATOM     18  H   UNL     1       2.758   3.723  18.496  0.00  0.00    +0.000 HD
BRANCH  17  20
ATOM     19  O   UNL     1       5.456   5.402  19.773  0.00  0.00    +0.000 OA
ATOM     20  S   UNL     1       4.950   4.265  19.027  0.00  0.00    +0.000 S 
ATOM     21  O   UNL     1       5.142   2.920  19.521  0.00  0.00    +0.000 OA
BRANCH  20  22
ATOM     22  C   UNL     1       5.639   4.351  17.406  0.00  0.00    +0.000 A 
ATOM     23  C   UNL     1       6.963   4.764  17.221  0.00  0.00    +0.000 A 
ATOM     24  C   UNL     1       7.474   4.888  15.927  0.00  0.00    +0.000 A 
ATOM     25  C   UNL     1       6.666   4.604  14.824  0.00  0.00    +0.000 A 
ATOM     26  C   UNL     1       5.347   4.188  15.016  0.00  0.00    +0.000 A 
ATOM     27  C   UNL     1       4.838   4.066  16.307  0.00  0.00    +0.000 A 
ATOM     28  F   UNL     1       3.575   3.643  16.460  0.00  0.00    +0.000 F 
ENDBRANCH  20  22
ENDBRANCH  17  20
ENDBRANCH   1  17
TORSDOF 4
ENDMDL
MODEL 4
REMARK VINA RESULT:      -8.5      4.866      9.299
REMARK  Name = 
REMARK  4 active torsions:
REMARK  status: ('A' for Active; 'I' for Inactive)
REMARK    1  A    between atoms: S_2  and  N_4
REMARK    2  A    between atoms: S_2  and  C_21
REMARK    3  A    between atoms: N_4  and  C_5
REMARK    4  A    between atoms: C_8  and  C_9
REMARK                            x       y       z     vdW  Elec       q    Type
REMARK                         _______ _______ _______ _____ _____    ______ ____
ROOT
ATOM      1  C   UNL     1       1.121  10.072  19.162  0.00  0.00    +0.000 A 
ATOM      2  C   UNL     1       1.728   9.624  17.992  0.00  0.00    +0.000 A 
ATOM      3  C   UNL     1       2.330   8.360  17.959  0.00  0.00    +0.000 A 
ATOM      4  C   UNL     1       2.330   7.533  19.094  0.00  0.00    +0.000 A 
ATOM      5  C   UNL     1       1.747   8.026  20.270  0.00  0.00    +0.000 A 
ATOM      6  C   UNL     1       1.135   9.281  20.304  0.00  0.00    +0.000 A 
ENDROOT
BRANCH   4   7
ATOM      7  C   UNL     1       2.982   6.219  19.040  0.00  0.00    +0.000 A 
ATOM      8  N   UNL     1       4.054   5.936  18.323  0.00  0.00    +0.000 NA
ATOM      9  N   UNL     1       4.439   4.650  18.590  0.00  0.00    +0.000 NA
ATOM     10  C   UNL     1       3.587   4.135  19.451  0.00  0.00    +0.000 A 
ATOM     11  N   UNL     1       2.603   5.063  19.699  0.00  0.00    +0.000 N 
ATOM     12  C   UNL     1       1.389   4.864  20.465  0.00  0.00    +0.000 C 
ATOM     13  C   UNL     1       0.790   3.467  20.363  0.00  0.00    +0.000 C 
ATOM     14  C   UNL     1       1.478   2.440  21.258  0.00  0.00    +0.000 C 
ATOM     15  C   UNL     1       2.995   2.582  21.372  0.00  0.00    +0.000 C 
ATOM     16  C   UNL     1       3.689   2.761  20.026  0.00  0.00    +0.000 C 
ENDBRANCH   4   7
BRANCH   1  17
ATOM     17  N   UNL     1       0.573  11.372  19.223  0.00  0.00    +0.000 N 
ATOM     18  H   UNL     1       1.135  12.157  19.542  0.00  0.00    +0.000 HD
BRANCH  17  20
ATOM     19  O   UNL     1      -1.149  12.817  18.104  0.00  0.00    +0.000 OA
ATOM     20  S   UNL     1      -1.053  11.650  18.961  0.00  0.00    +0.000 S 
ATOM     21  O   UNL     1      -1.672  10.402  18.573  0.00  0.00    +0.000 OA
BRANCH  20  22
ATOM     22  C   UNL     1      -1.694  12.104  20.540  0.00  0.00    +0.000 A 
ATOM     23  C   UNL     1      -0.886  12.029  21.680  0.00  0.00    +0.000 A 
ATOM     24  C   UNL     1      -1.426  12.330  22.932  0.00  0.00    +0.000 A 
ATOM     25  C   UNL     1      -2.767  12.700  23.045  0.00  0.00    +0.000 A 
ATOM     26  C   UNL     1      -3.568  12.778  21.903  0.00  0.00    +0.000 A 
ATOM     27  C   UNL     1      -3.027  12.476  20.655  0.00  0.00    +0.000 A 
ATOM     28  F   UNL     1      -3.814  12.581  19.576  0.00  0.00    +0.000 F 
ENDBRANCH  20  22
ENDBRANCH  17  20
ENDBRANCH   1  17
TORSDOF 4
ENDMDL
MODEL 5
REMARK VINA RESULT:      -8.3      2.194      2.959
REMARK  Name = 
REMARK  4 active torsions:
REMARK  status: ('A' for Active; 'I' for Inactive)
REMARK    1  A    between atoms: S_2  and  N_4
REMARK    2  A    between atoms: S_2  and  C_21
REMARK    3  A    between atoms: N_4  and  C_5
REMARK    4  A    between atoms: C_8  and  C_9
REMARK                            x       y       z     vdW  Elec       q    Type
REMARK                         _______ _______ _______ _____ _____    ______ ____
ROOT
ATOM      1  C   UNL     1       2.399   7.337  19.497  0.00  0.00    +0.000 A 
ATOM      2  C   UNL     1       1.633   7.930  20.496  0.00  0.00    +0.000 A 
ATOM      3  C   UNL     1       0.931   9.111  20.229  0.00  0.00    +0.000 A 
ATOM      4  C   UNL     1       0.987   9.710  18.960  0.00  0.00    +0.000 A 
ATOM      5  C   UNL     1       1.799   9.115  17.984  0.00  0.00    +0.000 A 
ATOM      6  C   UNL     1       2.492   7.930  18.244  0.00  0.00    +0.000 A 
ENDROOT
BRANCH   4   7
ATOM      7  C   UNL     1       0.256  10.958  18.709  0.00  0.00    +0.000 A 
ATOM      8  N   UNL     1      -1.019  11.033  18.374  0.00  0.00    +0.000 NA
ATOM      9  N   UNL     1      -1.385  12.351  18.315  0.00  0.00    +0.000 NA
ATOM     10  C   UNL     1      -0.327  13.085  18.589  0.00  0.00    +0.000 A 
ATOM     11  N   UNL     1       0.752  12.249  18.761  0.00  0.00    +0.000 N 
ATOM     12  C   UNL     1       2.138  12.636  18.927  0.00  0.00    +0.000 C 
ATOM     13  C   UNL     1       2.550  13.884  18.156  0.00  0.00    +0.000 C 
ATOM     14  C   UNL     1       2.144  15.188  18.840  0.00  0.00    +0.000 C 
ATOM     15  C   UNL     1       0.782  15.167  19.531  0.00  0.00    +0.000 C 
ATOM     16  C   UNL     1      -0.327  14.576  18.668  0.00  0.00    +0.000 C 
ENDBRANCH   4   7
BRANCH   1  17
ATOM     17  N   UNL     1       3.164   6.185  19.779  0.00  0.00    +0.000 N 
ATOM     18  H   UNL     1       3.898   6.208  20.483  0.00  0.00    +0.000 HD
BRANCH  17  20
ATOM     19  O   UNL     1       3.178   3.673  19.758  0.00  0.00    +0.000 OA
ATOM     20  S   UNL     1       3.036   4.800  18.854  0.00  0.00    +0.000 S 
ATOM     21  O   UNL     1       1.866   4.922  18.013  0.00  0.00    +0.000 OA
BRANCH  20  22
ATOM     22  C   UNL     1       4.457   4.820  17.811  0.00  0.00    +0.000 A 
ATOM     23  C   UNL     1       5.415   5.831  17.939  0.00  0.00    +0.000 A 
ATOM     24  C   UNL     1       6.502   5.870  17.062  0.00  0.00    +0.000 A 
ATOM     25  C   UNL     1       6.630   4.905  16.062  0.00  0.00    +0.000 A 
ATOM     26  C   UNL     1       5.673   3.894  15.943  0.00  0.00    +0.000 A 
ATOM     27  C   UNL     1       4.589   3.858  16.817  0.00  0.00    +0.000 A 
ATOM     28  F   UNL     1       3.699   2.864  16.691  0.00  0.00    +0.000 F 
ENDBRANCH  20  22
ENDBRANCH  17  20
ENDBRANCH   1  17
TORSDOF 4
ENDMDL
MODEL 6
REMARK VINA RESULT:      -8.3      1.334      2.000
REMARK  Name = 
REMARK  4 active torsions:
REMARK  status: ('A' for Active; 'I' for Inactive)
REMARK    1  A    between atoms: S_2  and  N_4
REMARK    2  A    between atoms: S_2  and  C_21
REMARK    3  A    between atoms: N_4  and  C_5
REMARK    4  A    between atoms: C_8  and  C_9
REMARK                            x       y       z     vdW  Elec       q    Type
REMARK                         _______ _______ _______ _____ _____    ______ ____
ROOT
ATOM      1  C   UNL     1       2.433   5.288  18.837  0.00  0.00    +0.000 A 
ATOM      2  C   UNL     1       2.623   6.505  18.190  0.00  0.00    +0.000 A 
ATOM      3  C   UNL     1       2.222   7.694  18.810  0.00  0.00    +0.000 A 
ATOM      4  C   UNL     1       1.628   7.678  20.082  0.00  0.00    +0.000 A 
ATOM      5  C   UNL     1       1.412   6.435  20.694  0.00  0.00    +0.000 A 
ATOM      6  C   UNL     1       1.821   5.247  20.084  0.00  0.00    +0.000 A 
ENDROOT
BRANCH   4   7
ATOM      7  C   UNL     1       1.200   8.937  20.705  0.00  0.00    +0.000 A 
ATOM      8  N   UNL     1       1.318   9.224  21.988  0.00  0.00    +0.000 NA
ATOM      9  N   UNL     1       0.906  10.513  22.193  0.00  0.00    +0.000 NA
ATOM     10  C   UNL     1       0.511  11.008  21.039  0.00  0.00    +0.000 A 
ATOM     11  N   UNL     1       0.600  10.020  20.087  0.00  0.00    +0.000 N 
ATOM     12  C   UNL     1       0.127  10.081  18.718  0.00  0.00    +0.000 C 
ATOM     13  C   UNL     1      -1.140  10.902  18.516  0.00  0.00    +0.000 C 
ATOM     14  C   UNL     1      -0.890  12.408  18.456  0.00  0.00    +0.000 C 
ATOM     15  C   UNL     1       0.180  12.932  19.413  0.00  0.00    +0.000 C 
ATOM     16  C   UNL     1       0.029  12.407  20.837  0.00  0.00    +0.000 C 
ENDBRANCH   4   7
BRANCH   1  17
ATOM     17  N   UNL     1       2.772   4.079  18.190  0.00  0.00    +0.000 N 
ATOM     18  H   UNL     1       2.091   3.591  17.613  0.00  0.00    +0.000 HD
BRANCH  17  20
ATOM     19  O   UNL     1       4.308   3.101  19.920  0.00  0.00    +0.000 OA
ATOM     20  S   UNL     1       4.221   3.303  18.485  0.00  0.00    +0.000 S 
ATOM     21  O   UNL     1       4.329   2.181  17.579  0.00  0.00    +0.000 OA
BRANCH  20  22
ATOM     22  C   UNL     1       5.460   4.477  18.044  0.00  0.00    +0.000 A 
ATOM     23  C   UNL     1       6.290   5.033  19.024  0.00  0.00    +0.000 A 
ATOM     24  C   UNL     1       7.224   6.009  18.668  0.00  0.00    +0.000 A 
ATOM     25  C   UNL     1       7.326   6.429  17.341  0.00  0.00    +0.000 A 
ATOM     26  C   UNL     1       6.499   5.866  16.366  0.00  0.00    +0.000 A 
ATOM     27  C   UNL     1       5.567   4.894  16.723  0.00  0.00    +0.000 A 
ATOM     28  F   UNL     1       4.803   4.357  15.762  0.00  0.00    +0.000 F 
ENDBRANCH  20  22
ENDBRANCH  17  20
ENDBRANCH   1  17
TORSDOF 4
ENDMDL
MODEL 7
REMARK VINA RESULT:      -8.2      4.592      9.432
REMARK  Name = 
REMARK  4 active torsions:
REMARK  status: ('A' for Active; 'I' for Inactive)
REMARK    1  A    between atoms: S_2  and  N_4
REMARK    2  A    between atoms: S_2  and  C_21
REMARK    3  A    between atoms: N_4  and  C_5
REMARK    4  A    between atoms: C_8  and  C_9
REMARK                            x       y       z     vdW  Elec       q    Type
REMARK                         _______ _______ _______ _____ _____    ______ ____
ROOT
ATOM      1  C   UNL     1       1.168   9.713  19.518  0.00  0.00    +0.000 A 
ATOM      2  C   UNL     1       1.599   9.659  18.196  0.00  0.00    +0.000 A 
ATOM      3  C   UNL     1       2.241   8.509  17.719  0.00  0.00    +0.000 A 
ATOM      4  C   UNL     1       2.456   7.404  18.557  0.00  0.00    +0.000 A 
ATOM      5  C   UNL     1       2.048   7.501  19.896  0.00  0.00    +0.000 A 
ATOM      6  C   UNL     1       1.397   8.642  20.372  0.00  0.00    +0.000 A 
ENDROOT
BRANCH   4   7
ATOM      7  C   UNL     1       3.147   6.217  18.039  0.00  0.00    +0.000 A 
ATOM      8  N   UNL     1       4.185   6.242  17.224  0.00  0.00    +0.000 NA
ATOM      9  N   UNL     1       4.625   4.961  17.028  0.00  0.00    +0.000 NA
ATOM     10  C   UNL     1       3.840   4.147  17.702  0.00  0.00    +0.000 A 
ATOM     11  N   UNL     1       2.842   4.890  18.288  0.00  0.00    +0.000 N 
ATOM     12  C   UNL     1       1.680   4.388  18.993  0.00  0.00    +0.000 C 
ATOM     13  C   UNL     1       1.121   3.078  18.453  0.00  0.00    +0.000 C 
ATOM     14  C   UNL     1       1.891   1.845  18.923  0.00  0.00    +0.000 C 
ATOM     15  C   UNL     1       3.406   2.016  19.014  0.00  0.00    +0.000 C 
ATOM     16  C   UNL     1       4.018   2.667  17.779  0.00  0.00    +0.000 C 
ENDBRANCH   4   7
BRANCH   1  17
ATOM     17  N   UNL     1       0.582  10.894  20.025  0.00  0.00    +0.000 N 
ATOM     18  H   UNL     1       0.970  11.355  20.844  0.00  0.00    +0.000 HD
BRANCH  17  20
ATOM     19  O   UNL     1      -0.559  12.674  18.670  0.00  0.00    +0.000 OA
ATOM     20  S   UNL     1      -0.866  11.478  19.431  0.00  0.00    +0.000 S 
ATOM     21  O   UNL     1      -1.581  10.381  18.817  0.00  0.00    +0.000 OA
BRANCH  20  22
ATOM     22  C   UNL     1      -1.769  11.981  20.860  0.00  0.00    +0.000 A 
ATOM     23  C   UNL     1      -1.224  11.814  22.137  0.00  0.00    +0.000 A 
ATOM     24  C   UNL     1      -1.978  12.158  23.262  0.00  0.00    +0.000 A 
ATOM     25  C   UNL     1      -3.270  12.664  23.111  0.00  0.00    +0.000 A 
ATOM     26  C   UNL     1      -3.807  12.833  21.832  0.00  0.00    +0.000 A 
ATOM     27  C   UNL     1      -3.054  12.488  20.712  0.00  0.00    +0.000 A 
ATOM     28  F   UNL     1      -3.588  12.683  19.498  0.00  0.00    +0.000 F 
ENDBRANCH  20  22
ENDBRANCH  17  20
ENDBRANCH   1  17
TORSDOF 4
ENDMDL
MODEL 8
REMARK VINA RESULT:      -8.2      4.469      9.387
REMARK  Name = 
REMARK  4 active torsions:
REMARK  status: ('A' for Active; 'I' for Inactive)
REMARK    1  A    between atoms: S_2  and  N_4
REMARK    2  A    between atoms: S_2  and  C_21
REMARK    3  A    between atoms: N_4  and  C_5
REMARK    4  A    between atoms: C_8  and  C_9
REMARK                            x       y       z     vdW  Elec       q    Type
REMARK                         _______ _______ _______ _____ _____    ______ ____
ROOT
ATOM      1  C   UNL     1       1.199   9.975  19.207  0.00  0.00    +0.000 A 
ATOM      2  C   UNL     1       1.695   9.736  17.929  0.00  0.00    +0.000 A 
ATOM      3  C   UNL     1       2.217   8.477  17.608  0.00  0.00    +0.000 A 
ATOM      4  C   UNL     1       2.246   7.446  18.561  0.00  0.00    +0.000 A 
ATOM      5  C   UNL     1       1.778   7.727  19.853  0.00  0.00    +0.000 A 
ATOM      6  C   UNL     1       1.246   8.979  20.173  0.00  0.00    +0.000 A 
ENDROOT
BRANCH   4   7
ATOM      7  C   UNL     1       2.814   6.139  18.206  0.00  0.00    +0.000 A 
ATOM      8  N   UNL     1       2.257   4.974  18.480  0.00  0.00    +0.000 NA
ATOM      9  N   UNL     1       3.012   3.980  17.919  0.00  0.00    +0.000 NA
ATOM     10  C   UNL     1       4.047   4.534  17.323  0.00  0.00    +0.000 A 
ATOM     11  N   UNL     1       4.007   5.890  17.551  0.00  0.00    +0.000 N 
ATOM     12  C   UNL     1       5.025   6.863  17.209  0.00  0.00    +0.000 C 
ATOM     13  C   UNL     1       6.456   6.349  17.301  0.00  0.00    +0.000 C 
ATOM     14  C   UNL     1       6.890   5.526  16.091  0.00  0.00    +0.000 C 
ATOM     15  C   UNL     1       5.818   4.610  15.504  0.00  0.00    +0.000 C 
ATOM     16  C   UNL     1       5.085   3.784  16.555  0.00  0.00    +0.000 C 
ENDBRANCH   4   7
BRANCH   1  17
ATOM     17  N   UNL     1       0.736  11.262  19.558  0.00  0.00    +0.000 N 
ATOM     18  H   UNL     1       1.307  11.883  20.126  0.00  0.00    +0.000 HD
BRANCH  17  20
ATOM     19  O   UNL     1      -0.735  13.051  18.586  0.00  0.00    +0.000 OA
ATOM     20  S   UNL     1      -0.826  11.752  19.226  0.00  0.00    +0.000 S 
ATOM     21  O   UNL     1      -1.516  10.660  18.573  0.00  0.00    +0.000 OA
BRANCH  20  22
ATOM     22  C   UNL     1      -1.570  11.994  20.806  0.00  0.00    +0.000 A 
ATOM     23  C   UNL     1      -0.899  11.606  21.971  0.00  0.00    +0.000 A 
ATOM     24  C   UNL     1      -1.528  11.745  23.210  0.00  0.00    +0.000 A 
ATOM     25  C   UNL     1      -2.820  12.268  23.285  0.00  0.00    +0.000 A 
ATOM     26  C   UNL     1      -3.482  12.658  22.119  0.00  0.00    +0.000 A 
ATOM     27  C   UNL     1      -2.854  12.517  20.884  0.00  0.00    +0.000 A 
ATOM     28  F   UNL     1      -3.507  12.921  19.785  0.00  0.00    +0.000 F 
ENDBRANCH  20  22
ENDBRANCH  17  20
ENDBRANCH   1  17
TORSDOF 4
ENDMDL
MODEL 9
REMARK VINA RESULT:      -8.2      2.194      3.175
REMARK  Name = 
REMARK  4 active torsions:
REMARK  status: ('A' for Active; 'I' for Inactive)
REMARK    1  A    between atoms: S_2  and  N_4
REMARK    2  A    between atoms: S_2  and  C_21
REMARK    3  A    between atoms: N_4  and  C_5
REMARK    4  A    between atoms: C_8  and  C_9
REMARK                            x       y       z     vdW  Elec       q    Type
REMARK                         _______ _______ _______ _____ _____    ______ ____
ROOT
ATOM      1  C   UNL     1       2.349   7.322  19.725  0.00  0.00    +0.000 A 
ATOM      2  C   UNL     1       2.481   7.886  18.459  0.00  0.00    +0.000 A 
ATOM      3  C   UNL     1       1.805   9.074  18.152  0.00  0.00    +0.000 A 
ATOM      4  C   UNL     1       0.994   9.708  19.106  0.00  0.00    +0.000 A 
ATOM      5  C   UNL     1       0.847   9.096  20.360  0.00  0.00    +0.000 A 
ATOM      6  C   UNL     1       1.528   7.918  20.674  0.00  0.00    +0.000 A 
ENDROOT
BRANCH   4   7
ATOM      7  C   UNL     1       0.282  10.943  18.755  0.00  0.00    +0.000 A 
ATOM      8  N   UNL     1      -0.968  11.002  18.333  0.00  0.00    +0.000 NA
ATOM      9  N   UNL     1      -1.327  12.315  18.195  0.00  0.00    +0.000 NA
ATOM     10  C   UNL     1      -0.289  13.062  18.508  0.00  0.00    +0.000 A 
ATOM     11  N   UNL     1       0.775  12.236  18.786  0.00  0.00    +0.000 N 
ATOM     12  C   UNL     1       2.147  12.632  19.027  0.00  0.00    +0.000 C 
ATOM     13  C   UNL     1       2.610  13.848  18.234  0.00  0.00    +0.000 C 
ATOM     14  C   UNL     1       2.161  15.178  18.835  0.00  0.00    +0.000 C 
ATOM     15  C   UNL     1       0.756  15.184  19.434  0.00  0.00    +0.000 C 
ATOM     16  C   UNL     1      -0.294  14.555  18.524  0.00  0.00    +0.000 C 
ENDBRANCH   4   7
BRANCH   1  17
ATOM     17  N   UNL     1       2.971   6.089  20.020  0.00  0.00    +0.000 N 
ATOM     18  H   UNL     1       3.544   5.983  20.853  0.00  0.00    +0.000 HD
BRANCH  17  20
ATOM     19  O   UNL     1       2.759   3.606  19.707  0.00  0.00    +0.000 OA
ATOM     20  S   UNL     1       2.956   4.819  18.935  0.00  0.00    +0.000 S 
ATOM     21  O   UNL     1       2.056   5.154  17.854  0.00  0.00    +0.000 OA
BRANCH  20  22
ATOM     22  C   UNL     1       4.592   4.764  18.280  0.00  0.00    +0.000 A 
ATOM     23  C   UNL     1       5.656   5.341  18.984  0.00  0.00    +0.000 A 
ATOM     24  C   UNL     1       6.935   5.346  18.422  0.00  0.00    +0.000 A 
ATOM     25  C   UNL     1       7.149   4.781  17.164  0.00  0.00    +0.000 A 
ATOM     26  C   UNL     1       6.085   4.202  16.469  0.00  0.00    +0.000 A 
ATOM     27  C   UNL     1       4.810   4.199  17.030  0.00  0.00    +0.000 A 
ATOM     28  F   UNL     1       3.813   3.617  16.349  0.00  0.00    +0.000 F 
ENDBRANCH  20  22
ENDBRANCH  17  20
ENDBRANCH   1  17
TORSDOF 4
ENDMDL
