MODEL 1
REMARK VINA RESULT:      -8.5      0.000      0.000
REMARK  Name = 
REMARK  7 active torsions:
REMARK  status: ('A' for Active; 'I' for Inactive)
REMARK    1  A    between atoms: C_1  and  N_2
REMARK    2  A    between atoms: N_2  and  C_28
REMARK    3  A    between atoms: C_3  and  C_5
REMARK    4  A    between atoms: C_5  and  N_6
REMARK    5  A    between atoms: C_7  and  C_8
REMARK    6  A    between atoms: N_12  and  C_13
REMARK    7  A    between atoms: C_13  and  C_14
REMARK                            x       y       z     vdW  Elec       q    Type
REMARK                         _______ _______ _______ _____ _____    ______ ____
ROOT
ATOM      1  N   UNL     1      -0.750  11.359  19.558  0.00  0.00    +0.000 N 
ATOM      2  C   UNL     1      -1.524  12.168  20.384  0.00  0.00    +0.000 A 
ATOM      3  N   UNL     1      -2.641  12.481  19.743  0.00  0.00    +0.000 NA
ATOM      4  C   UNL     1      -2.717  11.675  18.648  0.00  0.00    +0.000 A 
ATOM      5  C   UNL     1      -3.780  11.495  17.753  0.00  0.00    +0.000 A 
ATOM      6  C   UNL     1      -3.639  10.560  16.723  0.00  0.00    +0.000 A 
ATOM      7  C   UNL     1      -2.449   9.848  16.570  0.00  0.00    +0.000 A 
ATOM      8  C   UNL     1      -1.367  10.042  17.442  0.00  0.00    +0.000 A 
ATOM      9  C   UNL     1      -1.542  10.958  18.490  0.00  0.00    +0.000 A 
ENDROOT
BRANCH   2  10
ATOM     10  C   UNL     1      -1.231  12.768  21.752  0.00  0.00    +0.000 C 
ATOM     11  C   UNL     1      -1.478  11.955  23.021  0.00  0.00    +0.000 C 
ATOM     12  C   UNL     1      -2.917  12.226  23.391  0.00  0.00    +0.000 C 
ATOM     13  O   UNL     1      -3.593  11.567  24.165  0.00  0.00    +0.000 OA
ATOM     14  N   UNL     1      -3.255  13.433  22.815  0.00  0.00    +0.000 N 
ATOM     15  C   UNL     1      -2.182  13.969  22.004  0.00  0.00    +0.000 C 
BRANCH  14  16
ATOM     16  C   UNL     1      -4.501  14.146  23.037  0.00  0.00    +0.000 C 
BRANCH  16  17
ATOM     17  C   UNL     1      -5.709  13.347  22.611  0.00  0.00    +0.000 A 
ATOM     18  C   UNL     1      -6.728  13.064  23.532  0.00  0.00    +0.000 A 
ATOM     19  C   UNL     1      -7.808  12.259  23.170  0.00  0.00    +0.000 A 
ATOM     20  C   UNL     1      -7.890  11.740  21.880  0.00  0.00    +0.000 A 
ATOM     21  C   UNL     1      -6.907  12.050  20.942  0.00  0.00    +0.000 A 
ATOM     22  C   UNL     1      -5.824  12.855  21.303  0.00  0.00    +0.000 A 
ENDBRANCH  16  17
ENDBRANCH  14  16
ENDBRANCH   2  10
BRANCH   1  23
ATOM     23  C   UNL     1       0.631  10.912  19.722  0.00  0.00    +0.000 C 
BRANCH  23  26
ATOM     24  C   UNL     1       1.951   9.219  17.764  0.00  0.00    +0.000 C 
ATOM     25  N   UNL     1       1.620   8.711  19.098  0.00  0.00    +0.000 N 
ATOM     26  C   UNL     1       0.719   9.408  19.924  0.00  0.00    +0.000 C 
ATOM     27  O   UNL     1       0.061   8.904  20.834  0.00  0.00    +0.000 OA
BRANCH  25  28
ATOM     28  C   UNL     1       2.127   7.392  19.436  0.00  0.00    +0.000 A 
ATOM     29  C   UNL     1       3.153   6.757  18.707  0.00  0.00    +0.000 A 
ATOM     30  C   UNL     1       3.639   5.502  19.052  0.00  0.00    +0.000 A 
ATOM     31  C   UNL     1       3.109   4.806  20.119  0.00  0.00    +0.000 A 
ATOM     32  C   UNL     1       2.066   5.389  20.846  0.00  0.00    +0.000 A 
ATOM     33  C   UNL     1       1.585   6.655  20.504  0.00  0.00    +0.000 A 
ENDBRANCH  25  28
ENDBRANCH  23  26
ENDBRANCH   1  23
TORSDOF 6
ENDMDL
MODEL 2
REMARK VINA RESULT:      -8.5      4.355     10.767
REMARK  Name = 
REMARK  7 active torsions:
REMARK  status: ('A' for Active; 'I' for Inactive)
REMARK    1  A    between atoms: C_1  and  N_2
REMARK    2  A    between atoms: N_2  and  C_28
REMARK    3  A    between atoms: C_3  and  C_5
REMARK    4  A    between atoms: C_5  and  N_6
REMARK    5  A    between atoms: C_7  and  C_8
REMARK    6  A    between atoms: N_12  and  C_13
REMARK    7  A    between atoms: C_13  and  C_14
REMARK                            x       y       z     vdW  Elec       q    Type
REMARK                         _______ _______ _______ _____ _____    ______ ____
ROOT
ATOM      1  N   UNL     1       3.060   5.760  18.641  0.00  0.00    +0.000 N 
ATOM      2  C   UNL     1       3.752   5.407  17.487  0.00  0.00    +0.000 A 
ATOM      3  N   UNL     1       3.630   4.101  17.303  0.00  0.00    +0.000 NA
ATOM      4  C   UNL     1       2.661   3.662  18.153  0.00  0.00    +0.000 A 
ATOM      5  C   UNL     1       2.044   2.406  18.221  0.00  0.00    +0.000 A 
ATOM      6  C   UNL     1       1.023   2.209  19.156  0.00  0.00    +0.000 A 
ATOM      7  C   UNL     1       0.653   3.234  20.026  0.00  0.00    +0.000 A 
ATOM      8  C   UNL     1       1.283   4.486  19.988  0.00  0.00    +0.000 A 
ATOM      9  C   UNL     1       2.280   4.674  19.019  0.00  0.00    +0.000 A 
ENDROOT
BRANCH   2  10
ATOM     10  C   UNL     1       4.634   6.233  16.561  0.00  0.00    +0.000 C 
ATOM     11  C   UNL     1       5.640   5.548  15.639  0.00  0.00    +0.000 C 
ATOM     12  C   UNL     1       6.903   5.419  16.458  0.00  0.00    +0.000 C 
ATOM     13  O   UNL     1       7.848   4.688  16.205  0.00  0.00    +0.000 OA
ATOM     14  N   UNL     1       6.841   6.386  17.440  0.00  0.00    +0.000 N 
ATOM     15  C   UNL     1       5.590   7.115  17.409  0.00  0.00    +0.000 C 
BRANCH  14  16
ATOM     16  C   UNL     1       7.916   6.713  18.360  0.00  0.00    +0.000 C 
BRANCH  16  17
ATOM     17  C   UNL     1       8.223   8.191  18.389  0.00  0.00    +0.000 A 
ATOM     18  C   UNL     1       7.743   9.032  17.375  0.00  0.00    +0.000 A 
ATOM     19  C   UNL     1       8.090  10.383  17.350  0.00  0.00    +0.000 A 
ATOM     20  C   UNL     1       8.907  10.913  18.346  0.00  0.00    +0.000 A 
ATOM     21  C   UNL     1       9.353  10.097  19.385  0.00  0.00    +0.000 A 
ATOM     22  C   UNL     1       9.009   8.744  19.410  0.00  0.00    +0.000 A 
ENDBRANCH  16  17
ENDBRANCH  14  16
ENDBRANCH   2  10
BRANCH   1  23
ATOM     23  C   UNL     1       3.047   7.027  19.368  0.00  0.00    +0.000 C 
BRANCH  23  26
ATOM     24  C   UNL     1       1.130   8.370  21.090  0.00  0.00    +0.000 C 
ATOM     25  N   UNL     1       1.351   8.821  19.713  0.00  0.00    +0.000 N 
ATOM     26  C   UNL     1       2.030   7.999  18.794  0.00  0.00    +0.000 C 
ATOM     27  O   UNL     1       1.913   8.062  17.570  0.00  0.00    +0.000 OA
BRANCH  25  28
ATOM     28  C   UNL     1       0.691  10.053  19.318  0.00  0.00    +0.000 A 
ATOM     29  C   UNL     1       1.381  11.272  19.156  0.00  0.00    +0.000 A 
ATOM     30  C   UNL     1       0.739  12.439  18.762  0.00  0.00    +0.000 A 
ATOM     31  C   UNL     1      -0.623  12.458  18.539  0.00  0.00    +0.000 A 
ATOM     32  C   UNL     1      -1.348  11.276  18.724  0.00  0.00    +0.000 A 
ATOM     33  C   UNL     1      -0.699  10.101  19.110  0.00  0.00    +0.000 A 
ENDBRANCH  25  28
ENDBRANCH  23  26
ENDBRANCH   1  23
TORSDOF 6
ENDMDL
MODEL 3
REMARK VINA RESULT:      -8.5      0.145      1.187
REMARK  Name = 
REMARK  7 active torsions:
REMARK  status: ('A' for Active; 'I' for Inactive)
REMARK    1  A    between atoms: C_1  and  N_2
REMARK    2  A    between atoms: N_2  and  C_28
REMARK    3  A    between atoms: C_3  and  C_5
REMARK    4  A    between atoms: C_5  and  N_6
REMARK    5  A    between atoms: C_7  and  C_8
REMARK    6  A    between atoms: N_12  and  C_13
REMARK    7  A    between atoms: C_13  and  C_14
REMARK                            x       y       z     vdW  Elec       q    Type
REMARK                         _______ _______ _______ _____ _____    ______ ____
ROOT
ATOM      1  N   UNL     1      -0.706  11.280  19.542  0.00  0.00    +0.000 N 
ATOM      2  C   UNL     1      -1.474  12.119  20.343  0.00  0.00    +0.000 A 
ATOM      3  N   UNL     1      -2.581  12.434  19.688  0.00  0.00    +0.000 NA
ATOM      4  C   UNL     1      -2.662  11.604  18.611  0.00  0.00    +0.000 A 
ATOM      5  C   UNL     1      -3.721  11.418  17.713  0.00  0.00    +0.000 A 
ATOM      6  C   UNL     1      -3.588  10.457  16.706  0.00  0.00    +0.000 A 
ATOM      7  C   UNL     1      -2.408   9.724  16.579  0.00  0.00    +0.000 A 
ATOM      8  C   UNL     1      -1.329   9.923  17.453  0.00  0.00    +0.000 A 
ATOM      9  C   UNL     1      -1.497  10.866  18.478  0.00  0.00    +0.000 A 
ENDROOT
BRANCH   2  10
ATOM     10  C   UNL     1      -1.180  12.747  21.698  0.00  0.00    +0.000 C 
ATOM     11  C   UNL     1      -1.372  11.941  22.981  0.00  0.00    +0.000 C 
ATOM     12  C   UNL     1      -2.814  12.160  23.374  0.00  0.00    +0.000 C 
ATOM     13  O   UNL     1      -3.450  11.483  24.167  0.00  0.00    +0.000 OA
ATOM     14  N   UNL     1      -3.210  13.345  22.790  0.00  0.00    +0.000 N 
ATOM     15  C   UNL     1      -2.174  13.913  21.954  0.00  0.00    +0.000 C 
BRANCH  14  16
ATOM     16  C   UNL     1      -4.479  14.010  23.026  0.00  0.00    +0.000 C 
BRANCH  16  17
ATOM     17  C   UNL     1      -5.660  13.171  22.605  0.00  0.00    +0.000 A 
ATOM     18  C   UNL     1      -5.729  12.650  21.305  0.00  0.00    +0.000 A 
ATOM     19  C   UNL     1      -6.853  11.942  20.882  0.00  0.00    +0.000 A 
ATOM     20  C   UNL     1      -7.917  11.733  21.757  0.00  0.00    +0.000 A 
ATOM     21  C   UNL     1      -7.842  12.206  23.066  0.00  0.00    +0.000 A 
ATOM     22  C   UNL     1      -6.718  12.917  23.491  0.00  0.00    +0.000 A 
ENDBRANCH  16  17
ENDBRANCH  14  16
ENDBRANCH   2  10
BRANCH   1  23
ATOM     23  C   UNL     1       0.667  10.817  19.726  0.00  0.00    +0.000 C 
BRANCH  23  26
ATOM     24  C   UNL     1       2.003   9.077  17.820  0.00  0.00    +0.000 C 
ATOM     25  N   UNL     1       1.640   8.594  19.156  0.00  0.00    +0.000 N 
ATOM     26  C   UNL     1       0.733   9.316  19.953  0.00  0.00    +0.000 C 
ATOM     27  O   UNL     1       0.051   8.835  20.858  0.00  0.00    +0.000 OA
BRANCH  25  28
ATOM     28  C   UNL     1       2.124   7.275  19.524  0.00  0.00    +0.000 A 
ATOM     29  C   UNL     1       1.498   6.475  20.501  0.00  0.00    +0.000 A 
ATOM     30  C   UNL     1       1.964   5.208  20.831  0.00  0.00    +0.000 A 
ATOM     31  C   UNL     1       3.090   4.688  20.226  0.00  0.00    +0.000 A 
ATOM     32  C   UNL     1       3.759   5.466  19.275  0.00  0.00    +0.000 A 
ATOM     33  C   UNL     1       3.284   6.735  18.938  0.00  0.00    +0.000 A 
ENDBRANCH  25  28
ENDBRANCH  23  26
ENDBRANCH   1  23
TORSDOF 6
ENDMDL
MODEL 4
REMARK VINA RESULT:      -8.4      4.418     10.754
REMARK  Name = 
REMARK  7 active torsions:
REMARK  status: ('A' for Active; 'I' for Inactive)
REMARK    1  A    between atoms: C_1  and  N_2
REMARK    2  A    between atoms: N_2  and  C_28
REMARK    3  A    between atoms: C_3  and  C_5
REMARK    4  A    between atoms: C_5  and  N_6
REMARK    5  A    between atoms: C_7  and  C_8
REMARK    6  A    between atoms: N_12  and  C_13
REMARK    7  A    between atoms: C_13  and  C_14
REMARK                            x       y       z     vdW  Elec       q    Type
REMARK                         _______ _______ _______ _____ _____    ______ ____
ROOT
ATOM      1  N   UNL     1       3.040   5.730  18.634  0.00  0.00    +0.000 N 
ATOM      2  C   UNL     1       3.740   5.383  17.483  0.00  0.00    +0.000 A 
ATOM      3  N   UNL     1       3.617   4.079  17.290  0.00  0.00    +0.000 NA
ATOM      4  C   UNL     1       2.640   3.637  18.128  0.00  0.00    +0.000 A 
ATOM      5  C   UNL     1       2.020   2.381  18.183  0.00  0.00    +0.000 A 
ATOM      6  C   UNL     1       0.990   2.180  19.108  0.00  0.00    +0.000 A 
ATOM      7  C   UNL     1       0.615   3.200  19.982  0.00  0.00    +0.000 A 
ATOM      8  C   UNL     1       1.248   4.451  19.958  0.00  0.00    +0.000 A 
ATOM      9  C   UNL     1       2.254   4.644  18.998  0.00  0.00    +0.000 A 
ENDROOT
BRANCH   2  10
ATOM     10  C   UNL     1       4.631   6.214  16.570  0.00  0.00    +0.000 C 
ATOM     11  C   UNL     1       5.665   5.534  15.675  0.00  0.00    +0.000 C 
ATOM     12  C   UNL     1       6.912   5.426  16.522  0.00  0.00    +0.000 C 
ATOM     13  O   UNL     1       7.871   4.705  16.295  0.00  0.00    +0.000 OA
ATOM     14  N   UNL     1       6.817   6.400  17.494  0.00  0.00    +0.000 N 
ATOM     15  C   UNL     1       5.559   7.113  17.431  0.00  0.00    +0.000 C 
BRANCH  14  16
ATOM     16  C   UNL     1       7.868   6.747  18.435  0.00  0.00    +0.000 C 
BRANCH  16  17
ATOM     17  C   UNL     1       8.238   8.209  18.376  0.00  0.00    +0.000 A 
ATOM     18  C   UNL     1       9.077   8.766  19.352  0.00  0.00    +0.000 A 
ATOM     19  C   UNL     1       9.358  10.132  19.352  0.00  0.00    +0.000 A 
ATOM     20  C   UNL     1       8.818  10.955  18.367  0.00  0.00    +0.000 A 
ATOM     21  C   UNL     1       8.020  10.407  17.364  0.00  0.00    +0.000 A 
ATOM     22  C   UNL     1       7.735   9.040  17.364  0.00  0.00    +0.000 A 
ENDBRANCH  16  17
ENDBRANCH  14  16
ENDBRANCH   2  10
BRANCH   1  23
ATOM     23  C   UNL     1       3.022   6.992  19.369  0.00  0.00    +0.000 C 
BRANCH  23  26
ATOM     24  C   UNL     1       1.146   8.390  21.093  0.00  0.00    +0.000 C 
ATOM     25  N   UNL     1       1.357   8.816  19.706  0.00  0.00    +0.000 N 
ATOM     26  C   UNL     1       2.013   7.971  18.792  0.00  0.00    +0.000 C 
ATOM     27  O   UNL     1       1.883   8.017  17.569  0.00  0.00    +0.000 OA
BRANCH  25  28
ATOM     28  C   UNL     1       0.711  10.052  19.300  0.00  0.00    +0.000 A 
ATOM     29  C   UNL     1      -0.650  10.122  18.939  0.00  0.00    +0.000 A 
ATOM     30  C   UNL     1      -1.257  11.316  18.569  0.00  0.00    +0.000 A 
ATOM     31  C   UNL     1      -0.535  12.490  18.511  0.00  0.00    +0.000 A 
ATOM     32  C   UNL     1       0.827  12.455  18.829  0.00  0.00    +0.000 A 
ATOM     33  C   UNL     1       1.434  11.256  19.210  0.00  0.00    +0.000 A 
ENDBRANCH  25  28
ENDBRANCH  23  26
ENDBRANCH   1  23
TORSDOF 6
ENDMDL
MODEL 5
REMARK VINA RESULT:      -8.4      2.707      4.459
REMARK  Name = 
REMARK  7 active torsions:
REMARK  status: ('A' for Active; 'I' for Inactive)
REMARK    1  A    between atoms: C_1  and  N_2
REMARK    2  A    between atoms: N_2  and  C_28
REMARK    3  A    between atoms: C_3  and  C_5
REMARK    4  A    between atoms: C_5  and  N_6
REMARK    5  A    between atoms: C_7  and  C_8
REMARK    6  A    between atoms: N_12  and  C_13
REMARK    7  A    between atoms: C_13  and  C_14
REMARK                            x       y       z     vdW  Elec       q    Type
REMARK                         _______ _______ _______ _____ _____    ______ ____
ROOT
ATOM      1  N   UNL     1      -0.096  10.851  19.155  0.00  0.00    +0.000 N 
ATOM      2  C   UNL     1      -1.164  10.982  18.274  0.00  0.00    +0.000 A 
ATOM      3  N   UNL     1      -1.406  12.271  18.090  0.00  0.00    +0.000 NA
ATOM      4  C   UNL     1      -0.354  12.958  18.614  0.00  0.00    +0.000 A 
ATOM      5  C   UNL     1      -0.051  14.322  18.518  0.00  0.00    +0.000 A 
ATOM      6  C   UNL     1       1.131  14.790  19.102  0.00  0.00    +0.000 A 
ATOM      7  C   UNL     1       1.971  13.920  19.797  0.00  0.00    +0.000 A 
ATOM      8  C   UNL     1       1.663  12.558  19.925  0.00  0.00    +0.000 A 
ATOM      9  C   UNL     1       0.491  12.102  19.301  0.00  0.00    +0.000 A 
ENDROOT
BRANCH   2  10
ATOM     10  C   UNL     1      -2.070   9.933  17.642  0.00  0.00    +0.000 C 
ATOM     11  C   UNL     1      -2.216   9.853  16.124  0.00  0.00    +0.000 C 
ATOM     12  C   UNL     1      -3.346  10.797  15.785  0.00  0.00    +0.000 C 
ATOM     13  O   UNL     1      -3.598  11.242  14.676  0.00  0.00    +0.000 OA
ATOM     14  N   UNL     1      -4.111  10.928  16.925  0.00  0.00    +0.000 N 
ATOM     15  C   UNL     1      -3.543  10.211  18.048  0.00  0.00    +0.000 C 
BRANCH  14  16
ATOM     16  C   UNL     1      -5.381  11.628  17.005  0.00  0.00    +0.000 C 
BRANCH  16  17
ATOM     17  C   UNL     1      -5.952  11.634  18.402  0.00  0.00    +0.000 A 
ATOM     18  C   UNL     1      -6.775  10.584  18.833  0.00  0.00    +0.000 A 
ATOM     19  C   UNL     1      -7.372  10.622  20.093  0.00  0.00    +0.000 A 
ATOM     20  C   UNL     1      -7.142  11.701  20.943  0.00  0.00    +0.000 A 
ATOM     21  C   UNL     1      -6.290  12.730  20.544  0.00  0.00    +0.000 A 
ATOM     22  C   UNL     1      -5.693  12.695  19.282  0.00  0.00    +0.000 A 
ENDBRANCH  16  17
ENDBRANCH  14  16
ENDBRANCH   2  10
BRANCH   1  23
ATOM     23  C   UNL     1       0.426   9.658  19.816  0.00  0.00    +0.000 C 
BRANCH  23  26
ATOM     24  C   UNL     1       1.922   7.407  20.885  0.00  0.00    +0.000 C 
ATOM     25  N   UNL     1       1.985   7.745  19.460  0.00  0.00    +0.000 N 
ATOM     26  C   UNL     1       1.525   8.994  19.002  0.00  0.00    +0.000 C 
ATOM     27  O   UNL     1       1.892   9.544  17.964  0.00  0.00    +0.000 OA
BRANCH  25  28
ATOM     28  C   UNL     1       2.692   6.812  18.601  0.00  0.00    +0.000 A 
ATOM     29  C   UNL     1       2.336   5.452  18.491  0.00  0.00    +0.000 A 
ATOM     30  C   UNL     1       3.012   4.574  17.652  0.00  0.00    +0.000 A 
ATOM     31  C   UNL     1       4.092   4.999  16.905  0.00  0.00    +0.000 A 
ATOM     32  C   UNL     1       4.498   6.333  17.014  0.00  0.00    +0.000 A 
ATOM     33  C   UNL     1       3.811   7.217  17.850  0.00  0.00    +0.000 A 
ENDBRANCH  25  28
ENDBRANCH  23  26
ENDBRANCH   1  23
TORSDOF 6
ENDMDL
MODEL 6
REMARK VINA RESULT:      -8.3      2.868      4.518
REMARK  Name = 
REMARK  7 active torsions:
REMARK  status: ('A' for Active; 'I' for Inactive)
REMARK    1  A    between atoms: C_1  and  N_2
REMARK    2  A    between atoms: N_2  and  C_28
REMARK    3  A    between atoms: C_3  and  C_5
REMARK    4  A    between atoms: C_5  and  N_6
REMARK    5  A    between atoms: C_7  and  C_8
REMARK    6  A    between atoms: N_12  and  C_13
REMARK    7  A    between atoms: C_13  and  C_14
REMARK                            x       y       z     vdW  Elec       q    Type
REMARK                         _______ _______ _______ _____ _____    ______ ____
ROOT
ATOM      1  N   UNL     1      -0.964  11.718  20.125  0.00  0.00    +0.000 N 
ATOM      2  C   UNL     1      -1.923  12.531  20.720  0.00  0.00    +0.000 A 
ATOM      3  N   UNL     1      -2.934  12.681  19.877  0.00  0.00    +0.000 NA
ATOM      4  C   UNL     1      -2.765  11.771  18.879  0.00  0.00    +0.000 A 
ATOM      5  C   UNL     1      -3.645  11.412  17.849  0.00  0.00    +0.000 A 
ATOM      6  C   UNL     1      -3.265  10.398  16.964  0.00  0.00    +0.000 A 
ATOM      7  C   UNL     1      -2.019   9.783  17.085  0.00  0.00    +0.000 A 
ATOM      8  C   UNL     1      -1.118  10.154  18.093  0.00  0.00    +0.000 A 
ATOM      9  C   UNL     1      -1.533  11.148  18.993  0.00  0.00    +0.000 A 
ENDROOT
BRANCH   2  10
ATOM     10  C   UNL     1      -1.910  13.284  22.044  0.00  0.00    +0.000 C 
ATOM     11  C   UNL     1      -2.109  12.535  23.360  0.00  0.00    +0.000 C 
ATOM     12  C   UNL     1      -3.603  12.507  23.578  0.00  0.00    +0.000 C 
ATOM     13  O   UNL     1      -4.200  11.774  24.351  0.00  0.00    +0.000 OA
ATOM     14  N   UNL     1      -4.129  13.561  22.860  0.00  0.00    +0.000 N 
ATOM     15  C   UNL     1      -3.117  14.259  22.096  0.00  0.00    +0.000 C 
BRANCH  14  16
ATOM     16  C   UNL     1      -5.515  13.993  22.904  0.00  0.00    +0.000 C 
BRANCH  16  17
ATOM     17  C   UNL     1      -6.267  13.658  21.639  0.00  0.00    +0.000 A 
ATOM     18  C   UNL     1      -6.448  12.321  21.259  0.00  0.00    +0.000 A 
ATOM     19  C   UNL     1      -7.070  12.004  20.051  0.00  0.00    +0.000 A 
ATOM     20  C   UNL     1      -7.533  13.019  19.217  0.00  0.00    +0.000 A 
ATOM     21  C   UNL     1      -7.400  14.351  19.605  0.00  0.00    +0.000 A 
ATOM     22  C   UNL     1      -6.776  14.670  20.812  0.00  0.00    +0.000 A 
ENDBRANCH  16  17
ENDBRANCH  14  16
ENDBRANCH   2  10
BRANCH   1  23
ATOM     23  C   UNL     1       0.396  11.412  20.558  0.00  0.00    +0.000 C 
BRANCH  23  26
ATOM     24  C   UNL     1       2.118  11.684  18.233  0.00  0.00    +0.000 C 
ATOM     25  N   UNL     1       1.888  12.815  19.137  0.00  0.00    +0.000 N 
ATOM     26  C   UNL     1       1.321  12.608  20.408  0.00  0.00    +0.000 C 
ATOM     27  O   UNL     1       1.463  13.358  21.374  0.00  0.00    +0.000 OA
BRANCH  25  28
ATOM     28  C   UNL     1       2.426  14.099  18.722  0.00  0.00    +0.000 A 
ATOM     29  C   UNL     1       1.650  15.275  18.675  0.00  0.00    +0.000 A 
ATOM     30  C   UNL     1       2.183  16.499  18.291  0.00  0.00    +0.000 A 
ATOM     31  C   UNL     1       3.504  16.607  17.908  0.00  0.00    +0.000 A 
ATOM     32  C   UNL     1       4.298  15.455  17.907  0.00  0.00    +0.000 A 
ATOM     33  C   UNL     1       3.763  14.227  18.303  0.00  0.00    +0.000 A 
ENDBRANCH  25  28
ENDBRANCH  23  26
ENDBRANCH   1  23
TORSDOF 6
ENDMDL
MODEL 7
REMARK VINA RESULT:      -8.3      2.763      4.396
REMARK  Name = 
REMARK  7 active torsions:
REMARK  status: ('A' for Active; 'I' for Inactive)
REMARK    1  A    between atoms: C_1  and  N_2
REMARK    2  A    between atoms: N_2  and  C_28
REMARK    3  A    between atoms: C_3  and  C_5
REMARK    4  A    between atoms: C_5  and  N_6
REMARK    5  A    between atoms: C_7  and  C_8
REMARK    6  A    between atoms: N_12  and  C_13
REMARK    7  A    between atoms: C_13  and  C_14
REMARK                            x       y       z     vdW  Elec       q    Type
REMARK                         _______ _______ _______ _____ _____    ______ ____
ROOT
ATOM      1  N   UNL     1      -0.083  10.895  19.138  0.00  0.00    +0.000 N 
ATOM      2  C   UNL     1      -1.181  11.037  18.295  0.00  0.00    +0.000 A 
ATOM      3  N   UNL     1      -1.397  12.329  18.095  0.00  0.00    +0.000 NA
ATOM      4  C   UNL     1      -0.308  12.998  18.564  0.00  0.00    +0.000 A 
ATOM      5  C   UNL     1       0.026  14.351  18.429  0.00  0.00    +0.000 A 
ATOM      6  C   UNL     1       1.241  14.799  18.958  0.00  0.00    +0.000 A 
ATOM      7  C   UNL     1       2.085  13.920  19.637  0.00  0.00    +0.000 A 
ATOM      8  C   UNL     1       1.747  12.570  19.805  0.00  0.00    +0.000 A 
ATOM      9  C   UNL     1       0.541  12.133  19.236  0.00  0.00    +0.000 A 
ENDROOT
BRANCH   2  10
ATOM     10  C   UNL     1      -2.137  10.001  17.720  0.00  0.00    +0.000 C 
ATOM     11  C   UNL     1      -2.274   9.833  16.208  0.00  0.00    +0.000 C 
ATOM     12  C   UNL     1      -3.348  10.813  15.797  0.00  0.00    +0.000 C 
ATOM     13  O   UNL     1      -3.567  11.199  14.660  0.00  0.00    +0.000 OA
ATOM     14  N   UNL     1      -4.114  11.056  16.918  0.00  0.00    +0.000 N 
ATOM     15  C   UNL     1      -3.596  10.383  18.090  0.00  0.00    +0.000 C 
BRANCH  14  16
ATOM     16  C   UNL     1      -5.345  11.828  16.938  0.00  0.00    +0.000 C 
BRANCH  16  17
ATOM     17  C   UNL     1      -6.050  11.759  18.271  0.00  0.00    +0.000 A 
ATOM     18  C   UNL     1      -6.012  12.853  19.147  0.00  0.00    +0.000 A 
ATOM     19  C   UNL     1      -6.591  12.769  20.413  0.00  0.00    +0.000 A 
ATOM     20  C   UNL     1      -7.228  11.597  20.813  0.00  0.00    +0.000 A 
ATOM     21  C   UNL     1      -7.312  10.518  19.935  0.00  0.00    +0.000 A 
ATOM     22  C   UNL     1      -6.731  10.599  18.668  0.00  0.00    +0.000 A 
ENDBRANCH  16  17
ENDBRANCH  14  16
ENDBRANCH   2  10
BRANCH   1  23
ATOM     23  C   UNL     1       0.433   9.702  19.802  0.00  0.00    +0.000 C 
BRANCH  23  26
ATOM     24  C   UNL     1       1.964   7.486  20.895  0.00  0.00    +0.000 C 
ATOM     25  N   UNL     1       1.984   7.780  19.459  0.00  0.00    +0.000 N 
ATOM     26  C   UNL     1       1.508   9.014  18.977  0.00  0.00    +0.000 C 
ATOM     27  O   UNL     1       1.844   9.532  17.912  0.00  0.00    +0.000 OA
BRANCH  25  28
ATOM     28  C   UNL     1       2.667   6.821  18.608  0.00  0.00    +0.000 A 
ATOM     29  C   UNL     1       3.776   7.162  17.808  0.00  0.00    +0.000 A 
ATOM     30  C   UNL     1       4.429   6.229  17.012  0.00  0.00    +0.000 A 
ATOM     31  C   UNL     1       3.993   4.921  16.951  0.00  0.00    +0.000 A 
ATOM     32  C   UNL     1       2.874   4.552  17.704  0.00  0.00    +0.000 A 
ATOM     33  C   UNL     1       2.224   5.489  18.511  0.00  0.00    +0.000 A 
ENDBRANCH  25  28
ENDBRANCH  23  26
ENDBRANCH   1  23
TORSDOF 6
ENDMDL
MODEL 8
REMARK VINA RESULT:      -8.2      0.580      1.089
REMARK  Name = 
REMARK  7 active torsions:
REMARK  status: ('A' for Active; 'I' for Inactive)
REMARK    1  A    between atoms: C_1  and  N_2
REMARK    2  A    between atoms: N_2  and  C_28
REMARK    3  A    between atoms: C_3  and  C_5
REMARK    4  A    between atoms: C_5  and  N_6
REMARK    5  A    between atoms: C_7  and  C_8
REMARK    6  A    between atoms: N_12  and  C_13
REMARK    7  A    between atoms: C_13  and  C_14
REMARK                            x       y       z     vdW  Elec       q    Type
REMARK                         _______ _______ _______ _____ _____    ______ ____
ROOT
ATOM      1  N   UNL     1      -0.781  11.322  19.627  0.00  0.00    +0.000 N 
ATOM      2  C   UNL     1      -1.559  12.143  20.438  0.00  0.00    +0.000 A 
ATOM      3  N   UNL     1      -2.658  12.472  19.777  0.00  0.00    +0.000 NA
ATOM      4  C   UNL     1      -2.726  11.667  18.681  0.00  0.00    +0.000 A 
ATOM      5  C   UNL     1      -3.775  11.501  17.766  0.00  0.00    +0.000 A 
ATOM      6  C   UNL     1      -3.629  10.563  16.739  0.00  0.00    +0.000 A 
ATOM      7  C   UNL     1      -2.448   9.834  16.609  0.00  0.00    +0.000 A 
ATOM      8  C   UNL     1      -1.379  10.012  17.500  0.00  0.00    +0.000 A 
ATOM      9  C   UNL     1      -1.560  10.932  18.544  0.00  0.00    +0.000 A 
ENDROOT
BRANCH   2  10
ATOM     10  C   UNL     1      -1.281  12.740  21.810  0.00  0.00    +0.000 C 
ATOM     11  C   UNL     1      -1.590  11.942  23.076  0.00  0.00    +0.000 C 
ATOM     12  C   UNL     1      -3.029  12.266  23.406  0.00  0.00    +0.000 C 
ATOM     13  O   UNL     1      -3.748  11.634  24.164  0.00  0.00    +0.000 OA
ATOM     14  N   UNL     1      -3.309  13.480  22.815  0.00  0.00    +0.000 N 
ATOM     15  C   UNL     1      -2.197  13.975  22.032  0.00  0.00    +0.000 C 
BRANCH  14  16
ATOM     16  C   UNL     1      -4.535  14.237  23.000  0.00  0.00    +0.000 C 
BRANCH  16  17
ATOM     17  C   UNL     1      -5.620  13.826  22.036  0.00  0.00    +0.000 A 
ATOM     18  C   UNL     1      -6.604  12.907  22.429  0.00  0.00    +0.000 A 
ATOM     19  C   UNL     1      -7.562  12.460  21.519  0.00  0.00    +0.000 A 
ATOM     20  C   UNL     1      -7.559  12.937  20.211  0.00  0.00    +0.000 A 
ATOM     21  C   UNL     1      -6.615  13.885  19.819  0.00  0.00    +0.000 A 
ATOM     22  C   UNL     1      -5.653  14.332  20.728  0.00  0.00    +0.000 A 
ENDBRANCH  16  17
ENDBRANCH  14  16
ENDBRANCH   2  10
BRANCH   1  23
ATOM     23  C   UNL     1       0.589  10.855  19.817  0.00  0.00    +0.000 C 
BRANCH  23  26
ATOM     24  C   UNL     1       1.999   9.277  17.825  0.00  0.00    +0.000 C 
ATOM     25  N   UNL     1       1.600   8.689  19.108  0.00  0.00    +0.000 N 
ATOM     26  C   UNL     1       0.661   9.341  19.929  0.00  0.00    +0.000 C 
ATOM     27  O   UNL     1      -0.044   8.786  20.772  0.00  0.00    +0.000 OA
BRANCH  25  28
ATOM     28  C   UNL     1       2.084   7.348  19.387  0.00  0.00    +0.000 A 
ATOM     29  C   UNL     1       1.770   6.653  20.573  0.00  0.00    +0.000 A 
ATOM     30  C   UNL     1       2.228   5.365  20.820  0.00  0.00    +0.000 A 
ATOM     31  C   UNL     1       3.042   4.717  19.913  0.00  0.00    +0.000 A 
ATOM     32  C   UNL     1       3.403   5.387  18.740  0.00  0.00    +0.000 A 
ATOM     33  C   UNL     1       2.935   6.679  18.489  0.00  0.00    +0.000 A 
ENDBRANCH  25  28
ENDBRANCH  23  26
ENDBRANCH   1  23
TORSDOF 6
ENDMDL
MODEL 9
REMARK VINA RESULT:      -8.0      1.099      1.535
REMARK  Name = 
REMARK  7 active torsions:
REMARK  status: ('A' for Active; 'I' for Inactive)
REMARK    1  A    between atoms: C_1  and  N_2
REMARK    2  A    between atoms: N_2  and  C_28
REMARK    3  A    between atoms: C_3  and  C_5
REMARK    4  A    between atoms: C_5  and  N_6
REMARK    5  A    between atoms: C_7  and  C_8
REMARK    6  A    between atoms: N_12  and  C_13
REMARK    7  A    between atoms: C_13  and  C_14
REMARK                            x       y       z     vdW  Elec       q    Type
REMARK                         _______ _______ _______ _____ _____    ______ ____
ROOT
ATOM      1  N   UNL     1      -0.548  11.102  19.639  0.00  0.00    +0.000 N 
ATOM      2  C   UNL     1      -1.296  11.810  20.574  0.00  0.00    +0.000 A 
ATOM      3  N   UNL     1      -2.428  12.198  20.006  0.00  0.00    +0.000 NA
ATOM      4  C   UNL     1      -2.538  11.526  18.827  0.00  0.00    +0.000 A 
ATOM      5  C   UNL     1      -3.625  11.454  17.946  0.00  0.00    +0.000 A 
ATOM      6  C   UNL     1      -3.518  10.645  16.810  0.00  0.00    +0.000 A 
ATOM      7  C   UNL     1      -2.336   9.954  16.543  0.00  0.00    +0.000 A 
ATOM      8  C   UNL     1      -1.230  10.042  17.401  0.00  0.00    +0.000 A 
ATOM      9  C   UNL     1      -1.372  10.830  18.554  0.00  0.00    +0.000 A 
ENDROOT
BRANCH   2  10
ATOM     10  C   UNL     1      -0.963  12.246  21.995  0.00  0.00    +0.000 C 
ATOM     11  C   UNL     1      -1.601  11.540  23.189  0.00  0.00    +0.000 C 
ATOM     12  C   UNL     1      -2.895  12.278  23.440  0.00  0.00    +0.000 C 
ATOM     13  O   UNL     1      -3.831  11.873  24.111  0.00  0.00    +0.000 OA
ATOM     14  N   UNL     1      -2.743  13.539  22.903  0.00  0.00    +0.000 N 
ATOM     15  C   UNL     1      -1.474  13.694  22.224  0.00  0.00    +0.000 C 
BRANCH  14  16
ATOM     16  C   UNL     1      -3.692  14.630  23.049  0.00  0.00    +0.000 C 
BRANCH  16  17
ATOM     17  C   UNL     1      -4.610  14.761  21.858  0.00  0.00    +0.000 A 
ATOM     18  C   UNL     1      -5.309  13.644  21.379  0.00  0.00    +0.000 A 
ATOM     19  C   UNL     1      -6.096  13.738  20.231  0.00  0.00    +0.000 A 
ATOM     20  C   UNL     1      -6.207  14.953  19.558  0.00  0.00    +0.000 A 
ATOM     21  C   UNL     1      -5.554  16.081  20.050  0.00  0.00    +0.000 A 
ATOM     22  C   UNL     1      -4.764  15.989  21.198  0.00  0.00    +0.000 A 
ENDBRANCH  16  17
ENDBRANCH  14  16
ENDBRANCH   2  10
BRANCH   1  23
ATOM     23  C   UNL     1       0.834  10.636  19.712  0.00  0.00    +0.000 C 
BRANCH  23  26
ATOM     24  C   UNL     1       1.933   8.795  17.751  0.00  0.00    +0.000 C 
ATOM     25  N   UNL     1       1.722   8.378  19.141  0.00  0.00    +0.000 N 
ATOM     26  C   UNL     1       0.915   9.146  20.001  0.00  0.00    +0.000 C 
ATOM     27  O   UNL     1       0.338   8.715  20.999  0.00  0.00    +0.000 OA
BRANCH  25  28
ATOM     28  C   UNL     1       2.236   7.072  19.513  0.00  0.00    +0.000 A 
ATOM     29  C   UNL     1       3.378   6.500  18.917  0.00  0.00    +0.000 A 
ATOM     30  C   UNL     1       3.867   5.256  19.295  0.00  0.00    +0.000 A 
ATOM     31  C   UNL     1       3.228   4.508  20.263  0.00  0.00    +0.000 A 
ATOM     32  C   UNL     1       2.071   5.027  20.854  0.00  0.00    +0.000 A 
ATOM     33  C   UNL     1       1.586   6.282  20.479  0.00  0.00    +0.000 A 
ENDBRANCH  25  28
ENDBRANCH  23  26
ENDBRANCH   1  23
TORSDOF 6
ENDMDL
