MODEL 1
REMARK VINA RESULT:      -9.3      0.000      0.000
REMARK  Name = 
REMARK  8 active torsions:
REMARK  status: ('A' for Active; 'I' for Inactive)
REMARK    1  A    between atoms: C_1  and  C_2
REMARK    2  A    between atoms: C_4  and  C_5
REMARK    3  A    between atoms: N_6  and  C_7
REMARK    4  A    between atoms: C_7  and  C_8
REMARK    5  A    between atoms: C_12  and  C_13
REMARK    6  A    between atoms: C_16  and  C_17
REMARK    7  A    between atoms: C_20  and  S_21
REMARK    8  A    between atoms: S_21  and  N_22
REMARK                            x       y       z     vdW  Elec       q    Type
REMARK                         _______ _______ _______ _____ _____    ______ ____
ROOT
ATOM      1  C   UNL     1       7.422   6.674  17.621  0.00  0.00    +0.000 A 
ATOM      2  N   UNL     1       8.077   6.425  18.767  0.00  0.00    +0.000 NA
ATOM      3  O   UNL     1       8.626   7.651  19.111  0.00  0.00    +0.000 OA
ATOM      4  C   UNL     1       8.256   8.542  18.143  0.00  0.00    +0.000 A 
ATOM      5  N   UNL     1       7.524   7.990  17.200  0.00  0.00    +0.000 NA
ENDROOT
BRANCH   4   6
ATOM      6  C   UNL     1       8.692   9.925  18.345  0.00  0.00    +0.000 A 
ATOM      7  C   UNL     1       8.265  10.951  17.484  0.00  0.00    +0.000 A 
ATOM      8  C   UNL     1       8.651  12.282  17.701  0.00  0.00    +0.000 A 
ATOM      9  C   UNL     1       9.470  12.594  18.791  0.00  0.00    +0.000 A 
ATOM     10  C   UNL     1       9.915  11.588  19.634  0.00  0.00    +0.000 A 
ATOM     11  F   UNL     1      10.704  11.858  20.683  0.00  0.00    +0.000 F 
ATOM     12  C   UNL     1       9.530  10.267  19.419  0.00  0.00    +0.000 A 
BRANCH   9  13
ATOM     13  S   UNL     1       9.940  14.250  19.131  0.00  0.00    +0.000 S 
ATOM     14  O   UNL     1       9.282  14.692  20.336  0.00  0.00    +0.000 OA
ATOM     15  O   UNL     1      11.368  14.374  18.944  0.00  0.00    +0.000 OA
BRANCH  13  16
ATOM     16  N   UNL     1       9.260  15.104  17.855  0.00  0.00    +0.000 NA
ATOM     17  H   UNL     1       9.761  15.982  17.716  0.00  0.00    +0.000 HD
ATOM     18  H   UNL     1       9.207  14.514  17.024  0.00  0.00    +0.000 HD
ENDBRANCH  13  16
ENDBRANCH   9  13
ENDBRANCH   4   6
BRANCH   1  23
ATOM     19  C   UNL     1       4.508   4.428  16.686  0.00  0.00    +0.000 A 
ATOM     20  C   UNL     1       5.014   3.831  15.523  0.00  0.00    +0.000 A 
ATOM     21  C   UNL     1       6.299   4.136  15.069  0.00  0.00    +0.000 A 
ATOM     22  C   UNL     1       7.097   5.048  15.764  0.00  0.00    +0.000 A 
ATOM     23  C   UNL     1       6.621   5.664  16.927  0.00  0.00    +0.000 A 
ATOM     24  C   UNL     1       5.330   5.330  17.386  0.00  0.00    +0.000 A 
BRANCH  19  25
ATOM     25  C   UNL     1       3.086   4.166  17.123  0.00  0.00    +0.000 C 
BRANCH  25  31
ATOM     26  C   UNL     1       2.296   2.948  21.748  0.00  0.00    +0.000 C 
ATOM     27  C   UNL     1       2.447   3.823  20.561  0.00  0.00    +0.000 A 
ATOM     28  C   UNL     1       2.207   5.210  20.478  0.00  0.00    +0.000 A 
ATOM     29  C   UNL     1       2.458   5.550  19.166  0.00  0.00    +0.000 A 
ATOM     30  C   UNL     1       2.334   6.859  18.484  0.00  0.00    +0.000 C 
ATOM     31  N   UNL     1       2.855   4.386  18.549  0.00  0.00    +0.000 N 
ATOM     32  N   UNL     1       2.832   3.319  19.383  0.00  0.00    +0.000 NA
ENDBRANCH  25  31
ENDBRANCH  19  25
ENDBRANCH   1  23
TORSDOF 6
ENDMDL
MODEL 2
REMARK VINA RESULT:      -9.2      1.139      1.572
REMARK  Name = 
REMARK  8 active torsions:
REMARK  status: ('A' for Active; 'I' for Inactive)
REMARK    1  A    between atoms: C_1  and  C_2
REMARK    2  A    between atoms: C_4  and  C_5
REMARK    3  A    between atoms: N_6  and  C_7
REMARK    4  A    between atoms: C_7  and  C_8
REMARK    5  A    between atoms: C_12  and  C_13
REMARK    6  A    between atoms: C_16  and  C_17
REMARK    7  A    between atoms: C_20  and  S_21
REMARK    8  A    between atoms: S_21  and  N_22
REMARK                            x       y       z     vdW  Elec       q    Type
REMARK                         _______ _______ _______ _____ _____    ______ ____
ROOT
ATOM      1  C   UNL     1       7.408   6.769  17.723  0.00  0.00    +0.000 A 
ATOM      2  N   UNL     1       8.148   6.528  18.818  0.00  0.00    +0.000 NA
ATOM      3  O   UNL     1       8.715   7.757  19.115  0.00  0.00    +0.000 OA
ATOM      4  C   UNL     1       8.270   8.643  18.174  0.00  0.00    +0.000 A 
ATOM      5  N   UNL     1       7.472   8.083  17.291  0.00  0.00    +0.000 NA
ENDROOT
BRANCH   4   6
ATOM      6  C   UNL     1       8.713  10.028  18.337  0.00  0.00    +0.000 A 
ATOM      7  C   UNL     1       9.749  10.356  19.230  0.00  0.00    +0.000 A 
ATOM      8  C   UNL     1      10.200  11.679  19.357  0.00  0.00    +0.000 A 
ATOM      9  C   UNL     1       9.613  12.685  18.584  0.00  0.00    +0.000 A 
ATOM     10  C   UNL     1       8.576  12.378  17.717  0.00  0.00    +0.000 A 
ATOM     11  F   UNL     1       7.993  13.323  16.968  0.00  0.00    +0.000 F 
ATOM     12  C   UNL     1       8.130  11.065  17.590  0.00  0.00    +0.000 A 
BRANCH   9  13
ATOM     13  S   UNL     1      10.175  14.345  18.673  0.00  0.00    +0.000 S 
ATOM     14  O   UNL     1      10.790  14.706  17.419  0.00  0.00    +0.000 OA
ATOM     15  O   UNL     1       9.143  15.152  19.284  0.00  0.00    +0.000 OA
BRANCH  13  16
ATOM     16  N   UNL     1      11.400  14.267  19.818  0.00  0.00    +0.000 NA
ATOM     17  H   UNL     1      11.004  14.090  20.742  0.00  0.00    +0.000 HD
ATOM     18  H   UNL     1      12.110  13.592  19.531  0.00  0.00    +0.000 HD
ENDBRANCH  13  16
ENDBRANCH   9  13
ENDBRANCH   4   6
BRANCH   1  23
ATOM     19  C   UNL     1       4.387   4.619  16.912  0.00  0.00    +0.000 A 
ATOM     20  C   UNL     1       4.875   3.904  15.810  0.00  0.00    +0.000 A 
ATOM     21  C   UNL     1       6.182   4.102  15.357  0.00  0.00    +0.000 A 
ATOM     22  C   UNL     1       7.020   5.022  15.994  0.00  0.00    +0.000 A 
ATOM     23  C   UNL     1       6.562   5.752  17.096  0.00  0.00    +0.000 A 
ATOM     24  C   UNL     1       5.248   5.527  17.555  0.00  0.00    +0.000 A 
BRANCH  19  25
ATOM     25  C   UNL     1       2.945   4.470  17.342  0.00  0.00    +0.000 C 
BRANCH  25  31
ATOM     26  C   UNL     1       2.156   2.642  21.761  0.00  0.00    +0.000 C 
ATOM     27  C   UNL     1       2.345   3.670  20.709  0.00  0.00    +0.000 A 
ATOM     28  C   UNL     1       2.196   5.066  20.834  0.00  0.00    +0.000 A 
ATOM     29  C   UNL     1       2.447   5.578  19.580  0.00  0.00    +0.000 A 
ATOM     30  C   UNL     1       2.399   6.978  19.098  0.00  0.00    +0.000 C 
ATOM     31  N   UNL     1       2.754   4.493  18.790  0.00  0.00    +0.000 N 
ATOM     32  N   UNL     1       2.674   3.319  19.461  0.00  0.00    +0.000 NA
ENDBRANCH  25  31
ENDBRANCH  19  25
ENDBRANCH   1  23
TORSDOF 6
ENDMDL
MODEL 3
REMARK VINA RESULT:      -9.1      6.008      9.181
REMARK  Name = 
REMARK  8 active torsions:
REMARK  status: ('A' for Active; 'I' for Inactive)
REMARK    1  A    between atoms: C_1  and  C_2
REMARK    2  A    between atoms: C_4  and  C_5
REMARK    3  A    between atoms: N_6  and  C_7
REMARK    4  A    between atoms: C_7  and  C_8
REMARK    5  A    between atoms: C_12  and  C_13
REMARK    6  A    between atoms: C_16  and  C_17
REMARK    7  A    between atoms: C_20  and  S_21
REMARK    8  A    between atoms: S_21  and  N_22
REMARK                            x       y       z     vdW  Elec       q    Type
REMARK                         _______ _______ _______ _____ _____    ______ ____
ROOT
ATOM      1  C   UNL     1       1.109   8.327  20.512  0.00  0.00    +0.000 A 
ATOM      2  N   UNL     1       1.122   7.158  21.173  0.00  0.00    +0.000 NA
ATOM      3  O   UNL     1       2.067   6.402  20.498  0.00  0.00    +0.000 OA
ATOM      4  C   UNL     1       2.551   7.178  19.481  0.00  0.00    +0.000 A 
ATOM      5  N   UNL     1       1.987   8.366  19.441  0.00  0.00    +0.000 NA
ENDROOT
BRANCH   4   6
ATOM      6  C   UNL     1       3.611   6.582  18.668  0.00  0.00    +0.000 A 
ATOM      7  C   UNL     1       4.451   5.584  19.193  0.00  0.00    +0.000 A 
ATOM      8  C   UNL     1       5.442   4.985  18.401  0.00  0.00    +0.000 A 
ATOM      9  C   UNL     1       5.596   5.384  17.070  0.00  0.00    +0.000 A 
ATOM     10  C   UNL     1       4.789   6.382  16.547  0.00  0.00    +0.000 A 
ATOM     11  F   UNL     1       4.917   6.787  15.276  0.00  0.00    +0.000 F 
ATOM     12  C   UNL     1       3.804   6.975  17.334  0.00  0.00    +0.000 A 
BRANCH   9  13
ATOM     13  S   UNL     1       6.788   4.631  16.026  0.00  0.00    +0.000 S 
ATOM     14  O   UNL     1       6.214   3.455  15.420  0.00  0.00    +0.000 OA
ATOM     15  O   UNL     1       7.437   5.661  15.246  0.00  0.00    +0.000 OA
BRANCH  13  16
ATOM     16  N   UNL     1       7.959   4.106  17.110  0.00  0.00    +0.000 NA
ATOM     17  H   UNL     1       8.204   4.861  17.752  0.00  0.00    +0.000 HD
ATOM     18  H   UNL     1       7.654   3.248  17.570  0.00  0.00    +0.000 HD
ENDBRANCH  13  16
ENDBRANCH   9  13
ENDBRANCH   4   6
BRANCH   1  23
ATOM     19  C   UNL     1      -0.981  11.492  20.358  0.00  0.00    +0.000 A 
ATOM     20  C   UNL     1      -1.386  11.591  21.696  0.00  0.00    +0.000 A 
ATOM     21  C   UNL     1      -0.959  10.653  22.639  0.00  0.00    +0.000 A 
ATOM     22  C   UNL     1      -0.126   9.597  22.260  0.00  0.00    +0.000 A 
ATOM     23  C   UNL     1       0.295   9.469  20.932  0.00  0.00    +0.000 A 
ATOM     24  C   UNL     1      -0.126  10.435  19.994  0.00  0.00    +0.000 A 
BRANCH  19  25
ATOM     25  C   UNL     1      -1.517  12.454  19.323  0.00  0.00    +0.000 C 
BRANCH  25  31
ATOM     26  C   UNL     1      -3.159  10.490  15.208  0.00  0.00    +0.000 C 
ATOM     27  C   UNL     1      -3.204  11.059  16.576  0.00  0.00    +0.000 A 
ATOM     28  C   UNL     1      -4.346  11.359  17.345  0.00  0.00    +0.000 A 
ATOM     29  C   UNL     1      -3.868  11.894  18.522  0.00  0.00    +0.000 A 
ATOM     30  C   UNL     1      -4.605  12.428  19.691  0.00  0.00    +0.000 C 
ATOM     31  N   UNL     1      -2.497  11.862  18.416  0.00  0.00    +0.000 N 
ATOM     32  N   UNL     1      -2.077  11.375  17.223  0.00  0.00    +0.000 NA
ENDBRANCH  25  31
ENDBRANCH  19  25
ENDBRANCH   1  23
TORSDOF 6
ENDMDL
MODEL 4
REMARK VINA RESULT:      -9.1      6.020      9.184
REMARK  Name = 
REMARK  8 active torsions:
REMARK  status: ('A' for Active; 'I' for Inactive)
REMARK    1  A    between atoms: C_1  and  C_2
REMARK    2  A    between atoms: C_4  and  C_5
REMARK    3  A    between atoms: N_6  and  C_7
REMARK    4  A    between atoms: C_7  and  C_8
REMARK    5  A    between atoms: C_12  and  C_13
REMARK    6  A    between atoms: C_16  and  C_17
REMARK    7  A    between atoms: C_20  and  S_21
REMARK    8  A    between atoms: S_21  and  N_22
REMARK                            x       y       z     vdW  Elec       q    Type
REMARK                         _______ _______ _______ _____ _____    ______ ____
ROOT
ATOM      1  C   UNL     1       1.073   8.386  20.527  0.00  0.00    +0.000 A 
ATOM      2  N   UNL     1       1.102   7.222  21.196  0.00  0.00    +0.000 NA
ATOM      3  O   UNL     1       2.009   6.451  20.487  0.00  0.00    +0.000 OA
ATOM      4  C   UNL     1       2.457   7.213  19.445  0.00  0.00    +0.000 A 
ATOM      5  N   UNL     1       1.905   8.408  19.419  0.00  0.00    +0.000 NA
ENDROOT
BRANCH   4   6
ATOM      6  C   UNL     1       3.474   6.599  18.592  0.00  0.00    +0.000 A 
ATOM      7  C   UNL     1       3.859   7.197  17.379  0.00  0.00    +0.000 A 
ATOM      8  C   UNL     1       4.864   6.628  16.581  0.00  0.00    +0.000 A 
ATOM      9  C   UNL     1       5.492   5.451  16.997  0.00  0.00    +0.000 A 
ATOM     10  C   UNL     1       5.105   4.840  18.179  0.00  0.00    +0.000 A 
ATOM     11  F   UNL     1       5.687   3.709  18.601  0.00  0.00    +0.000 F 
ATOM     12  C   UNL     1       4.110   5.406  18.973  0.00  0.00    +0.000 A 
BRANCH   9  13
ATOM     13  S   UNL     1       6.785   4.728  16.058  0.00  0.00    +0.000 S 
ATOM     14  O   UNL     1       6.970   5.485  14.844  0.00  0.00    +0.000 OA
ATOM     15  O   UNL     1       7.882   4.414  16.944  0.00  0.00    +0.000 OA
BRANCH  13  16
ATOM     16  N   UNL     1       6.142   3.240  15.617  0.00  0.00    +0.000 NA
ATOM     17  H   UNL     1       5.529   3.349  14.809  0.00  0.00    +0.000 HD
ATOM     18  H   UNL     1       6.890   2.557  15.487  0.00  0.00    +0.000 HD
ENDBRANCH  13  16
ENDBRANCH   9  13
ENDBRANCH   4   6
BRANCH   1  23
ATOM     19  C   UNL     1      -1.006  11.561  20.436  0.00  0.00    +0.000 A 
ATOM     20  C   UNL     1      -1.332  11.687  21.793  0.00  0.00    +0.000 A 
ATOM     21  C   UNL     1      -0.855  10.764  22.727  0.00  0.00    +0.000 A 
ATOM     22  C   UNL     1      -0.051   9.697  22.320  0.00  0.00    +0.000 A 
ATOM     23  C   UNL     1       0.291   9.541  20.972  0.00  0.00    +0.000 A 
ATOM     24  C   UNL     1      -0.180  10.492  20.043  0.00  0.00    +0.000 A 
BRANCH  19  25
ATOM     25  C   UNL     1      -1.598  12.507  19.416  0.00  0.00    +0.000 C 
BRANCH  25  31
ATOM     26  C   UNL     1      -3.010  10.514  15.230  0.00  0.00    +0.000 C 
ATOM     27  C   UNL     1      -3.124  11.053  16.606  0.00  0.00    +0.000 A 
ATOM     28  C   UNL     1      -4.301  11.260  17.354  0.00  0.00    +0.000 A 
ATOM     29  C   UNL     1      -3.887  11.803  18.551  0.00  0.00    +0.000 A 
ATOM     30  C   UNL     1      -4.684  12.263  19.712  0.00  0.00    +0.000 C 
ATOM     31  N   UNL     1      -2.514  11.866  18.476  0.00  0.00    +0.000 N 
ATOM     32  N   UNL     1      -2.036  11.433  17.285  0.00  0.00    +0.000 NA
ENDBRANCH  25  31
ENDBRANCH  19  25
ENDBRANCH   1  23
TORSDOF 6
ENDMDL
MODEL 5
REMARK VINA RESULT:      -9.0      6.209      9.302
REMARK  Name = 
REMARK  8 active torsions:
REMARK  status: ('A' for Active; 'I' for Inactive)
REMARK    1  A    between atoms: C_1  and  C_2
REMARK    2  A    between atoms: C_4  and  C_5
REMARK    3  A    between atoms: N_6  and  C_7
REMARK    4  A    between atoms: C_7  and  C_8
REMARK    5  A    between atoms: C_12  and  C_13
REMARK    6  A    between atoms: C_16  and  C_17
REMARK    7  A    between atoms: C_20  and  S_21
REMARK    8  A    between atoms: S_21  and  N_22
REMARK                            x       y       z     vdW  Elec       q    Type
REMARK                         _______ _______ _______ _____ _____    ______ ____
ROOT
ATOM      1  C   UNL     1       1.052   8.120  20.755  0.00  0.00    +0.000 A 
ATOM      2  N   UNL     1       0.930   6.864  21.213  0.00  0.00    +0.000 NA
ATOM      3  O   UNL     1       1.866   6.149  20.483  0.00  0.00    +0.000 OA
ATOM      4  C   UNL     1       2.480   7.034  19.642  0.00  0.00    +0.000 A 
ATOM      5  N   UNL     1       2.010   8.256  19.764  0.00  0.00    +0.000 NA
ENDROOT
BRANCH   4   6
ATOM      6  C   UNL     1       3.553   6.488  18.809  0.00  0.00    +0.000 A 
ATOM      7  C   UNL     1       4.375   5.448  19.278  0.00  0.00    +0.000 A 
ATOM      8  C   UNL     1       5.377   4.898  18.465  0.00  0.00    +0.000 A 
ATOM      9  C   UNL     1       5.561   5.389  17.169  0.00  0.00    +0.000 A 
ATOM     10  C   UNL     1       4.773   6.430  16.703  0.00  0.00    +0.000 A 
ATOM     11  F   UNL     1       4.930   6.923  15.468  0.00  0.00    +0.000 F 
ATOM     12  C   UNL     1       3.776   6.974  17.510  0.00  0.00    +0.000 A 
BRANCH   9  13
ATOM     13  S   UNL     1       6.769   4.703  16.098  0.00  0.00    +0.000 S 
ATOM     14  O   UNL     1       6.203   3.570  15.408  0.00  0.00    +0.000 OA
ATOM     15  O   UNL     1       7.432   5.779  15.397  0.00  0.00    +0.000 OA
BRANCH  13  16
ATOM     16  N   UNL     1       7.921   4.106  17.165  0.00  0.00    +0.000 NA
ATOM     17  H   UNL     1       7.760   4.481  18.100  0.00  0.00    +0.000 HD
ATOM     18  H   UNL     1       7.947   3.086  17.122  0.00  0.00    +0.000 HD
ENDBRANCH  13  16
ENDBRANCH   9  13
ENDBRANCH   4   6
BRANCH   1  23
ATOM     19  C   UNL     1      -0.858  11.393  20.978  0.00  0.00    +0.000 A 
ATOM     20  C   UNL     1      -1.281  11.347  22.313  0.00  0.00    +0.000 A 
ATOM     21  C   UNL     1      -0.922  10.276  23.136  0.00  0.00    +0.000 A 
ATOM     22  C   UNL     1      -0.142   9.231  22.636  0.00  0.00    +0.000 A 
ATOM     23  C   UNL     1       0.295   9.245  21.307  0.00  0.00    +0.000 A 
ATOM     24  C   UNL     1      -0.056  10.343  20.494  0.00  0.00    +0.000 A 
BRANCH  19  25
ATOM     25  C   UNL     1      -1.323  12.506  20.067  0.00  0.00    +0.000 C 
BRANCH  25  31
ATOM     26  C   UNL     1      -6.169  12.541  20.006  0.00  0.00    +0.000 C 
ATOM     27  C   UNL     1      -4.788  12.269  19.541  0.00  0.00    +0.000 A 
ATOM     28  C   UNL     1      -4.391  11.510  18.421  0.00  0.00    +0.000 A 
ATOM     29  C   UNL     1      -3.013  11.526  18.434  0.00  0.00    +0.000 A 
ATOM     30  C   UNL     1      -2.047  10.866  17.525  0.00  0.00    +0.000 C 
ATOM     31  N   UNL     1      -2.660  12.300  19.516  0.00  0.00    +0.000 N 
ATOM     32  N   UNL     1      -3.733  12.741  20.215  0.00  0.00    +0.000 NA
ENDBRANCH  25  31
ENDBRANCH  19  25
ENDBRANCH   1  23
TORSDOF 6
ENDMDL
MODEL 6
REMARK VINA RESULT:      -9.0      1.015      1.988
REMARK  Name = 
REMARK  8 active torsions:
REMARK  status: ('A' for Active; 'I' for Inactive)
REMARK    1  A    between atoms: C_1  and  C_2
REMARK    2  A    between atoms: C_4  and  C_5
REMARK    3  A    between atoms: N_6  and  C_7
REMARK    4  A    between atoms: C_7  and  C_8
REMARK    5  A    between atoms: C_12  and  C_13
REMARK    6  A    between atoms: C_16  and  C_17
REMARK    7  A    between atoms: C_20  and  S_21
REMARK    8  A    between atoms: S_21  and  N_22
REMARK                            x       y       z     vdW  Elec       q    Type
REMARK                         _______ _______ _______ _____ _____    ______ ____
ROOT
ATOM      1  C   UNL     1       7.421   7.064  17.761  0.00  0.00    +0.000 A 
ATOM      2  N   UNL     1       8.248   6.834  18.795  0.00  0.00    +0.000 NA
ATOM      3  O   UNL     1       8.833   8.066  19.035  0.00  0.00    +0.000 OA
ATOM      4  C   UNL     1       8.311   8.944  18.127  0.00  0.00    +0.000 A 
ATOM      5  N   UNL     1       7.446   8.375  17.315  0.00  0.00    +0.000 NA
ENDROOT
BRANCH   4   6
ATOM      6  C   UNL     1       8.762  10.331  18.243  0.00  0.00    +0.000 A 
ATOM      7  C   UNL     1       8.184  11.347  17.462  0.00  0.00    +0.000 A 
ATOM      8  C   UNL     1       8.590  12.684  17.602  0.00  0.00    +0.000 A 
ATOM      9  C   UNL     1       9.580  13.010  18.533  0.00  0.00    +0.000 A 
ATOM     10  C   UNL     1      10.173  12.014  19.293  0.00  0.00    +0.000 A 
ATOM     11  F   UNL     1      11.128  12.298  20.189  0.00  0.00    +0.000 F 
ATOM     12  C   UNL     1       9.769  10.688  19.155  0.00  0.00    +0.000 A 
BRANCH   9  13
ATOM     13  S   UNL     1      10.087  14.672  18.778  0.00  0.00    +0.000 S 
ATOM     14  O   UNL     1       9.584  15.139  20.047  0.00  0.00    +0.000 OA
ATOM     15  O   UNL     1      11.480  14.791  18.411  0.00  0.00    +0.000 OA
BRANCH  13  16
ATOM     16  N   UNL     1       9.250  15.500  17.581  0.00  0.00    +0.000 NA
ATOM     17  H   UNL     1       8.247  15.469  17.769  0.00  0.00    +0.000 HD
ATOM     18  H   UNL     1       9.627  16.442  17.473  0.00  0.00    +0.000 HD
ENDBRANCH  13  16
ENDBRANCH   9  13
ENDBRANCH   4   6
BRANCH   1  23
ATOM     19  C   UNL     1       4.340   4.922  17.191  0.00  0.00    +0.000 A 
ATOM     20  C   UNL     1       4.753   4.178  16.078  0.00  0.00    +0.000 A 
ATOM     21  C   UNL     1       6.031   4.354  15.540  0.00  0.00    +0.000 A 
ATOM     22  C   UNL     1       6.913   5.280  16.102  0.00  0.00    +0.000 A 
ATOM     23  C   UNL     1       6.530   6.040  17.212  0.00  0.00    +0.000 A 
ATOM     24  C   UNL     1       5.245   5.838  17.757  0.00  0.00    +0.000 A 
BRANCH  19  25
ATOM     25  C   UNL     1       2.927   4.796  17.713  0.00  0.00    +0.000 C 
BRANCH  25  31
ATOM     26  C   UNL     1       1.837   9.479  18.322  0.00  0.00    +0.000 C 
ATOM     27  C   UNL     1       2.037   8.054  18.678  0.00  0.00    +0.000 A 
ATOM     28  C   UNL     1       1.976   7.472  19.960  0.00  0.00    +0.000 A 
ATOM     29  C   UNL     1       2.263   6.137  19.773  0.00  0.00    +0.000 A 
ATOM     30  C   UNL     1       2.384   5.042  20.765  0.00  0.00    +0.000 C 
ATOM     31  N   UNL     1       2.448   5.982  18.418  0.00  0.00    +0.000 N 
ATOM     32  N   UNL     1       2.335   7.149  17.739  0.00  0.00    +0.000 NA
ENDBRANCH  25  31
ENDBRANCH  19  25
ENDBRANCH   1  23
TORSDOF 6
ENDMDL
MODEL 7
REMARK VINA RESULT:      -8.9      1.239      2.117
REMARK  Name = 
REMARK  8 active torsions:
REMARK  status: ('A' for Active; 'I' for Inactive)
REMARK    1  A    between atoms: C_1  and  C_2
REMARK    2  A    between atoms: C_4  and  C_5
REMARK    3  A    between atoms: N_6  and  C_7
REMARK    4  A    between atoms: C_7  and  C_8
REMARK    5  A    between atoms: C_12  and  C_13
REMARK    6  A    between atoms: C_16  and  C_17
REMARK    7  A    between atoms: C_20  and  S_21
REMARK    8  A    between atoms: S_21  and  N_22
REMARK                            x       y       z     vdW  Elec       q    Type
REMARK                         _______ _______ _______ _____ _____    ______ ____
ROOT
ATOM      1  C   UNL     1       7.419   6.594  17.501  0.00  0.00    +0.000 A 
ATOM      2  N   UNL     1       8.054   6.318  18.651  0.00  0.00    +0.000 NA
ATOM      3  O   UNL     1       8.588   7.536  19.040  0.00  0.00    +0.000 OA
ATOM      4  C   UNL     1       8.230   8.453  18.091  0.00  0.00    +0.000 A 
ATOM      5  N   UNL     1       7.519   7.922  17.119  0.00  0.00    +0.000 NA
ENDROOT
BRANCH   4   6
ATOM      6  C   UNL     1       8.653   9.831  18.340  0.00  0.00    +0.000 A 
ATOM      7  C   UNL     1       9.605  10.129  19.332  0.00  0.00    +0.000 A 
ATOM      8  C   UNL     1      10.039  11.446  19.543  0.00  0.00    +0.000 A 
ATOM      9  C   UNL     1       9.519  12.478  18.756  0.00  0.00    +0.000 A 
ATOM     10  C   UNL     1       8.564  12.201  17.791  0.00  0.00    +0.000 A 
ATOM     11  F   UNL     1       8.046  13.171  17.025  0.00  0.00    +0.000 F 
ATOM     12  C   UNL     1       8.135  10.893  17.579  0.00  0.00    +0.000 A 
BRANCH   9  13
ATOM     13  S   UNL     1      10.066  14.134  18.950  0.00  0.00    +0.000 S 
ATOM     14  O   UNL     1      10.776  14.542  17.763  0.00  0.00    +0.000 OA
ATOM     15  O   UNL     1       8.985  14.916  19.508  0.00  0.00    +0.000 OA
BRANCH  13  16
ATOM     16  N   UNL     1      11.197  14.014  20.185  0.00  0.00    +0.000 NA
ATOM     17  H   UNL     1      11.287  13.042  20.484  0.00  0.00    +0.000 HD
ATOM     18  H   UNL     1      12.076  14.448  19.902  0.00  0.00    +0.000 HD
ENDBRANCH  13  16
ENDBRANCH   9  13
ENDBRANCH   4   6
BRANCH   1  23
ATOM     19  C   UNL     1       4.636   4.180  16.585  0.00  0.00    +0.000 A 
ATOM     20  C   UNL     1       5.049   3.796  15.302  0.00  0.00    +0.000 A 
ATOM     21  C   UNL     1       6.234   4.297  14.757  0.00  0.00    +0.000 A 
ATOM     22  C   UNL     1       7.022   5.195  15.481  0.00  0.00    +0.000 A 
ATOM     23  C   UNL     1       6.637   5.600  16.764  0.00  0.00    +0.000 A 
ATOM     24  C   UNL     1       5.450   5.070  17.311  0.00  0.00    +0.000 A 
BRANCH  19  25
ATOM     25  C   UNL     1       3.310   3.708  17.135  0.00  0.00    +0.000 C 
BRANCH  25  31
ATOM     26  C   UNL     1       2.056   7.503  19.877  0.00  0.00    +0.000 C 
ATOM     27  C   UNL     1       2.402   6.101  19.541  0.00  0.00    +0.000 A 
ATOM     28  C   UNL     1       2.598   5.026  20.432  0.00  0.00    +0.000 A 
ATOM     29  C   UNL     1       2.929   3.948  19.641  0.00  0.00    +0.000 A 
ATOM     30  C   UNL     1       3.285   2.562  20.025  0.00  0.00    +0.000 C 
ATOM     31  N   UNL     1       2.888   4.409  18.345  0.00  0.00    +0.000 N 
ATOM     32  N   UNL     1       2.589   5.728  18.270  0.00  0.00    +0.000 NA
ENDBRANCH  25  31
ENDBRANCH  19  25
ENDBRANCH   1  23
TORSDOF 6
ENDMDL
MODEL 8
REMARK VINA RESULT:      -8.9      6.335      9.385
REMARK  Name = 
REMARK  8 active torsions:
REMARK  status: ('A' for Active; 'I' for Inactive)
REMARK    1  A    between atoms: C_1  and  C_2
REMARK    2  A    between atoms: C_4  and  C_5
REMARK    3  A    between atoms: N_6  and  C_7
REMARK    4  A    between atoms: C_7  and  C_8
REMARK    5  A    between atoms: C_12  and  C_13
REMARK    6  A    between atoms: C_16  and  C_17
REMARK    7  A    between atoms: C_20  and  S_21
REMARK    8  A    between atoms: S_21  and  N_22
REMARK                            x       y       z     vdW  Elec       q    Type
REMARK                         _______ _______ _______ _____ _____    ______ ____
ROOT
ATOM      1  C   UNL     1       1.088   8.135  20.751  0.00  0.00    +0.000 A 
ATOM      2  N   UNL     1       0.970   6.875  21.199  0.00  0.00    +0.000 NA
ATOM      3  O   UNL     1       1.904   6.168  20.459  0.00  0.00    +0.000 OA
ATOM      4  C   UNL     1       2.514   7.060  19.623  0.00  0.00    +0.000 A 
ATOM      5  N   UNL     1       2.042   8.281  19.757  0.00  0.00    +0.000 NA
ENDROOT
BRANCH   4   6
ATOM      6  C   UNL     1       3.585   6.523  18.783  0.00  0.00    +0.000 A 
ATOM      7  C   UNL     1       4.445   5.519  19.260  0.00  0.00    +0.000 A 
ATOM      8  C   UNL     1       5.446   4.976  18.440  0.00  0.00    +0.000 A 
ATOM      9  C   UNL     1       5.590   5.439  17.129  0.00  0.00    +0.000 A 
ATOM     10  C   UNL     1       4.763   6.445  16.654  0.00  0.00    +0.000 A 
ATOM     11  F   UNL     1       4.882   6.911  15.403  0.00  0.00    +0.000 F 
ATOM     12  C   UNL     1       3.768   6.982  17.468  0.00  0.00    +0.000 A 
BRANCH   9  13
ATOM     13  S   UNL     1       6.796   4.759  16.051  0.00  0.00    +0.000 S 
ATOM     14  O   UNL     1       6.217   3.651  15.331  0.00  0.00    +0.000 OA
ATOM     15  O   UNL     1       7.480   5.841  15.380  0.00  0.00    +0.000 OA
BRANCH  13  16
ATOM     16  N   UNL     1       7.930   4.120  17.112  0.00  0.00    +0.000 NA
ATOM     17  H   UNL     1       8.748   3.795  16.595  0.00  0.00    +0.000 HD
ATOM     18  H   UNL     1       8.141   4.791  17.850  0.00  0.00    +0.000 HD
ENDBRANCH  13  16
ENDBRANCH   9  13
ENDBRANCH   4   6
BRANCH   1  23
ATOM     19  C   UNL     1      -0.881  11.371  20.996  0.00  0.00    +0.000 A 
ATOM     20  C   UNL     1      -1.246  11.341  22.349  0.00  0.00    +0.000 A 
ATOM     21  C   UNL     1      -0.830  10.294  23.174  0.00  0.00    +0.000 A 
ATOM     22  C   UNL     1      -0.049   9.255  22.660  0.00  0.00    +0.000 A 
ATOM     23  C   UNL     1       0.331   9.255  21.313  0.00  0.00    +0.000 A 
ATOM     24  C   UNL     1      -0.078  10.329  20.497  0.00  0.00    +0.000 A 
BRANCH  19  25
ATOM     25  C   UNL     1      -1.408  12.457  20.086  0.00  0.00    +0.000 C 
BRANCH  25  31
ATOM     26  C   UNL     1      -5.279  11.251  17.431  0.00  0.00    +0.000 C 
ATOM     27  C   UNL     1      -4.507  11.840  18.551  0.00  0.00    +0.000 A 
ATOM     28  C   UNL     1      -4.991  12.650  19.598  0.00  0.00    +0.000 A 
ATOM     29  C   UNL     1      -3.887  12.967  20.360  0.00  0.00    +0.000 A 
ATOM     30  C   UNL     1      -3.778  13.823  21.565  0.00  0.00    +0.000 C 
ATOM     31  N   UNL     1      -2.826  12.323  19.765  0.00  0.00    +0.000 N 
ATOM     32  N   UNL     1      -3.186  11.649  18.647  0.00  0.00    +0.000 NA
ENDBRANCH  25  31
ENDBRANCH  19  25
ENDBRANCH   1  23
TORSDOF 6
ENDMDL
MODEL 9
REMARK VINA RESULT:      -8.9      6.268      9.315
REMARK  Name = 
REMARK  8 active torsions:
REMARK  status: ('A' for Active; 'I' for Inactive)
REMARK    1  A    between atoms: C_1  and  C_2
REMARK    2  A    between atoms: C_4  and  C_5
REMARK    3  A    between atoms: N_6  and  C_7
REMARK    4  A    between atoms: C_7  and  C_8
REMARK    5  A    between atoms: C_12  and  C_13
REMARK    6  A    between atoms: C_16  and  C_17
REMARK    7  A    between atoms: C_20  and  S_21
REMARK    8  A    between atoms: S_21  and  N_22
REMARK                            x       y       z     vdW  Elec       q    Type
REMARK                         _______ _______ _______ _____ _____    ______ ____
ROOT
ATOM      1  C   UNL     1       1.116   8.165  20.624  0.00  0.00    +0.000 A 
ATOM      2  N   UNL     1       1.101   6.949  21.194  0.00  0.00    +0.000 NA
ATOM      3  O   UNL     1       1.979   6.206  20.421  0.00  0.00    +0.000 OA
ATOM      4  C   UNL     1       2.455   7.036  19.444  0.00  0.00    +0.000 A 
ATOM      5  N   UNL     1       1.948   8.247  19.520  0.00  0.00    +0.000 NA
ENDROOT
BRANCH   4   6
ATOM      6  C   UNL     1       3.450   6.457  18.540  0.00  0.00    +0.000 A 
ATOM      7  C   UNL     1       4.004   7.215  17.493  0.00  0.00    +0.000 A 
ATOM      8  C   UNL     1       4.986   6.672  16.651  0.00  0.00    +0.000 A 
ATOM      9  C   UNL     1       5.422   5.360  16.857  0.00  0.00    +0.000 A 
ATOM     10  C   UNL     1       4.868   4.595  17.871  0.00  0.00    +0.000 A 
ATOM     11  F   UNL     1       5.264   3.334  18.087  0.00  0.00    +0.000 F 
ATOM     12  C   UNL     1       3.894   5.135  18.708  0.00  0.00    +0.000 A 
BRANCH   9  13
ATOM     13  S   UNL     1       6.682   4.653  15.860  0.00  0.00    +0.000 S 
ATOM     14  O   UNL     1       6.188   3.438  15.262  0.00  0.00    +0.000 OA
ATOM     15  O   UNL     1       7.298   5.702  15.078  0.00  0.00    +0.000 OA
BRANCH  13  16
ATOM     16  N   UNL     1       7.847   4.211  16.986  0.00  0.00    +0.000 NA
ATOM     17  H   UNL     1       8.756   4.587  16.715  0.00  0.00    +0.000 HD
ATOM     18  H   UNL     1       7.549   4.474  17.926  0.00  0.00    +0.000 HD
ENDBRANCH  13  16
ENDBRANCH   9  13
ENDBRANCH   4   6
BRANCH   1  23
ATOM     19  C   UNL     1      -0.790  11.442  20.810  0.00  0.00    +0.000 A 
ATOM     20  C   UNL     1      -1.165  11.439  22.160  0.00  0.00    +0.000 A 
ATOM     21  C   UNL     1      -0.776  10.395  23.003  0.00  0.00    +0.000 A 
ATOM     22  C   UNL     1      -0.012   9.334  22.509  0.00  0.00    +0.000 A 
ATOM     23  C   UNL     1       0.377   9.307  21.165  0.00  0.00    +0.000 A 
ATOM     24  C   UNL     1      -0.004  10.378  20.331  0.00  0.00    +0.000 A 
BRANCH  19  25
ATOM     25  C   UNL     1      -1.289  12.525  19.881  0.00  0.00    +0.000 C 
BRANCH  25  31
ATOM     26  C   UNL     1      -6.133  12.473  20.044  0.00  0.00    +0.000 C 
ATOM     27  C   UNL     1      -4.770  12.233  19.511  0.00  0.00    +0.000 A 
ATOM     28  C   UNL     1      -4.413  11.499  18.362  0.00  0.00    +0.000 A 
ATOM     29  C   UNL     1      -3.036  11.541  18.311  0.00  0.00    +0.000 A 
ATOM     30  C   UNL     1      -2.101  10.913  17.348  0.00  0.00    +0.000 C 
ATOM     31  N   UNL     1      -2.646  12.303  19.389  0.00  0.00    +0.000 N 
ATOM     32  N   UNL     1      -3.693  12.714  20.144  0.00  0.00    +0.000 NA
ENDBRANCH  25  31
ENDBRANCH  19  25
ENDBRANCH   1  23
TORSDOF 6
ENDMDL
