MODEL 1
REMARK VINA RESULT:      -8.1      0.000      0.000
REMARK  Name = 
REMARK  5 active torsions:
REMARK  status: ('A' for Active; 'I' for Inactive)
REMARK    1  A    between atoms: C_1  and  C_2
REMARK    2  A    between atoms: C_2  and  C_3
REMARK    3  A    between atoms: C_7  and  C_8
REMARK    4  A    between atoms: N_10  and  C_11
REMARK    5  A    between atoms: C_11  and  C_12
REMARK                            x       y       z     vdW  Elec       q    Type
REMARK                         _______ _______ _______ _____ _____    ______ ____
ROOT
ATOM      1  C   UNL     1       7.642   4.870  17.636  0.00  0.00    +0.000 C 
ATOM      2  C   UNL     1       7.010   5.983  16.781  0.00  0.00    +0.000 C 
ATOM      3  C   UNL     1       7.484   7.324  17.361  0.00  0.00    +0.000 C 
ATOM      4  C   UNL     1       5.442   5.973  16.706  0.00  0.00    +0.000 C 
ATOM      5  C   UNL     1       5.026   4.616  16.163  0.00  0.00    +0.000 C 
ATOM      6  C   UNL     1       3.711   3.811  16.225  0.00  0.00    +0.000 C 
ATOM      7  C   UNL     1       4.706   3.633  17.310  0.00  0.00    +0.000 C 
ATOM      8  C   UNL     1       5.759   4.388  14.830  0.00  0.00    +0.000 A 
ATOM      9  C   UNL     1       5.159   3.768  13.711  0.00  0.00    +0.000 A 
ATOM     10  C   UNL     1       5.826   3.607  12.494  0.00  0.00    +0.000 A 
ATOM     11  C   UNL     1       7.113   4.095  12.343  0.00  0.00    +0.000 A 
ATOM     12  C   UNL     1       7.697   4.808  13.386  0.00  0.00    +0.000 A 
ATOM     13  C   UNL     1       7.013   4.985  14.597  0.00  0.00    +0.000 A 
ATOM     14  O   UNL     1       7.606   5.869  15.470  0.00  0.00    +0.000 OA
ENDROOT
BRANCH   7  15
ATOM     15  C   UNL     1       4.298   4.061  18.700  0.00  0.00    +0.000 C 
ATOM     16  O   UNL     1       5.001   3.752  19.646  0.00  0.00    +0.000 OA
ATOM     17  N   UNL     1       3.126   4.771  18.841  0.00  0.00    +0.000 N 
ATOM     18  H   UNL     1       2.485   4.904  18.075  0.00  0.00    +0.000 HD
BRANCH  17  19
ATOM     19  C   UNL     1       2.649   5.138  20.155  0.00  0.00    +0.000 C 
BRANCH  19  20
ATOM     20  C   UNL     1       2.067   6.525  20.163  0.00  0.00    +0.000 A 
ATOM     21  N   UNL     1       1.391   7.079  21.156  0.00  0.00    +0.000 NA
ATOM     22  C   UNL     1       1.110   8.399  20.841  0.00  0.00    +0.000 A 
ATOM     23  C   UNL     1       1.550   8.830  19.609  0.00  0.00    +0.000 A 
ATOM     24  S   UNL     1       2.347   7.550  18.802  0.00  0.00    +0.000 S 
ENDBRANCH  19  20
ENDBRANCH  17  19
ENDBRANCH   7  15
TORSDOF 3
ENDMDL
MODEL 2
REMARK VINA RESULT:      -7.2      3.067      7.091
REMARK  Name = 
REMARK  5 active torsions:
REMARK  status: ('A' for Active; 'I' for Inactive)
REMARK    1  A    between atoms: C_1  and  C_2
REMARK    2  A    between atoms: C_2  and  C_3
REMARK    3  A    between atoms: C_7  and  C_8
REMARK    4  A    between atoms: N_10  and  C_11
REMARK    5  A    between atoms: C_11  and  C_12
REMARK                            x       y       z     vdW  Elec       q    Type
REMARK                         _______ _______ _______ _____ _____    ______ ____
ROOT
ATOM      1  C   UNL     1       5.189   3.598  19.215  0.00  0.00    +0.000 C 
ATOM      2  C   UNL     1       3.832   3.577  18.489  0.00  0.00    +0.000 C 
ATOM      3  C   UNL     1       3.502   2.107  18.189  0.00  0.00    +0.000 C 
ATOM      4  C   UNL     1       3.762   4.407  17.159  0.00  0.00    +0.000 C 
ATOM      5  C   UNL     1       4.132   5.841  17.503  0.00  0.00    +0.000 C 
ATOM      6  C   UNL     1       4.649   7.029  16.666  0.00  0.00    +0.000 C 
ATOM      7  C   UNL     1       5.635   6.099  17.265  0.00  0.00    +0.000 C 
ATOM      8  C   UNL     1       3.206   6.316  18.636  0.00  0.00    +0.000 A 
ATOM      9  C   UNL     1       2.672   7.622  18.707  0.00  0.00    +0.000 A 
ATOM     10  C   UNL     1       1.799   8.024  19.720  0.00  0.00    +0.000 A 
ATOM     11  C   UNL     1       1.399   7.115  20.686  0.00  0.00    +0.000 A 
ATOM     12  C   UNL     1       1.817   5.791  20.589  0.00  0.00    +0.000 A 
ATOM     13  C   UNL     1       2.676   5.390  19.556  0.00  0.00    +0.000 A 
ATOM     14  O   UNL     1       2.854   4.029  19.451  0.00  0.00    +0.000 OA
ENDROOT
BRANCH   7  15
ATOM     15  C   UNL     1       6.490   5.293  16.316  0.00  0.00    +0.000 C 
ATOM     16  O   UNL     1       7.360   4.570  16.771  0.00  0.00    +0.000 OA
ATOM     17  N   UNL     1       6.263   5.428  14.965  0.00  0.00    +0.000 N 
ATOM     18  H   UNL     1       5.638   6.127  14.595  0.00  0.00    +0.000 HD
BRANCH  17  19
ATOM     19  C   UNL     1       7.103   4.741  14.011  0.00  0.00    +0.000 C 
BRANCH  19  20
ATOM     20  C   UNL     1       6.290   3.897  13.067  0.00  0.00    +0.000 A 
ATOM     21  N   UNL     1       4.969   3.858  13.001  0.00  0.00    +0.000 NA
ATOM     22  C   UNL     1       4.585   3.050  11.943  0.00  0.00    +0.000 A 
ATOM     23  C   UNL     1       5.609   2.465  11.230  0.00  0.00    +0.000 A 
ATOM     24  S   UNL     1       7.114   2.933  11.897  0.00  0.00    +0.000 S 
ENDBRANCH  19  20
ENDBRANCH  17  19
ENDBRANCH   7  15
TORSDOF 3
ENDMDL
MODEL 3
REMARK VINA RESULT:      -7.1      2.340      3.930
REMARK  Name = 
REMARK  5 active torsions:
REMARK  status: ('A' for Active; 'I' for Inactive)
REMARK    1  A    between atoms: C_1  and  C_2
REMARK    2  A    between atoms: C_2  and  C_3
REMARK    3  A    between atoms: C_7  and  C_8
REMARK    4  A    between atoms: N_10  and  C_11
REMARK    5  A    between atoms: C_11  and  C_12
REMARK                            x       y       z     vdW  Elec       q    Type
REMARK                         _______ _______ _______ _____ _____    ______ ____
ROOT
ATOM      1  C   UNL     1       2.477   3.281  18.610  0.00  0.00    +0.000 C 
ATOM      2  C   UNL     1       3.967   3.488  18.941  0.00  0.00    +0.000 C 
ATOM      3  C   UNL     1       4.312   2.531  20.092  0.00  0.00    +0.000 C 
ATOM      4  C   UNL     1       4.375   4.950  19.340  0.00  0.00    +0.000 C 
ATOM      5  C   UNL     1       3.980   5.858  18.187  0.00  0.00    +0.000 C 
ATOM      6  C   UNL     1       3.713   7.374  18.079  0.00  0.00    +0.000 C 
ATOM      7  C   UNL     1       2.584   6.476  18.420  0.00  0.00    +0.000 C 
ATOM      8  C   UNL     1       4.626   5.312  16.903  0.00  0.00    +0.000 A 
ATOM      9  C   UNL     1       5.169   6.138  15.894  0.00  0.00    +0.000 A 
ATOM     10  C   UNL     1       5.790   5.624  14.753  0.00  0.00    +0.000 A 
ATOM     11  C   UNL     1       5.921   4.254  14.598  0.00  0.00    +0.000 A 
ATOM     12  C   UNL     1       5.497   3.410  15.620  0.00  0.00    +0.000 A 
ATOM     13  C   UNL     1       4.894   3.935  16.772  0.00  0.00    +0.000 A 
ATOM     14  O   UNL     1       4.703   3.026  17.788  0.00  0.00    +0.000 OA
ENDROOT
BRANCH   7  15
ATOM     15  C   UNL     1       1.952   6.646  19.781  0.00  0.00    +0.000 C 
ATOM     16  O   UNL     1       1.468   5.674  20.335  0.00  0.00    +0.000 OA
ATOM     17  N   UNL     1       1.932   7.906  20.334  0.00  0.00    +0.000 N 
ATOM     18  H   UNL     1       2.211   8.723  19.813  0.00  0.00    +0.000 HD
BRANCH  17  19
ATOM     19  C   UNL     1       1.272   8.140  21.598  0.00  0.00    +0.000 C 
BRANCH  19  20
ATOM     20  C   UNL     1       0.694   9.527  21.672  0.00  0.00    +0.000 A 
ATOM     21  N   UNL     1       0.901  10.502  20.802  0.00  0.00    +0.000 NA
ATOM     22  C   UNL     1       0.122  11.596  21.143  0.00  0.00    +0.000 A 
ATOM     23  C   UNL     1      -0.650  11.455  22.276  0.00  0.00    +0.000 A 
ATOM     24  S   UNL     1      -0.402   9.903  22.951  0.00  0.00    +0.000 S 
ENDBRANCH  19  20
ENDBRANCH  17  19
ENDBRANCH   7  15
TORSDOF 3
ENDMDL
MODEL 4
REMARK VINA RESULT:      -7.0      1.700      2.318
REMARK  Name = 
REMARK  5 active torsions:
REMARK  status: ('A' for Active; 'I' for Inactive)
REMARK    1  A    between atoms: C_1  and  C_2
REMARK    2  A    between atoms: C_2  and  C_3
REMARK    3  A    between atoms: C_7  and  C_8
REMARK    4  A    between atoms: N_10  and  C_11
REMARK    5  A    between atoms: C_11  and  C_12
REMARK                            x       y       z     vdW  Elec       q    Type
REMARK                         _______ _______ _______ _____ _____    ______ ____
ROOT
ATOM      1  C   UNL     1       7.757   4.839  17.492  0.00  0.00    +0.000 C 
ATOM      2  C   UNL     1       7.121   5.970  16.663  0.00  0.00    +0.000 C 
ATOM      3  C   UNL     1       7.605   7.299  17.263  0.00  0.00    +0.000 C 
ATOM      4  C   UNL     1       5.553   5.968  16.603  0.00  0.00    +0.000 C 
ATOM      5  C   UNL     1       5.126   4.622  16.038  0.00  0.00    +0.000 C 
ATOM      6  C   UNL     1       3.809   3.820  16.098  0.00  0.00    +0.000 C 
ATOM      7  C   UNL     1       4.813   3.619  17.169  0.00  0.00    +0.000 C 
ATOM      8  C   UNL     1       5.846   4.416  14.695  0.00  0.00    +0.000 A 
ATOM      9  C   UNL     1       5.235   3.819  13.570  0.00  0.00    +0.000 A 
ATOM     10  C   UNL     1       5.890   3.678  12.344  0.00  0.00    +0.000 A 
ATOM     11  C   UNL     1       7.177   4.165  12.191  0.00  0.00    +0.000 A 
ATOM     12  C   UNL     1       7.773   4.856  13.242  0.00  0.00    +0.000 A 
ATOM     13  C   UNL     1       7.101   5.012  14.462  0.00  0.00    +0.000 A 
ATOM     14  O   UNL     1       7.704   5.879  15.345  0.00  0.00    +0.000 OA
ENDROOT
BRANCH   7  15
ATOM     15  C   UNL     1       4.419   4.023  18.571  0.00  0.00    +0.000 C 
ATOM     16  O   UNL     1       5.028   3.552  19.517  0.00  0.00    +0.000 OA
ATOM     17  N   UNL     1       3.366   4.896  18.721  0.00  0.00    +0.000 N 
ATOM     18  H   UNL     1       2.784   5.172  17.945  0.00  0.00    +0.000 HD
BRANCH  17  19
ATOM     19  C   UNL     1       2.897   5.255  20.040  0.00  0.00    +0.000 C 
BRANCH  19  20
ATOM     20  C   UNL     1       2.232   4.091  20.725  0.00  0.00    +0.000 A 
ATOM     21  N   UNL     1       2.449   3.693  21.967  0.00  0.00    +0.000 NA
ATOM     22  C   UNL     1       1.579   2.661  22.278  0.00  0.00    +0.000 A 
ATOM     23  C   UNL     1       0.728   2.267  21.269  0.00  0.00    +0.000 A 
ATOM     24  S   UNL     1       1.014   3.213  19.873  0.00  0.00    +0.000 S 
ENDBRANCH  19  20
ENDBRANCH  17  19
ENDBRANCH   7  15
TORSDOF 3
ENDMDL
MODEL 5
REMARK VINA RESULT:      -7.0      2.845      7.422
REMARK  Name = 
REMARK  5 active torsions:
REMARK  status: ('A' for Active; 'I' for Inactive)
REMARK    1  A    between atoms: C_1  and  C_2
REMARK    2  A    between atoms: C_2  and  C_3
REMARK    3  A    between atoms: C_7  and  C_8
REMARK    4  A    between atoms: N_10  and  C_11
REMARK    5  A    between atoms: C_11  and  C_12
REMARK                            x       y       z     vdW  Elec       q    Type
REMARK                         _______ _______ _______ _____ _____    ______ ____
ROOT
ATOM      1  C   UNL     1       3.424   4.314  20.612  0.00  0.00    +0.000 C 
ATOM      2  C   UNL     1       2.112   4.464  19.820  0.00  0.00    +0.000 C 
ATOM      3  C   UNL     1       1.414   3.095  19.837  0.00  0.00    +0.000 C 
ATOM      4  C   UNL     1       2.267   4.950  18.336  0.00  0.00    +0.000 C 
ATOM      5  C   UNL     1       2.993   6.285  18.374  0.00  0.00    +0.000 C 
ATOM      6  C   UNL     1       3.805   7.077  17.328  0.00  0.00    +0.000 C 
ATOM      7  C   UNL     1       4.514   6.096  18.184  0.00  0.00    +0.000 C 
ATOM      8  C   UNL     1       2.215   7.228  19.307  0.00  0.00    +0.000 A 
ATOM      9  C   UNL     1       2.037   8.605  19.047  0.00  0.00    +0.000 A 
ATOM     10  C   UNL     1       1.290   9.439  19.884  0.00  0.00    +0.000 A 
ATOM     11  C   UNL     1       0.664   8.911  21.001  0.00  0.00    +0.000 A 
ATOM     12  C   UNL     1       0.725   7.539  21.231  0.00  0.00    +0.000 A 
ATOM     13  C   UNL     1       1.458   6.706  20.374  0.00  0.00    +0.000 A 
ATOM     14  O   UNL     1       1.278   5.359  20.589  0.00  0.00    +0.000 OA
ENDROOT
BRANCH   7  15
ATOM     15  C   UNL     1       5.137   4.903  17.500  0.00  0.00    +0.000 C 
ATOM     16  O   UNL     1       5.682   4.048  18.177  0.00  0.00    +0.000 OA
ATOM     17  N   UNL     1       5.082   4.842  16.126  0.00  0.00    +0.000 N 
ATOM     18  H   UNL     1       4.752   5.615  15.569  0.00  0.00    +0.000 HD
BRANCH  17  19
ATOM     19  C   UNL     1       5.730   3.763  15.415  0.00  0.00    +0.000 C 
BRANCH  19  20
ATOM     20  C   UNL     1       6.466   4.265  14.203  0.00  0.00    +0.000 A 
ATOM     21  N   UNL     1       7.414   5.187  14.196  0.00  0.00    +0.000 NA
ATOM     22  C   UNL     1       7.929   5.308  12.915  0.00  0.00    +0.000 A 
ATOM     23  C   UNL     1       7.356   4.499  11.958  0.00  0.00    +0.000 A 
ATOM     24  S   UNL     1       6.127   3.547  12.670  0.00  0.00    +0.000 S 
ENDBRANCH  19  20
ENDBRANCH  17  19
ENDBRANCH   7  15
TORSDOF 3
ENDMDL
MODEL 6
REMARK VINA RESULT:      -6.9      2.936      7.096
REMARK  Name = 
REMARK  5 active torsions:
REMARK  status: ('A' for Active; 'I' for Inactive)
REMARK    1  A    between atoms: C_1  and  C_2
REMARK    2  A    between atoms: C_2  and  C_3
REMARK    3  A    between atoms: C_7  and  C_8
REMARK    4  A    between atoms: N_10  and  C_11
REMARK    5  A    between atoms: C_11  and  C_12
REMARK                            x       y       z     vdW  Elec       q    Type
REMARK                         _______ _______ _______ _____ _____    ______ ____
ROOT
ATOM      1  C   UNL     1       5.599   4.141  19.050  0.00  0.00    +0.000 C 
ATOM      2  C   UNL     1       4.213   3.935  18.412  0.00  0.00    +0.000 C 
ATOM      3  C   UNL     1       3.932   2.425  18.419  0.00  0.00    +0.000 C 
ATOM      4  C   UNL     1       4.051   4.487  16.951  0.00  0.00    +0.000 C 
ATOM      5  C   UNL     1       4.375   5.972  16.993  0.00  0.00    +0.000 C 
ATOM      6  C   UNL     1       4.805   6.990  15.917  0.00  0.00    +0.000 C 
ATOM      7  C   UNL     1       5.855   6.228  16.634  0.00  0.00    +0.000 C 
ATOM      8  C   UNL     1       3.481   6.628  18.059  0.00  0.00    +0.000 A 
ATOM      9  C   UNL     1       2.897   7.905  17.902  0.00  0.00    +0.000 A 
ATOM     10  C   UNL     1       2.052   8.469  18.862  0.00  0.00    +0.000 A 
ATOM     11  C   UNL     1       1.733   7.753  20.004  0.00  0.00    +0.000 A 
ATOM     12  C   UNL     1       2.201   6.450  20.144  0.00  0.00    +0.000 A 
ATOM     13  C   UNL     1       3.030   5.883  19.166  0.00  0.00    +0.000 A 
ATOM     14  O   UNL     1       3.260   4.534  19.317  0.00  0.00    +0.000 OA
ENDROOT
BRANCH   7  15
ATOM     15  C   UNL     1       6.701   5.280  15.816  0.00  0.00    +0.000 C 
ATOM     16  O   UNL     1       7.538   4.596  16.380  0.00  0.00    +0.000 OA
ATOM     17  N   UNL     1       6.503   5.245  14.455  0.00  0.00    +0.000 N 
ATOM     18  H   UNL     1       5.907   5.907  13.983  0.00  0.00    +0.000 HD
BRANCH  17  19
ATOM     19  C   UNL     1       7.337   4.414  13.616  0.00  0.00    +0.000 C 
BRANCH  19  20
ATOM     20  C   UNL     1       6.516   3.604  12.650  0.00  0.00    +0.000 A 
ATOM     21  N   UNL     1       6.953   2.595  11.915  0.00  0.00    +0.000 NA
ATOM     22  C   UNL     1       5.888   2.029  11.231  0.00  0.00    +0.000 A 
ATOM     23  C   UNL     1       4.661   2.622  11.432  0.00  0.00    +0.000 A 
ATOM     24  S   UNL     1       4.828   3.938  12.513  0.00  0.00    +0.000 S 
ENDBRANCH  19  20
ENDBRANCH  17  19
ENDBRANCH   7  15
TORSDOF 3
ENDMDL
MODEL 7
REMARK VINA RESULT:      -6.5      6.086      9.300
REMARK  Name = 
REMARK  5 active torsions:
REMARK  status: ('A' for Active; 'I' for Inactive)
REMARK    1  A    between atoms: C_1  and  C_2
REMARK    2  A    between atoms: C_2  and  C_3
REMARK    3  A    between atoms: C_7  and  C_8
REMARK    4  A    between atoms: N_10  and  C_11
REMARK    5  A    between atoms: C_11  and  C_12
REMARK                            x       y       z     vdW  Elec       q    Type
REMARK                         _______ _______ _______ _____ _____    ______ ____
ROOT
ATOM      1  C   UNL     1       0.465  12.512  19.197  0.00  0.00    +0.000 C 
ATOM      2  C   UNL     1      -0.464  11.359  18.773  0.00  0.00    +0.000 C 
ATOM      3  C   UNL     1      -1.503  11.948  17.807  0.00  0.00    +0.000 C 
ATOM      4  C   UNL     1      -1.202  10.618  19.943  0.00  0.00    +0.000 C 
ATOM      5  C   UNL     1      -0.134  10.088  20.885  0.00  0.00    +0.000 C 
ATOM      6  C   UNL     1      -0.150   9.659  22.367  0.00  0.00    +0.000 C 
ATOM      7  C   UNL     1       0.128  11.078  22.041  0.00  0.00    +0.000 C 
ATOM      8  C   UNL     1       0.847   9.232  20.066  0.00  0.00    +0.000 A 
ATOM      9  C   UNL     1       1.419   8.033  20.546  0.00  0.00    +0.000 A 
ATOM     10  C   UNL     1       2.275   7.245  19.772  0.00  0.00    +0.000 A 
ATOM     11  C   UNL     1       2.563   7.616  18.469  0.00  0.00    +0.000 A 
ATOM     12  C   UNL     1       1.933   8.731  17.923  0.00  0.00    +0.000 A 
ATOM     13  C   UNL     1       1.058   9.504  18.700  0.00  0.00    +0.000 A 
ATOM     14  O   UNL     1       0.350  10.452  17.997  0.00  0.00    +0.000 OA
ENDROOT
BRANCH   7  15
ATOM     15  C   UNL     1      -0.873  12.105  22.516  0.00  0.00    +0.000 C 
ATOM     16  O   UNL     1      -0.592  13.288  22.435  0.00  0.00    +0.000 OA
ATOM     17  N   UNL     1      -2.062  11.655  23.044  0.00  0.00    +0.000 N 
ATOM     18  H   UNL     1      -2.229  10.678  23.231  0.00  0.00    +0.000 HD
BRANCH  17  19
ATOM     19  C   UNL     1      -3.022  12.590  23.584  0.00  0.00    +0.000 C 
BRANCH  19  20
ATOM     20  C   UNL     1      -4.251  12.681  22.720  0.00  0.00    +0.000 A 
ATOM     21  N   UNL     1      -5.498  12.499  23.121  0.00  0.00    +0.000 NA
ATOM     22  C   UNL     1      -6.363  12.768  22.072  0.00  0.00    +0.000 A 
ATOM     23  C   UNL     1      -5.770  13.128  20.882  0.00  0.00    +0.000 A 
ATOM     24  S   UNL     1      -4.069  13.134  21.065  0.00  0.00    +0.000 S 
ENDBRANCH  19  20
ENDBRANCH  17  19
ENDBRANCH   7  15
TORSDOF 3
ENDMDL
MODEL 8
REMARK VINA RESULT:      -6.5      3.690      5.964
REMARK  Name = 
REMARK  5 active torsions:
REMARK  status: ('A' for Active; 'I' for Inactive)
REMARK    1  A    between atoms: C_1  and  C_2
REMARK    2  A    between atoms: C_2  and  C_3
REMARK    3  A    between atoms: C_7  and  C_8
REMARK    4  A    between atoms: N_10  and  C_11
REMARK    5  A    between atoms: C_11  and  C_12
REMARK                            x       y       z     vdW  Elec       q    Type
REMARK                         _______ _______ _______ _____ _____    ______ ____
ROOT
ATOM      1  C   UNL     1       6.922   4.067  16.638  0.00  0.00    +0.000 C 
ATOM      2  C   UNL     1       5.809   4.428  15.637  0.00  0.00    +0.000 C 
ATOM      3  C   UNL     1       6.343   4.112  14.232  0.00  0.00    +0.000 C 
ATOM      4  C   UNL     1       5.313   5.917  15.682  0.00  0.00    +0.000 C 
ATOM      5  C   UNL     1       4.831   6.187  17.098  0.00  0.00    +0.000 C 
ATOM      6  C   UNL     1       4.623   7.479  17.915  0.00  0.00    +0.000 C 
ATOM      7  C   UNL     1       5.949   6.819  17.955  0.00  0.00    +0.000 C 
ATOM      8  C   UNL     1       3.781   5.123  17.459  0.00  0.00    +0.000 A 
ATOM      9  C   UNL     1       2.617   5.403  18.209  0.00  0.00    +0.000 A 
ATOM     10  C   UNL     1       1.652   4.433  18.491  0.00  0.00    +0.000 A 
ATOM     11  C   UNL     1       1.803   3.147  17.999  0.00  0.00    +0.000 A 
ATOM     12  C   UNL     1       2.880   2.859  17.166  0.00  0.00    +0.000 A 
ATOM     13  C   UNL     1       3.833   3.845  16.869  0.00  0.00    +0.000 A 
ATOM     14  O   UNL     1       4.729   3.500  15.883  0.00  0.00    +0.000 OA
ENDROOT
BRANCH   7  15
ATOM     15  C   UNL     1       7.120   7.584  17.384  0.00  0.00    +0.000 C 
ATOM     16  O   UNL     1       7.822   7.051  16.541  0.00  0.00    +0.000 OA
ATOM     17  N   UNL     1       7.358   8.854  17.859  0.00  0.00    +0.000 N 
ATOM     18  H   UNL     1       6.858   9.233  18.648  0.00  0.00    +0.000 HD
BRANCH  17  19
ATOM     19  C   UNL     1       8.509   9.600  17.404  0.00  0.00    +0.000 C 
BRANCH  19  20
ATOM     20  C   UNL     1       8.997  10.558  18.457  0.00  0.00    +0.000 A 
ATOM     21  N   UNL     1       9.323  10.246  19.700  0.00  0.00    +0.000 NA
ATOM     22  C   UNL     1       9.828  11.367  20.339  0.00  0.00    +0.000 A 
ATOM     23  C   UNL     1       9.859  12.523  19.590  0.00  0.00    +0.000 A 
ATOM     24  S   UNL     1       9.237  12.212  18.027  0.00  0.00    +0.000 S 
ENDBRANCH  19  20
ENDBRANCH  17  19
ENDBRANCH   7  15
TORSDOF 3
ENDMDL
MODEL 9
REMARK VINA RESULT:      -6.4      2.449      4.049
REMARK  Name = 
REMARK  5 active torsions:
REMARK  status: ('A' for Active; 'I' for Inactive)
REMARK    1  A    between atoms: C_1  and  C_2
REMARK    2  A    between atoms: C_2  and  C_3
REMARK    3  A    between atoms: C_7  and  C_8
REMARK    4  A    between atoms: N_10  and  C_11
REMARK    5  A    between atoms: C_11  and  C_12
REMARK                            x       y       z     vdW  Elec       q    Type
REMARK                         _______ _______ _______ _____ _____    ______ ____
ROOT
ATOM      1  C   UNL     1       2.115   3.886  18.324  0.00  0.00    +0.000 C 
ATOM      2  C   UNL     1       3.579   3.853  18.799  0.00  0.00    +0.000 C 
ATOM      3  C   UNL     1       3.632   2.947  20.039  0.00  0.00    +0.000 C 
ATOM      4  C   UNL     1       4.211   5.247  19.146  0.00  0.00    +0.000 C 
ATOM      5  C   UNL     1       4.100   6.114  17.903  0.00  0.00    +0.000 C 
ATOM      6  C   UNL     1       4.129   7.639  17.671  0.00  0.00    +0.000 C 
ATOM      7  C   UNL     1       2.827   6.986  17.945  0.00  0.00    +0.000 C 
ATOM      8  C   UNL     1       4.752   5.358  16.732  0.00  0.00    +0.000 A 
ATOM      9  C   UNL     1       5.531   5.991  15.737  0.00  0.00    +0.000 A 
ATOM     10  C   UNL     1       6.152   5.284  14.705  0.00  0.00    +0.000 A 
ATOM     11  C   UNL     1       6.041   3.904  14.652  0.00  0.00    +0.000 A 
ATOM     12  C   UNL     1       5.374   3.234  15.674  0.00  0.00    +0.000 A 
ATOM     13  C   UNL     1       4.773   3.950  16.718  0.00  0.00    +0.000 A 
ATOM     14  O   UNL     1       4.323   3.175  17.763  0.00  0.00    +0.000 OA
ENDROOT
BRANCH   7  15
ATOM     15  C   UNL     1       2.112   7.375  19.217  0.00  0.00    +0.000 C 
ATOM     16  O   UNL     1       1.935   6.531  20.080  0.00  0.00    +0.000 OA
ATOM     17  N   UNL     1       1.667   8.672  19.340  0.00  0.00    +0.000 N 
ATOM     18  H   UNL     1       1.697   9.323  18.571  0.00  0.00    +0.000 HD
BRANCH  17  19
ATOM     19  C   UNL     1       0.909   9.077  20.502  0.00  0.00    +0.000 C 
BRANCH  19  20
ATOM     20  C   UNL     1       0.697  10.567  20.530  0.00  0.00    +0.000 A 
ATOM     21  N   UNL     1       0.647  11.324  21.613  0.00  0.00    +0.000 NA
ATOM     22  C   UNL     1       0.545  12.655  21.239  0.00  0.00    +0.000 A 
ATOM     23  C   UNL     1       0.495  12.897  19.884  0.00  0.00    +0.000 A 
ATOM     24  S   UNL     1       0.576  11.416  19.032  0.00  0.00    +0.000 S 
ENDBRANCH  19  20
ENDBRANCH  17  19
ENDBRANCH   7  15
TORSDOF 3
ENDMDL
