MODEL 1
REMARK VINA RESULT:      -8.7      0.000      0.000
REMARK  Name = 
REMARK  2 active torsions:
REMARK  status: ('A' for Active; 'I' for Inactive)
REMARK    1  A    between atoms: C_6  and  C_7
REMARK    2  A    between atoms: C_19  and  C_20
REMARK                            x       y       z     vdW  Elec       q    Type
REMARK                         _______ _______ _______ _____ _____    ______ ____
ROOT
ATOM      1  O   UNL     1       2.922   4.113  20.327  0.00  0.00    +0.000 OA
ATOM      2  C   UNL     1       2.970   4.963  19.465  0.00  0.00    +0.000 A 
ATOM      3  C   UNL     1       2.340   6.240  19.627  0.00  0.00    +0.000 A 
ATOM      4  C   UNL     1       1.722   6.428  20.832  0.00  0.00    +0.000 A 
ATOM      5  C   UNL     1       1.497   7.709  21.177  0.00  0.00    +0.000 A 
ATOM      6  C   UNL     1       1.412   8.658  20.173  0.00  0.00    +0.000 A 
ATOM      7  C   UNL     1       1.900   8.399  18.882  0.00  0.00    +0.000 A 
ATOM      8  C   UNL     1       2.527   7.203  18.645  0.00  0.00    +0.000 A 
ATOM      9  N   UNL     1       3.287   6.978  17.484  0.00  0.00    +0.000 NA
ATOM     10  C   UNL     1       3.877   5.834  17.419  0.00  0.00    +0.000 A 
ATOM     11  N   UNL     1       3.695   4.833  18.349  0.00  0.00    +0.000 N 
ATOM     12  C   UNL     1       4.338   3.588  18.244  0.00  0.00    +0.000 C 
ATOM     13  C   UNL     1       4.991   3.726  17.009  0.00  0.00    +0.000 C 
ATOM     14  C   UNL     1       4.687   5.225  16.321  0.00  0.00    +0.000 C 
ATOM     15  C   UNL     1       5.394   4.726  15.321  0.00  0.00    +0.000 C 
ENDROOT
BRANCH  15  16
ATOM     16  C   UNL     1       6.066   4.448  14.189  0.00  0.00    +0.000 A 
ATOM     17  C   UNL     1       5.326   3.800  13.259  0.00  0.00    +0.000 A 
ATOM     18  C   UNL     1       6.071   3.340  12.241  0.00  0.00    +0.000 A 
ATOM     19  C   UNL     1       7.340   3.894  12.018  0.00  0.00    +0.000 A 
ATOM     20  C   UNL     1       7.840   4.956  12.770  0.00  0.00    +0.000 A 
ATOM     21  C   UNL     1       7.243   5.205  13.950  0.00  0.00    +0.000 A 
ENDBRANCH  15  16
BRANCH   6  22
ATOM     22  C   UNL     1       0.701   9.937  20.428  0.00  0.00    +0.000 C 
ATOM     23  F   UNL     1       1.136  10.930  19.619  0.00  0.00    +0.000 F 
ATOM     24  F   UNL     1      -0.634   9.814  20.230  0.00  0.00    +0.000 F 
ATOM     25  F   UNL     1       0.863  10.363  21.709  0.00  0.00    +0.000 F 
ENDBRANCH   6  22
TORSDOF 2
ENDMDL
MODEL 2
REMARK VINA RESULT:      -8.7      0.201      1.003
REMARK  Name = 
REMARK  2 active torsions:
REMARK  status: ('A' for Active; 'I' for Inactive)
REMARK    1  A    between atoms: C_6  and  C_7
REMARK    2  A    between atoms: C_19  and  C_20
REMARK                            x       y       z     vdW  Elec       q    Type
REMARK                         _______ _______ _______ _____ _____    ______ ____
ROOT
ATOM      1  O   UNL     1       2.957   4.039  20.225  0.00  0.00    +0.000 OA
ATOM      2  C   UNL     1       2.998   4.925  19.400  0.00  0.00    +0.000 A 
ATOM      3  C   UNL     1       2.354   6.187  19.615  0.00  0.00    +0.000 A 
ATOM      4  C   UNL     1       1.732   6.317  20.826  0.00  0.00    +0.000 A 
ATOM      5  C   UNL     1       1.492   7.579  21.225  0.00  0.00    +0.000 A 
ATOM      6  C   UNL     1       1.398   8.569  20.262  0.00  0.00    +0.000 A 
ATOM      7  C   UNL     1       1.891   8.371  18.961  0.00  0.00    +0.000 A 
ATOM      8  C   UNL     1       2.531   7.193  18.675  0.00  0.00    +0.000 A 
ATOM      9  N   UNL     1       3.295   7.026  17.507  0.00  0.00    +0.000 NA
ATOM     10  C   UNL     1       3.898   5.892  17.394  0.00  0.00    +0.000 A 
ATOM     11  N   UNL     1       3.725   4.850  18.281  0.00  0.00    +0.000 N 
ATOM     12  C   UNL     1       4.382   3.618  18.124  0.00  0.00    +0.000 C 
ATOM     13  C   UNL     1       5.035   3.816  16.897  0.00  0.00    +0.000 C 
ATOM     14  C   UNL     1       4.716   5.339  16.273  0.00  0.00    +0.000 C 
ATOM     15  C   UNL     1       5.430   4.891  15.254  0.00  0.00    +0.000 C 
ENDROOT
BRANCH  15  16
ATOM     16  C   UNL     1       6.106   4.669  14.113  0.00  0.00    +0.000 A 
ATOM     17  C   UNL     1       7.370   5.153  14.123  0.00  0.00    +0.000 A 
ATOM     18  C   UNL     1       7.942   5.119  12.909  0.00  0.00    +0.000 A 
ATOM     19  C   UNL     1       7.414   4.266  11.928  0.00  0.00    +0.000 A 
ATOM     20  C   UNL     1       6.356   3.394  12.180  0.00  0.00    +0.000 A 
ATOM     21  C   UNL     1       5.606   3.641  13.270  0.00  0.00    +0.000 A 
ENDBRANCH  15  16
BRANCH   6  22
ATOM     22  C   UNL     1       0.674   9.829  20.569  0.00  0.00    +0.000 C 
ATOM     23  F   UNL     1       1.232  10.899  19.959  0.00  0.00    +0.000 F 
ATOM     24  F   UNL     1      -0.621   9.769  20.171  0.00  0.00    +0.000 F 
ATOM     25  F   UNL     1       0.655  10.092  21.903  0.00  0.00    +0.000 F 
ENDBRANCH   6  22
TORSDOF 2
ENDMDL
MODEL 3
REMARK VINA RESULT:      -8.4      3.649      8.317
REMARK  Name = 
REMARK  2 active torsions:
REMARK  status: ('A' for Active; 'I' for Inactive)
REMARK    1  A    between atoms: C_6  and  C_7
REMARK    2  A    between atoms: C_19  and  C_20
REMARK                            x       y       z     vdW  Elec       q    Type
REMARK                         _______ _______ _______ _____ _____    ______ ____
ROOT
ATOM      1  O   UNL     1       2.867   3.195  19.812  0.00  0.00    +0.000 OA
ATOM      2  C   UNL     1       3.107   4.288  19.349  0.00  0.00    +0.000 A 
ATOM      3  C   UNL     1       3.987   4.458  18.230  0.00  0.00    +0.000 A 
ATOM      4  C   UNL     1       4.494   3.296  17.716  0.00  0.00    +0.000 A 
ATOM      5  C   UNL     1       4.962   3.372  16.457  0.00  0.00    +0.000 A 
ATOM      6  C   UNL     1       5.370   4.605  15.978  0.00  0.00    +0.000 A 
ATOM      7  C   UNL     1       4.982   5.798  16.611  0.00  0.00    +0.000 A 
ATOM      8  C   UNL     1       4.132   5.725  17.684  0.00  0.00    +0.000 A 
ATOM      9  N   UNL     1       3.475   6.859  18.191  0.00  0.00    +0.000 NA
ATOM     10  C   UNL     1       2.653   6.639  19.159  0.00  0.00    +0.000 A 
ATOM     11  N   UNL     1       2.500   5.406  19.758  0.00  0.00    +0.000 N 
ATOM     12  C   UNL     1       1.609   5.199  20.825  0.00  0.00    +0.000 C 
ATOM     13  C   UNL     1       1.146   6.506  21.047  0.00  0.00    +0.000 C 
ATOM     14  C   UNL     1       1.854   7.593  19.985  0.00  0.00    +0.000 C 
ATOM     15  C   UNL     1       1.168   8.476  20.693  0.00  0.00    +0.000 C 
ENDROOT
BRANCH  15  16
ATOM     16  C   UNL     1       0.581   9.549  21.252  0.00  0.00    +0.000 A 
ATOM     17  C   UNL     1       0.297  10.538  20.372  0.00  0.00    +0.000 A 
ATOM     18  C   UNL     1      -0.078  11.674  20.982  0.00  0.00    +0.000 A 
ATOM     19  C   UNL     1      -0.531  11.621  22.308  0.00  0.00    +0.000 A 
ATOM     20  C   UNL     1      -0.675  10.423  23.007  0.00  0.00    +0.000 A 
ATOM     21  C   UNL     1      -0.029   9.349  22.519  0.00  0.00    +0.000 A 
ENDBRANCH  15  16
BRANCH   6  22
ATOM     22  C   UNL     1       6.317   4.675  14.836  0.00  0.00    +0.000 C 
ATOM     23  F   UNL     1       7.606   4.689  15.245  0.00  0.00    +0.000 F 
ATOM     24  F   UNL     1       6.171   3.616  14.002  0.00  0.00    +0.000 F 
ATOM     25  F   UNL     1       6.123   5.789  14.082  0.00  0.00    +0.000 F 
ENDBRANCH   6  22
TORSDOF 2
ENDMDL
MODEL 4
REMARK VINA RESULT:      -8.3      3.627      8.312
REMARK  Name = 
REMARK  2 active torsions:
REMARK  status: ('A' for Active; 'I' for Inactive)
REMARK    1  A    between atoms: C_6  and  C_7
REMARK    2  A    between atoms: C_19  and  C_20
REMARK                            x       y       z     vdW  Elec       q    Type
REMARK                         _______ _______ _______ _____ _____    ______ ____
ROOT
ATOM      1  O   UNL     1       2.860   3.321  19.903  0.00  0.00    +0.000 OA
ATOM      2  C   UNL     1       3.077   4.404  19.407  0.00  0.00    +0.000 A 
ATOM      3  C   UNL     1       3.930   4.555  18.265  0.00  0.00    +0.000 A 
ATOM      4  C   UNL     1       4.440   3.387  17.771  0.00  0.00    +0.000 A 
ATOM      5  C   UNL     1       4.880   3.435  16.500  0.00  0.00    +0.000 A 
ATOM      6  C   UNL     1       5.263   4.660  15.981  0.00  0.00    +0.000 A 
ATOM      7  C   UNL     1       4.875   5.865  16.591  0.00  0.00    +0.000 A 
ATOM      8  C   UNL     1       4.049   5.809  17.684  0.00  0.00    +0.000 A 
ATOM      9  N   UNL     1       3.389   6.949  18.175  0.00  0.00    +0.000 NA
ATOM     10  C   UNL     1       2.590   6.745  19.167  0.00  0.00    +0.000 A 
ATOM     11  N   UNL     1       2.465   5.526  19.800  0.00  0.00    +0.000 N 
ATOM     12  C   UNL     1       1.599   5.336  20.891  0.00  0.00    +0.000 C 
ATOM     13  C   UNL     1       1.125   6.643  21.089  0.00  0.00    +0.000 C 
ATOM     14  C   UNL     1       1.797   7.711  19.984  0.00  0.00    +0.000 C 
ATOM     15  C   UNL     1       1.116   8.604  20.683  0.00  0.00    +0.000 C 
ENDROOT
BRANCH  15  16
ATOM     16  C   UNL     1       0.528   9.684  21.228  0.00  0.00    +0.000 A 
ATOM     17  C   UNL     1       0.134   9.504  22.510  0.00  0.00    +0.000 A 
ATOM     18  C   UNL     1      -0.642  10.507  22.953  0.00  0.00    +0.000 A 
ATOM     19  C   UNL     1      -0.615  11.739  22.284  0.00  0.00    +0.000 A 
ATOM     20  C   UNL     1       0.239  11.994  21.212  0.00  0.00    +0.000 A 
ATOM     21  C   UNL     1       0.776  10.929  20.590  0.00  0.00    +0.000 A 
ENDBRANCH  15  16
BRANCH   6  22
ATOM     22  C   UNL     1       6.185   4.711  14.818  0.00  0.00    +0.000 C 
ATOM     23  F   UNL     1       6.121   5.896  14.169  0.00  0.00    +0.000 F 
ATOM     24  F   UNL     1       7.475   4.529  15.195  0.00  0.00    +0.000 F 
ATOM     25  F   UNL     1       5.910   3.739  13.907  0.00  0.00    +0.000 F 
ENDBRANCH   6  22
TORSDOF 2
ENDMDL
MODEL 5
REMARK VINA RESULT:      -8.3      4.603      9.158
REMARK  Name = 
REMARK  2 active torsions:
REMARK  status: ('A' for Active; 'I' for Inactive)
REMARK    1  A    between atoms: C_6  and  C_7
REMARK    2  A    between atoms: C_19  and  C_20
REMARK                            x       y       z     vdW  Elec       q    Type
REMARK                         _______ _______ _______ _____ _____    ______ ____
ROOT
ATOM      1  O   UNL     1       2.751   8.155  17.147  0.00  0.00    +0.000 OA
ATOM      2  C   UNL     1       2.300   7.862  18.233  0.00  0.00    +0.000 A 
ATOM      3  C   UNL     1       2.473   6.555  18.795  0.00  0.00    +0.000 A 
ATOM      4  C   UNL     1       3.209   5.693  18.030  0.00  0.00    +0.000 A 
ATOM      5  C   UNL     1       3.736   4.641  18.682  0.00  0.00    +0.000 A 
ATOM      6  C   UNL     1       3.130   4.220  19.853  0.00  0.00    +0.000 A 
ATOM      7  C   UNL     1       2.239   5.050  20.553  0.00  0.00    +0.000 A 
ATOM      8  C   UNL     1       2.024   6.322  20.087  0.00  0.00    +0.000 A 
ATOM      9  N   UNL     1       1.385   7.301  20.866  0.00  0.00    +0.000 NA
ATOM     10  C   UNL     1       1.308   8.472  20.333  0.00  0.00    +0.000 A 
ATOM     11  N   UNL     1       1.706   8.745  19.041  0.00  0.00    +0.000 N 
ATOM     12  C   UNL     1       1.594  10.029  18.480  0.00  0.00    +0.000 C 
ATOM     13  C   UNL     1       0.941  10.718  19.513  0.00  0.00    +0.000 C 
ATOM     14  C   UNL     1       0.639   9.715  20.822  0.00  0.00    +0.000 C 
ATOM     15  C   UNL     1       0.029  10.790  21.295  0.00  0.00    +0.000 C 
ENDROOT
BRANCH  15  16
ATOM     16  C   UNL     1      -0.645  11.730  21.980  0.00  0.00    +0.000 A 
ATOM     17  C   UNL     1      -1.465  11.229  22.933  0.00  0.00    +0.000 A 
ATOM     18  C   UNL     1      -2.286  12.162  23.445  0.00  0.00    +0.000 A 
ATOM     19  C   UNL     1      -1.958  13.517  23.296  0.00  0.00    +0.000 A 
ATOM     20  C   UNL     1      -0.774  13.943  22.694  0.00  0.00    +0.000 A 
ATOM     21  C   UNL     1      -0.120  13.049  21.930  0.00  0.00    +0.000 A 
ENDBRANCH  15  16
BRANCH   6  22
ATOM     22  C   UNL     1       3.340   2.829  20.333  0.00  0.00    +0.000 C 
ATOM     23  F   UNL     1       2.642   1.929  19.605  0.00  0.00    +0.000 F 
ATOM     24  F   UNL     1       4.647   2.472  20.268  0.00  0.00    +0.000 F 
ATOM     25  F   UNL     1       2.964   2.677  21.630  0.00  0.00    +0.000 F 
ENDBRANCH   6  22
TORSDOF 2
ENDMDL
MODEL 6
REMARK VINA RESULT:      -8.2      3.839      8.202
REMARK  Name = 
REMARK  2 active torsions:
REMARK  status: ('A' for Active; 'I' for Inactive)
REMARK    1  A    between atoms: C_6  and  C_7
REMARK    2  A    between atoms: C_19  and  C_20
REMARK                            x       y       z     vdW  Elec       q    Type
REMARK                         _______ _______ _______ _____ _____    ______ ____
ROOT
ATOM      1  O   UNL     1       2.944   5.006  20.489  0.00  0.00    +0.000 OA
ATOM      2  C   UNL     1       3.122   5.822  19.612  0.00  0.00    +0.000 A 
ATOM      3  C   UNL     1       3.987   5.560  18.499  0.00  0.00    +0.000 A 
ATOM      4  C   UNL     1       4.555   4.316  18.493  0.00  0.00    +0.000 A 
ATOM      5  C   UNL     1       5.012   3.891  17.301  0.00  0.00    +0.000 A 
ATOM      6  C   UNL     1       5.350   4.837  16.349  0.00  0.00    +0.000 A 
ATOM      7  C   UNL     1       4.900   6.165  16.447  0.00  0.00    +0.000 A 
ATOM      8  C   UNL     1       4.060   6.497  17.479  0.00  0.00    +0.000 A 
ATOM      9  N   UNL     1       3.343   7.706  17.493  0.00  0.00    +0.000 NA
ATOM     10  C   UNL     1       2.539   7.864  18.488  0.00  0.00    +0.000 A 
ATOM     11  N   UNL     1       2.457   6.980  19.544  0.00  0.00    +0.000 N 
ATOM     12  C   UNL     1       1.583   7.186  20.625  0.00  0.00    +0.000 C 
ATOM     13  C   UNL     1       1.049   8.444  20.304  0.00  0.00    +0.000 C 
ATOM     14  C   UNL     1       1.691   9.033  18.871  0.00  0.00    +0.000 C 
ATOM     15  C   UNL     1       0.961  10.094  19.173  0.00  0.00    +0.000 C 
ENDROOT
BRANCH  15  16
ATOM     16  C   UNL     1       0.318  11.272  19.259  0.00  0.00    +0.000 A 
ATOM     17  C   UNL     1       1.073  12.334  18.892  0.00  0.00    +0.000 A 
ATOM     18  C   UNL     1       0.491  13.506  19.197  0.00  0.00    +0.000 A 
ATOM     19  C   UNL     1      -0.892  13.542  19.431  0.00  0.00    +0.000 A 
ATOM     20  C   UNL     1      -1.707  12.419  19.295  0.00  0.00    +0.000 A 
ATOM     21  C   UNL     1      -1.100  11.219  19.291  0.00  0.00    +0.000 A 
ENDBRANCH  15  16
BRANCH   6  22
ATOM     22  C   UNL     1       6.287   4.478  15.254  0.00  0.00    +0.000 C 
ATOM     23  F   UNL     1       6.004   3.269  14.718  0.00  0.00    +0.000 F 
ATOM     24  F   UNL     1       6.247   5.384  14.246  0.00  0.00    +0.000 F 
ATOM     25  F   UNL     1       7.577   4.436  15.682  0.00  0.00    +0.000 F 
ENDBRANCH   6  22
TORSDOF 2
ENDMDL
MODEL 7
REMARK VINA RESULT:      -8.2      3.767      8.207
REMARK  Name = 
REMARK  2 active torsions:
REMARK  status: ('A' for Active; 'I' for Inactive)
REMARK    1  A    between atoms: C_6  and  C_7
REMARK    2  A    between atoms: C_19  and  C_20
REMARK                            x       y       z     vdW  Elec       q    Type
REMARK                         _______ _______ _______ _____ _____    ______ ____
ROOT
ATOM      1  O   UNL     1       2.937   4.783  20.442  0.00  0.00    +0.000 OA
ATOM      2  C   UNL     1       3.116   5.642  19.608  0.00  0.00    +0.000 A 
ATOM      3  C   UNL     1       3.974   5.433  18.479  0.00  0.00    +0.000 A 
ATOM      4  C   UNL     1       4.533   4.187  18.405  0.00  0.00    +0.000 A 
ATOM      5  C   UNL     1       4.982   3.821  17.191  0.00  0.00    +0.000 A 
ATOM      6  C   UNL     1       5.322   4.813  16.287  0.00  0.00    +0.000 A 
ATOM      7  C   UNL     1       4.881   6.136  16.456  0.00  0.00    +0.000 A 
ATOM      8  C   UNL     1       4.048   6.421  17.507  0.00  0.00    +0.000 A 
ATOM      9  N   UNL     1       3.340   7.632  17.588  0.00  0.00    +0.000 NA
ATOM     10  C   UNL     1       2.541   7.743  18.594  0.00  0.00    +0.000 A 
ATOM     11  N   UNL     1       2.458   6.806  19.603  0.00  0.00    +0.000 N 
ATOM     12  C   UNL     1       1.590   6.961  20.697  0.00  0.00    +0.000 C 
ATOM     13  C   UNL     1       1.063   8.238  20.444  0.00  0.00    +0.000 C 
ATOM     14  C   UNL     1       1.703   8.896  19.041  0.00  0.00    +0.000 C 
ATOM     15  C   UNL     1       0.981   9.945  19.401  0.00  0.00    +0.000 C 
ENDROOT
BRANCH  15  16
ATOM     16  C   UNL     1       0.347  11.121  19.551  0.00  0.00    +0.000 A 
ATOM     17  C   UNL     1      -0.912  11.130  19.054  0.00  0.00    +0.000 A 
ATOM     18  C   UNL     1      -1.438  12.366  19.013  0.00  0.00    +0.000 A 
ATOM     19  C   UNL     1      -0.881  13.372  19.816  0.00  0.00    +0.000 A 
ATOM     20  C   UNL     1       0.159  13.130  20.712  0.00  0.00    +0.000 A 
ATOM     21  C   UNL     1       0.869  12.001  20.535  0.00  0.00    +0.000 A 
ENDBRANCH  15  16
BRANCH   6  22
ATOM     22  C   UNL     1       6.252   4.505  15.170  0.00  0.00    +0.000 C 
ATOM     23  F   UNL     1       7.541   4.467  15.578  0.00  0.00    +0.000 F 
ATOM     24  F   UNL     1       5.973   3.304  14.607  0.00  0.00    +0.000 F 
ATOM     25  F   UNL     1       6.172   5.426  14.173  0.00  0.00    +0.000 F 
ENDBRANCH   6  22
TORSDOF 2
ENDMDL
MODEL 8
REMARK VINA RESULT:      -8.1      4.652      9.246
REMARK  Name = 
REMARK  2 active torsions:
REMARK  status: ('A' for Active; 'I' for Inactive)
REMARK    1  A    between atoms: C_6  and  C_7
REMARK    2  A    between atoms: C_19  and  C_20
REMARK                            x       y       z     vdW  Elec       q    Type
REMARK                         _______ _______ _______ _____ _____    ______ ____
ROOT
ATOM      1  O   UNL     1       2.638   8.251  17.213  0.00  0.00    +0.000 OA
ATOM      2  C   UNL     1       2.210   7.972  18.311  0.00  0.00    +0.000 A 
ATOM      3  C   UNL     1       2.361   6.661  18.870  0.00  0.00    +0.000 A 
ATOM      4  C   UNL     1       3.050   5.777  18.086  0.00  0.00    +0.000 A 
ATOM      5  C   UNL     1       3.565   4.711  18.725  0.00  0.00    +0.000 A 
ATOM      6  C   UNL     1       2.981   4.308  19.913  0.00  0.00    +0.000 A 
ATOM      7  C   UNL     1       2.134   5.164  20.637  0.00  0.00    +0.000 A 
ATOM      8  C   UNL     1       1.943   6.441  20.175  0.00  0.00    +0.000 A 
ATOM      9  N   UNL     1       1.354   7.439  20.971  0.00  0.00    +0.000 NA
ATOM     10  C   UNL     1       1.295   8.612  20.438  0.00  0.00    +0.000 A 
ATOM     11  N   UNL     1       1.665   8.872  19.136  0.00  0.00    +0.000 N 
ATOM     12  C   UNL     1       1.574  10.158  18.576  0.00  0.00    +0.000 C 
ATOM     13  C   UNL     1       0.970  10.867  19.626  0.00  0.00    +0.000 C 
ATOM     14  C   UNL     1       0.677   9.874  20.945  0.00  0.00    +0.000 C 
ATOM     15  C   UNL     1       0.112  10.966  21.432  0.00  0.00    +0.000 C 
ENDROOT
BRANCH  15  16
ATOM     16  C   UNL     1      -0.515  11.926  22.135  0.00  0.00    +0.000 A 
ATOM     17  C   UNL     1      -0.115  13.181  21.824  0.00  0.00    +0.000 A 
ATOM     18  C   UNL     1      -0.586  14.097  22.686  0.00  0.00    +0.000 A 
ATOM     19  C   UNL     1      -1.696  13.780  23.483  0.00  0.00    +0.000 A 
ATOM     20  C   UNL     1      -2.380  12.570  23.372  0.00  0.00    +0.000 A 
ATOM     21  C   UNL     1      -1.744  11.562  22.748  0.00  0.00    +0.000 A 
ENDBRANCH  15  16
BRANCH   6  22
ATOM     22  C   UNL     1       3.165   2.913  20.389  0.00  0.00    +0.000 C 
ATOM     23  F   UNL     1       2.807   2.766  21.684  0.00  0.00    +0.000 F 
ATOM     24  F   UNL     1       2.423   2.038  19.665  0.00  0.00    +0.000 F 
ATOM     25  F   UNL     1       4.457   2.505  20.280  0.00  0.00    +0.000 F 
ENDBRANCH   6  22
TORSDOF 2
ENDMDL
MODEL 9
REMARK VINA RESULT:      -8.1      3.683      8.264
REMARK  Name = 
REMARK  2 active torsions:
REMARK  status: ('A' for Active; 'I' for Inactive)
REMARK    1  A    between atoms: C_6  and  C_7
REMARK    2  A    between atoms: C_19  and  C_20
REMARK                            x       y       z     vdW  Elec       q    Type
REMARK                         _______ _______ _______ _____ _____    ______ ____
ROOT
ATOM      1  O   UNL     1       2.878   4.376  20.437  0.00  0.00    +0.000 OA
ATOM      2  C   UNL     1       3.053   5.304  19.678  0.00  0.00    +0.000 A 
ATOM      3  C   UNL     1       3.907   5.192  18.532  0.00  0.00    +0.000 A 
ATOM      4  C   UNL     1       4.469   3.958  18.352  0.00  0.00    +0.000 A 
ATOM      5  C   UNL     1       4.914   3.697  17.109  0.00  0.00    +0.000 A 
ATOM      6  C   UNL     1       5.249   4.763  16.291  0.00  0.00    +0.000 A 
ATOM      7  C   UNL     1       4.807   6.066  16.573  0.00  0.00    +0.000 A 
ATOM      8  C   UNL     1       3.977   6.259  17.648  0.00  0.00    +0.000 A 
ATOM      9  N   UNL     1       3.267   7.458  17.833  0.00  0.00    +0.000 NA
ATOM     10  C   UNL     1       2.472   7.481  18.847  0.00  0.00    +0.000 A 
ATOM     11  N   UNL     1       2.393   6.462  19.773  0.00  0.00    +0.000 N 
ATOM     12  C   UNL     1       1.529   6.523  20.880  0.00  0.00    +0.000 C 
ATOM     13  C   UNL     1       1.000   7.815  20.738  0.00  0.00    +0.000 C 
ATOM     14  C   UNL     1       1.634   8.591  19.394  0.00  0.00    +0.000 C 
ATOM     15  C   UNL     1       0.911   9.604  19.843  0.00  0.00    +0.000 C 
ENDROOT
BRANCH  15  16
ATOM     16  C   UNL     1       0.276  10.762  20.094  0.00  0.00    +0.000 A 
ATOM     17  C   UNL     1       1.042  11.680  20.728  0.00  0.00    +0.000 A 
ATOM     18  C   UNL     1       0.328  12.731  21.164  0.00  0.00    +0.000 A 
ATOM     19  C   UNL     1      -0.930  12.984  20.599  0.00  0.00    +0.000 A 
ATOM     20  C   UNL     1      -1.449  12.228  19.548  0.00  0.00    +0.000 A 
ATOM     21  C   UNL     1      -0.889  11.025  19.326  0.00  0.00    +0.000 A 
ENDBRANCH  15  16
BRANCH   6  22
ATOM     22  C   UNL     1       6.176   4.552  15.150  0.00  0.00    +0.000 C 
ATOM     23  F   UNL     1       7.463   4.455  15.551  0.00  0.00    +0.000 F 
ATOM     24  F   UNL     1       5.880   3.416  14.471  0.00  0.00    +0.000 F 
ATOM     25  F   UNL     1       6.111   5.568  14.248  0.00  0.00    +0.000 F 
ENDBRANCH   6  22
TORSDOF 2
ENDMDL
