MODEL 1
REMARK VINA RESULT:      -9.5      0.000      0.000
REMARK  Name = 
REMARK  6 active torsions:
REMARK  status: ('A' for Active; 'I' for Inactive)
REMARK    1  A    between atoms: C_2  and  C_3
REMARK    2  A    between atoms: C_7  and  S_8
REMARK    3  A    between atoms: S_8  and  N_11
REMARK    4  A    between atoms: N_11  and  C_12
REMARK    5  A    between atoms: N_11  and  C_19
REMARK    6  A    between atoms: C_12  and  C_13
REMARK                            x       y       z     vdW  Elec       q    Type
REMARK                         _______ _______ _______ _____ _____    ______ ____
ROOT
ATOM      1  C   UNL     1       2.494   7.686  18.836  0.00  0.00    +0.000 A 
ATOM      2  C   UNL     1       2.442   6.919  20.010  0.00  0.00    +0.000 A 
ATOM      3  C   UNL     1       3.257   5.796  20.165  0.00  0.00    +0.000 A 
ATOM      4  C   UNL     1       4.169   5.448  19.168  0.00  0.00    +0.000 A 
ATOM      5  C   UNL     1       4.307   6.250  18.042  0.00  0.00    +0.000 A 
ATOM      6  C   UNL     1       3.424   7.329  17.848  0.00  0.00    +0.000 A 
ENDROOT
BRANCH   1   8
ATOM      7  O   UNL     1       1.183   9.018  17.485  0.00  0.00    +0.000 OA
ATOM      8  C   UNL     1       1.449   8.754  18.661  0.00  0.00    +0.000 C 
ATOM      9  N   UNL     1       0.837   9.361  19.778  0.00  0.00    +0.000 N 
ATOM     10  C   UNL     1       0.958   8.785  21.125  0.00  0.00    +0.000 C 
ATOM     11  C   UNL     1      -0.275   8.999  21.979  0.00  0.00    +0.000 C 
ATOM     12  C   UNL     1      -0.472  10.488  22.164  0.00  0.00    +0.000 C 
ATOM     13  C   UNL     1      -0.472  11.198  20.839  0.00  0.00    +0.000 A 
ATOM     14  N   UNL     1      -1.061  12.425  20.869  0.00  0.00    +0.000 NA
ATOM     15  C   UNL     1      -1.141  13.101  19.709  0.00  0.00    +0.000 A 
ATOM     16  C   UNL     1      -0.687  12.594  18.510  0.00  0.00    +0.000 A 
ATOM     17  C   UNL     1      -0.059  11.344  18.507  0.00  0.00    +0.000 A 
ATOM     18  C   UNL     1       0.102  10.615  19.690  0.00  0.00    +0.000 A 
ENDBRANCH   1   8
BRANCH   5  19
ATOM     19  S   UNL     1       5.531   5.956  16.766  0.00  0.00    +0.000 S 
ATOM     20  O   UNL     1       5.434   7.114  15.901  0.00  0.00    +0.000 OA
ATOM     21  O   UNL     1       6.770   5.657  17.465  0.00  0.00    +0.000 OA
BRANCH  19  22
ATOM     22  N   UNL     1       5.066   4.561  15.889  0.00  0.00    +0.000 N 
BRANCH  22  23
ATOM     23  C   UNL     1       5.717   4.463  14.600  0.00  0.00    +0.000 A 
ATOM     24  C   UNL     1       6.956   5.058  14.338  0.00  0.00    +0.000 A 
ATOM     25  C   UNL     1       7.589   4.835  13.113  0.00  0.00    +0.000 A 
ATOM     26  C   UNL     1       6.972   4.049  12.139  0.00  0.00    +0.000 A 
ATOM     27  C   UNL     1       5.708   3.510  12.376  0.00  0.00    +0.000 A 
ATOM     28  C   UNL     1       5.075   3.730  13.599  0.00  0.00    +0.000 A 
ENDBRANCH  22  23
BRANCH  22  29
ATOM     29  C   UNL     1       5.024   3.261  16.643  0.00  0.00    +0.000 C 
BRANCH  29  30
ATOM     30  C   UNL     1       3.676   3.007  17.296  0.00  0.00    +0.000 A 
ATOM     31  C   UNL     1       2.539   3.744  16.933  0.00  0.00    +0.000 A 
ATOM     32  C   UNL     1       1.339   3.591  17.630  0.00  0.00    +0.000 A 
ATOM     33  C   UNL     1       1.255   2.683  18.681  0.00  0.00    +0.000 A 
ATOM     34  C   UNL     1       2.358   1.898  19.011  0.00  0.00    +0.000 A 
ATOM     35  C   UNL     1       3.556   2.045  18.311  0.00  0.00    +0.000 A 
ENDBRANCH  29  30
ENDBRANCH  22  29
ENDBRANCH  19  22
ENDBRANCH   5  19
TORSDOF 6
ENDMDL
MODEL 2
REMARK VINA RESULT:      -9.2      3.403     10.098
REMARK  Name = 
REMARK  6 active torsions:
REMARK  status: ('A' for Active; 'I' for Inactive)
REMARK    1  A    between atoms: C_2  and  C_3
REMARK    2  A    between atoms: C_7  and  S_8
REMARK    3  A    between atoms: S_8  and  N_11
REMARK    4  A    between atoms: N_11  and  C_12
REMARK    5  A    between atoms: N_11  and  C_19
REMARK    6  A    between atoms: C_12  and  C_13
REMARK                            x       y       z     vdW  Elec       q    Type
REMARK                         _______ _______ _______ _____ _____    ______ ____
ROOT
ATOM      1  C   UNL     1       1.790   7.986  19.491  0.00  0.00    +0.000 A 
ATOM      2  C   UNL     1       2.163   8.432  18.214  0.00  0.00    +0.000 A 
ATOM      3  C   UNL     1       1.933   9.753  17.825  0.00  0.00    +0.000 A 
ATOM      4  C   UNL     1       1.368  10.661  18.721  0.00  0.00    +0.000 A 
ATOM      5  C   UNL     1       1.084  10.266  20.022  0.00  0.00    +0.000 A 
ATOM      6  C   UNL     1       1.234   8.914  20.385  0.00  0.00    +0.000 A 
ENDROOT
BRANCH   1   8
ATOM      7  O   UNL     1       0.963   6.059  20.450  0.00  0.00    +0.000 OA
ATOM      8  C   UNL     1       1.884   6.510  19.762  0.00  0.00    +0.000 C 
ATOM      9  N   UNL     1       2.944   5.741  19.238  0.00  0.00    +0.000 N 
ATOM     10  C   UNL     1       3.817   6.263  18.176  0.00  0.00    +0.000 C 
ATOM     11  C   UNL     1       4.301   5.192  17.220  0.00  0.00    +0.000 C 
ATOM     12  C   UNL     1       5.126   4.194  18.004  0.00  0.00    +0.000 C 
ATOM     13  C   UNL     1       4.369   3.696  19.203  0.00  0.00    +0.000 A 
ATOM     14  N   UNL     1       4.833   2.516  19.700  0.00  0.00    +0.000 NA
ATOM     15  C   UNL     1       4.176   1.984  20.745  0.00  0.00    +0.000 A 
ATOM     16  C   UNL     1       3.054   2.561  21.301  0.00  0.00    +0.000 A 
ATOM     17  C   UNL     1       2.612   3.787  20.795  0.00  0.00    +0.000 A 
ATOM     18  C   UNL     1       3.284   4.418  19.742  0.00  0.00    +0.000 A 
ENDBRANCH   1   8
BRANCH   5  19
ATOM     19  S   UNL     1       0.472  11.387  21.281  0.00  0.00    +0.000 S 
ATOM     20  O   UNL     1       0.430  10.584  22.486  0.00  0.00    +0.000 OA
ATOM     21  O   UNL     1       1.318  12.566  21.208  0.00  0.00    +0.000 OA
BRANCH  19  22
ATOM     22  N   UNL     1      -1.121  11.848  20.858  0.00  0.00    +0.000 N 
BRANCH  22  23
ATOM     23  C   UNL     1      -1.787  12.596  21.903  0.00  0.00    +0.000 A 
ATOM     24  C   UNL     1      -1.715  13.991  21.990  0.00  0.00    +0.000 A 
ATOM     25  C   UNL     1      -2.470  14.667  22.952  0.00  0.00    +0.000 A 
ATOM     26  C   UNL     1      -3.268  13.952  23.846  0.00  0.00    +0.000 A 
ATOM     27  C   UNL     1      -3.289  12.559  23.800  0.00  0.00    +0.000 A 
ATOM     28  C   UNL     1      -2.537  11.881  22.841  0.00  0.00    +0.000 A 
ENDBRANCH  22  23
BRANCH  22  29
ATOM     29  C   UNL     1      -1.326  12.422  19.484  0.00  0.00    +0.000 C 
BRANCH  29  30
ATOM     30  C   UNL     1      -2.319  11.621  18.658  0.00  0.00    +0.000 A 
ATOM     31  C   UNL     1      -1.891  10.640  17.750  0.00  0.00    +0.000 A 
ATOM     32  C   UNL     1      -2.803  10.005  16.907  0.00  0.00    +0.000 A 
ATOM     33  C   UNL     1      -4.156  10.324  16.977  0.00  0.00    +0.000 A 
ATOM     34  C   UNL     1      -4.604  11.250  17.916  0.00  0.00    +0.000 A 
ATOM     35  C   UNL     1      -3.694  11.881  18.766  0.00  0.00    +0.000 A 
ENDBRANCH  29  30
ENDBRANCH  22  29
ENDBRANCH  19  22
ENDBRANCH   5  19
TORSDOF 6
ENDMDL
MODEL 3
REMARK VINA RESULT:      -9.1      2.754      8.738
REMARK  Name = 
REMARK  6 active torsions:
REMARK  status: ('A' for Active; 'I' for Inactive)
REMARK    1  A    between atoms: C_2  and  C_3
REMARK    2  A    between atoms: C_7  and  S_8
REMARK    3  A    between atoms: S_8  and  N_11
REMARK    4  A    between atoms: N_11  and  C_12
REMARK    5  A    between atoms: N_11  and  C_19
REMARK    6  A    between atoms: C_12  and  C_13
REMARK                            x       y       z     vdW  Elec       q    Type
REMARK                         _______ _______ _______ _____ _____    ______ ____
ROOT
ATOM      1  C   UNL     1       2.630   6.955  18.912  0.00  0.00    +0.000 A 
ATOM      2  C   UNL     1       2.260   5.750  19.529  0.00  0.00    +0.000 A 
ATOM      3  C   UNL     1       1.490   5.752  20.694  0.00  0.00    +0.000 A 
ATOM      4  C   UNL     1       1.042   6.956  21.237  0.00  0.00    +0.000 A 
ATOM      5  C   UNL     1       1.313   8.154  20.588  0.00  0.00    +0.000 A 
ATOM      6  C   UNL     1       2.161   8.157  19.464  0.00  0.00    +0.000 A 
ENDROOT
BRANCH   1   8
ATOM      7  O   UNL     1       3.302   7.520  16.780  0.00  0.00    +0.000 OA
ATOM      8  C   UNL     1       3.622   6.878  17.784  0.00  0.00    +0.000 C 
ATOM      9  N   UNL     1       4.815   6.136  17.916  0.00  0.00    +0.000 N 
ATOM     10  C   UNL     1       5.285   5.668  19.227  0.00  0.00    +0.000 C 
ATOM     11  C   UNL     1       6.796   5.639  19.345  0.00  0.00    +0.000 C 
ATOM     12  C   UNL     1       7.333   4.663  18.321  0.00  0.00    +0.000 C 
ATOM     13  C   UNL     1       6.797   4.971  16.952  0.00  0.00    +0.000 A 
ATOM     14  N   UNL     1       7.537   4.447  15.936  0.00  0.00    +0.000 NA
ATOM     15  C   UNL     1       7.145   4.722  14.680  0.00  0.00    +0.000 A 
ATOM     16  C   UNL     1       6.063   5.523  14.387  0.00  0.00    +0.000 A 
ATOM     17  C   UNL     1       5.299   6.028  15.444  0.00  0.00    +0.000 A 
ATOM     18  C   UNL     1       5.624   5.734  16.774  0.00  0.00    +0.000 A 
ENDBRANCH   1   8
BRANCH   5  19
ATOM     19  S   UNL     1       0.679   9.739  21.138  0.00  0.00    +0.000 S 
ATOM     20  O   UNL     1      -0.456   9.401  21.972  0.00  0.00    +0.000 OA
ATOM     21  O   UNL     1       1.817  10.451  21.692  0.00  0.00    +0.000 OA
BRANCH  19  22
ATOM     22  N   UNL     1       0.129  10.600  19.765  0.00  0.00    +0.000 N 
BRANCH  22  23
ATOM     23  C   UNL     1       0.969  11.732  19.436  0.00  0.00    +0.000 A 
ATOM     24  C   UNL     1       1.974  11.664  18.466  0.00  0.00    +0.000 A 
ATOM     25  C   UNL     1       2.677  12.818  18.111  0.00  0.00    +0.000 A 
ATOM     26  C   UNL     1       2.401  14.029  18.746  0.00  0.00    +0.000 A 
ATOM     27  C   UNL     1       1.444  14.083  19.758  0.00  0.00    +0.000 A 
ATOM     28  C   UNL     1       0.740  12.933  20.114  0.00  0.00    +0.000 A 
ENDBRANCH  22  23
BRANCH  22  29
ATOM     29  C   UNL     1      -0.284   9.790  18.568  0.00  0.00    +0.000 C 
BRANCH  29  30
ATOM     30  C   UNL     1      -1.570  10.294  17.935  0.00  0.00    +0.000 A 
ATOM     31  C   UNL     1      -2.385  11.233  18.587  0.00  0.00    +0.000 A 
ATOM     32  C   UNL     1      -3.625  11.589  18.056  0.00  0.00    +0.000 A 
ATOM     33  C   UNL     1      -4.056  11.030  16.856  0.00  0.00    +0.000 A 
ATOM     34  C   UNL     1      -3.231  10.145  16.166  0.00  0.00    +0.000 A 
ATOM     35  C   UNL     1      -1.987   9.793  16.692  0.00  0.00    +0.000 A 
ENDBRANCH  29  30
ENDBRANCH  22  29
ENDBRANCH  19  22
ENDBRANCH   5  19
TORSDOF 6
ENDMDL
MODEL 4
REMARK VINA RESULT:      -9.1      2.825      5.544
REMARK  Name = 
REMARK  6 active torsions:
REMARK  status: ('A' for Active; 'I' for Inactive)
REMARK    1  A    between atoms: C_2  and  C_3
REMARK    2  A    between atoms: C_7  and  S_8
REMARK    3  A    between atoms: S_8  and  N_11
REMARK    4  A    between atoms: N_11  and  C_12
REMARK    5  A    between atoms: N_11  and  C_19
REMARK    6  A    between atoms: C_12  and  C_13
REMARK                            x       y       z     vdW  Elec       q    Type
REMARK                         _______ _______ _______ _____ _____    ______ ____
ROOT
ATOM      1  C   UNL     1       0.122  10.161  20.293  0.00  0.00    +0.000 A 
ATOM      2  C   UNL     1       0.537   9.816  21.589  0.00  0.00    +0.000 A 
ATOM      3  C   UNL     1       1.387   8.728  21.799  0.00  0.00    +0.000 A 
ATOM      4  C   UNL     1       1.871   7.995  20.715  0.00  0.00    +0.000 A 
ATOM      5  C   UNL     1       1.553   8.380  19.419  0.00  0.00    +0.000 A 
ATOM      6  C   UNL     1       0.627   9.421  19.213  0.00  0.00    +0.000 A 
ENDROOT
BRANCH   1   8
ATOM      7  O   UNL     1      -0.840  12.146  20.966  0.00  0.00    +0.000 OA
ATOM      8  C   UNL     1      -0.947  11.211  20.166  0.00  0.00    +0.000 C 
ATOM      9  N   UNL     1      -1.958  11.104  19.188  0.00  0.00    +0.000 N 
ATOM     10  C   UNL     1      -1.847  10.153  18.073  0.00  0.00    +0.000 C 
ATOM     11  C   UNL     1      -2.479  10.658  16.792  0.00  0.00    +0.000 C 
ATOM     12  C   UNL     1      -3.958  10.860  17.040  0.00  0.00    +0.000 C 
ATOM     13  C   UNL     1      -4.187  11.715  18.254  0.00  0.00    +0.000 A 
ATOM     14  N   UNL     1      -5.418  12.296  18.299  0.00  0.00    +0.000 NA
ATOM     15  C   UNL     1      -5.678  13.114  19.333  0.00  0.00    +0.000 A 
ATOM     16  C   UNL     1      -4.754  13.406  20.313  0.00  0.00    +0.000 A 
ATOM     17  C   UNL     1      -3.506  12.777  20.265  0.00  0.00    +0.000 A 
ATOM     18  C   UNL     1      -3.193  11.873  19.242  0.00  0.00    +0.000 A 
ENDBRANCH   1   8
BRANCH   5  19
ATOM     19  S   UNL     1       2.222   7.581  17.960  0.00  0.00    +0.000 S 
ATOM     20  O   UNL     1       1.057   7.083  17.257  0.00  0.00    +0.000 OA
ATOM     21  O   UNL     1       3.098   8.558  17.338  0.00  0.00    +0.000 OA
BRANCH  19  22
ATOM     22  N   UNL     1       3.178   6.255  18.468  0.00  0.00    +0.000 N 
BRANCH  22  23
ATOM     23  C   UNL     1       2.406   5.224  19.128  0.00  0.00    +0.000 A 
ATOM     24  C   UNL     1       1.549   4.367  18.429  0.00  0.00    +0.000 A 
ATOM     25  C   UNL     1       0.917   3.317  19.100  0.00  0.00    +0.000 A 
ATOM     26  C   UNL     1       1.112   3.144  20.471  0.00  0.00    +0.000 A 
ATOM     27  C   UNL     1       1.916   4.037  21.179  0.00  0.00    +0.000 A 
ATOM     28  C   UNL     1       2.549   5.085  20.511  0.00  0.00    +0.000 A 
ENDBRANCH  22  23
BRANCH  22  29
ATOM     29  C   UNL     1       4.184   5.720  17.488  0.00  0.00    +0.000 C 
BRANCH  29  30
ATOM     30  C   UNL     1       5.616   6.028  17.892  0.00  0.00    +0.000 A 
ATOM     31  C   UNL     1       6.226   5.373  18.973  0.00  0.00    +0.000 A 
ATOM     32  C   UNL     1       7.493   5.756  19.414  0.00  0.00    +0.000 A 
ATOM     33  C   UNL     1       8.176   6.781  18.766  0.00  0.00    +0.000 A 
ATOM     34  C   UNL     1       7.610   7.398  17.653  0.00  0.00    +0.000 A 
ATOM     35  C   UNL     1       6.345   7.010  17.206  0.00  0.00    +0.000 A 
ENDBRANCH  29  30
ENDBRANCH  22  29
ENDBRANCH  19  22
ENDBRANCH   5  19
TORSDOF 6
ENDMDL
MODEL 5
REMARK VINA RESULT:      -9.1      3.493     10.186
REMARK  Name = 
REMARK  6 active torsions:
REMARK  status: ('A' for Active; 'I' for Inactive)
REMARK    1  A    between atoms: C_2  and  C_3
REMARK    2  A    between atoms: C_7  and  S_8
REMARK    3  A    between atoms: S_8  and  N_11
REMARK    4  A    between atoms: N_11  and  C_12
REMARK    5  A    between atoms: N_11  and  C_19
REMARK    6  A    between atoms: C_12  and  C_13
REMARK                            x       y       z     vdW  Elec       q    Type
REMARK                         _______ _______ _______ _____ _____    ______ ____
ROOT
ATOM      1  C   UNL     1       1.694   8.239  19.685  0.00  0.00    +0.000 A 
ATOM      2  C   UNL     1       2.135   8.724  18.444  0.00  0.00    +0.000 A 
ATOM      3  C   UNL     1       1.913  10.054  18.078  0.00  0.00    +0.000 A 
ATOM      4  C   UNL     1       1.286  10.930  18.965  0.00  0.00    +0.000 A 
ATOM      5  C   UNL     1       0.930  10.496  20.236  0.00  0.00    +0.000 A 
ATOM      6  C   UNL     1       1.075   9.135  20.569  0.00  0.00    +0.000 A 
ENDROOT
BRANCH   1   8
ATOM      7  O   UNL     1       0.896   6.296  20.637  0.00  0.00    +0.000 OA
ATOM      8  C   UNL     1       1.789   6.756  19.920  0.00  0.00    +0.000 C 
ATOM      9  N   UNL     1       2.820   5.992  19.333  0.00  0.00    +0.000 N 
ATOM     10  C   UNL     1       3.649   6.532  18.246  0.00  0.00    +0.000 C 
ATOM     11  C   UNL     1       4.084   5.479  17.248  0.00  0.00    +0.000 C 
ATOM     12  C   UNL     1       4.936   4.460  17.973  0.00  0.00    +0.000 C 
ATOM     13  C   UNL     1       4.229   3.941  19.193  0.00  0.00    +0.000 A 
ATOM     14  N   UNL     1       4.706   2.747  19.644  0.00  0.00    +0.000 NA
ATOM     15  C   UNL     1       4.090   2.197  20.705  0.00  0.00    +0.000 A 
ATOM     16  C   UNL     1       2.998   2.768  21.322  0.00  0.00    +0.000 A 
ATOM     17  C   UNL     1       2.542   4.008  20.862  0.00  0.00    +0.000 A 
ATOM     18  C   UNL     1       3.173   4.658  19.794  0.00  0.00    +0.000 A 
ENDBRANCH   1   8
BRANCH   5  19
ATOM     19  S   UNL     1       0.233  11.574  21.487  0.00  0.00    +0.000 S 
ATOM     20  O   UNL     1       0.161  10.747  22.674  0.00  0.00    +0.000 OA
ATOM     21  O   UNL     1       1.048  12.777  21.473  0.00  0.00    +0.000 OA
BRANCH  19  22
ATOM     22  N   UNL     1      -1.353  12.000  21.003  0.00  0.00    +0.000 N 
BRANCH  22  23
ATOM     23  C   UNL     1      -2.079  12.721  22.026  0.00  0.00    +0.000 A 
ATOM     24  C   UNL     1      -2.851  12.072  22.996  0.00  0.00    +0.000 A 
ATOM     25  C   UNL     1      -3.437  12.811  24.026  0.00  0.00    +0.000 A 
ATOM     26  C   UNL     1      -3.282  14.198  24.069  0.00  0.00    +0.000 A 
ATOM     27  C   UNL     1      -2.567  14.851  23.066  0.00  0.00    +0.000 A 
ATOM     28  C   UNL     1      -1.980  14.115  22.037  0.00  0.00    +0.000 A 
ENDBRANCH  22  23
BRANCH  22  29
ATOM     29  C   UNL     1      -1.516  12.580  19.626  0.00  0.00    +0.000 C 
BRANCH  29  30
ATOM     30  C   UNL     1      -2.436  11.750  18.746  0.00  0.00    +0.000 A 
ATOM     31  C   UNL     1      -3.830  11.903  18.799  0.00  0.00    +0.000 A 
ATOM     32  C   UNL     1      -4.667  11.046  18.083  0.00  0.00    +0.000 A 
ATOM     33  C   UNL     1      -4.122  10.043  17.288  0.00  0.00    +0.000 A 
ATOM     34  C   UNL     1      -2.739   9.919  17.177  0.00  0.00    +0.000 A 
ATOM     35  C   UNL     1      -1.900  10.780  17.886  0.00  0.00    +0.000 A 
ENDBRANCH  29  30
ENDBRANCH  22  29
ENDBRANCH  19  22
ENDBRANCH   5  19
TORSDOF 6
ENDMDL
MODEL 6
REMARK VINA RESULT:      -8.9      2.820      5.406
REMARK  Name = 
REMARK  6 active torsions:
REMARK  status: ('A' for Active; 'I' for Inactive)
REMARK    1  A    between atoms: C_2  and  C_3
REMARK    2  A    between atoms: C_7  and  S_8
REMARK    3  A    between atoms: S_8  and  N_11
REMARK    4  A    between atoms: N_11  and  C_12
REMARK    5  A    between atoms: N_11  and  C_19
REMARK    6  A    between atoms: C_12  and  C_13
REMARK                            x       y       z     vdW  Elec       q    Type
REMARK                         _______ _______ _______ _____ _____    ______ ____
ROOT
ATOM      1  C   UNL     1       0.167  10.166  20.263  0.00  0.00    +0.000 A 
ATOM      2  C   UNL     1       0.616   9.840  21.552  0.00  0.00    +0.000 A 
ATOM      3  C   UNL     1       1.467   8.752  21.756  0.00  0.00    +0.000 A 
ATOM      4  C   UNL     1       1.917   8.000  20.670  0.00  0.00    +0.000 A 
ATOM      5  C   UNL     1       1.565   8.366  19.378  0.00  0.00    +0.000 A 
ATOM      6  C   UNL     1       0.638   9.407  19.181  0.00  0.00    +0.000 A 
ENDROOT
BRANCH   1   8
ATOM      7  O   UNL     1      -0.780  12.155  20.947  0.00  0.00    +0.000 OA
ATOM      8  C   UNL     1      -0.901  11.220  20.150  0.00  0.00    +0.000 C 
ATOM      9  N   UNL     1      -1.925  11.115  19.185  0.00  0.00    +0.000 N 
ATOM     10  C   UNL     1      -1.832  10.163  18.069  0.00  0.00    +0.000 C 
ATOM     11  C   UNL     1      -2.479  10.669  16.796  0.00  0.00    +0.000 C 
ATOM     12  C   UNL     1      -3.954  10.876  17.063  0.00  0.00    +0.000 C 
ATOM     13  C   UNL     1      -4.164  11.732  18.280  0.00  0.00    +0.000 A 
ATOM     14  N   UNL     1      -5.393  12.317  18.340  0.00  0.00    +0.000 NA
ATOM     15  C   UNL     1      -5.637  13.137  19.378  0.00  0.00    +0.000 A 
ATOM     16  C   UNL     1      -4.699  13.426  20.345  0.00  0.00    +0.000 A 
ATOM     17  C   UNL     1      -3.454  12.793  20.281  0.00  0.00    +0.000 A 
ATOM     18  C   UNL     1      -3.157  11.888  19.255  0.00  0.00    +0.000 A 
ENDBRANCH   1   8
BRANCH   5  19
ATOM     19  S   UNL     1       2.189   7.539  17.914  0.00  0.00    +0.000 S 
ATOM     20  O   UNL     1       1.003   7.029  17.257  0.00  0.00    +0.000 OA
ATOM     21  O   UNL     1       3.045   8.506  17.248  0.00  0.00    +0.000 OA
BRANCH  19  22
ATOM     22  N   UNL     1       3.161   6.224  18.417  0.00  0.00    +0.000 N 
BRANCH  22  23
ATOM     23  C   UNL     1       2.388   5.126  18.957  0.00  0.00    +0.000 A 
ATOM     24  C   UNL     1       2.076   5.027  20.317  0.00  0.00    +0.000 A 
ATOM     25  C   UNL     1       1.232   4.008  20.764  0.00  0.00    +0.000 A 
ATOM     26  C   UNL     1       0.726   3.071  19.862  0.00  0.00    +0.000 A 
ATOM     27  C   UNL     1       1.089   3.132  18.517  0.00  0.00    +0.000 A 
ATOM     28  C   UNL     1       1.931   4.149  18.068  0.00  0.00    +0.000 A 
ENDBRANCH  22  23
BRANCH  22  29
ATOM     29  C   UNL     1       4.257   5.786  17.485  0.00  0.00    +0.000 C 
BRANCH  29  30
ATOM     30  C   UNL     1       5.638   6.183  17.979  0.00  0.00    +0.000 A 
ATOM     31  C   UNL     1       6.365   7.214  17.364  0.00  0.00    +0.000 A 
ATOM     32  C   UNL     1       7.681   7.481  17.743  0.00  0.00    +0.000 A 
ATOM     33  C   UNL     1       8.278   6.738  18.757  0.00  0.00    +0.000 A 
ATOM     34  C   UNL     1       7.548   5.754  19.419  0.00  0.00    +0.000 A 
ATOM     35  C   UNL     1       6.229   5.490  19.046  0.00  0.00    +0.000 A 
ENDBRANCH  29  30
ENDBRANCH  22  29
ENDBRANCH  19  22
ENDBRANCH   5  19
TORSDOF 6
ENDMDL
MODEL 7
REMARK VINA RESULT:      -8.9      1.991      4.055
REMARK  Name = 
REMARK  6 active torsions:
REMARK  status: ('A' for Active; 'I' for Inactive)
REMARK    1  A    between atoms: C_2  and  C_3
REMARK    2  A    between atoms: C_7  and  S_8
REMARK    3  A    between atoms: S_8  and  N_11
REMARK    4  A    between atoms: N_11  and  C_12
REMARK    5  A    between atoms: N_11  and  C_19
REMARK    6  A    between atoms: C_12  and  C_13
REMARK                            x       y       z     vdW  Elec       q    Type
REMARK                         _______ _______ _______ _____ _____    ______ ____
ROOT
ATOM      1  C   UNL     1       2.472   7.203  18.875  0.00  0.00    +0.000 A 
ATOM      2  C   UNL     1       2.312   6.921  20.241  0.00  0.00    +0.000 A 
ATOM      3  C   UNL     1       2.396   5.609  20.712  0.00  0.00    +0.000 A 
ATOM      4  C   UNL     1       2.683   4.564  19.833  0.00  0.00    +0.000 A 
ATOM      5  C   UNL     1       2.942   4.833  18.495  0.00  0.00    +0.000 A 
ATOM      6  C   UNL     1       2.772   6.143  18.006  0.00  0.00    +0.000 A 
ENDROOT
BRANCH   1   8
ATOM      7  O   UNL     1       2.575   8.870  17.284  0.00  0.00    +0.000 OA
ATOM      8  C   UNL     1       2.169   8.604  18.419  0.00  0.00    +0.000 C 
ATOM      9  N   UNL     1       1.459   9.500  19.247  0.00  0.00    +0.000 N 
ATOM     10  C   UNL     1       0.731   9.031  20.435  0.00  0.00    +0.000 C 
ATOM     11  C   UNL     1      -0.527   9.827  20.717  0.00  0.00    +0.000 C 
ATOM     12  C   UNL     1      -0.130  11.261  20.993  0.00  0.00    +0.000 C 
ATOM     13  C   UNL     1       0.742  11.798  19.893  0.00  0.00    +0.000 A 
ATOM     14  N   UNL     1       0.782  13.158  19.832  0.00  0.00    +0.000 NA
ATOM     15  C   UNL     1       1.505  13.711  18.842  0.00  0.00    +0.000 A 
ATOM     16  C   UNL     1       2.167  12.969  17.888  0.00  0.00    +0.000 A 
ATOM     17  C   UNL     1       2.137  11.574  17.986  0.00  0.00    +0.000 A 
ATOM     18  C   UNL     1       1.446  10.938  19.024  0.00  0.00    +0.000 A 
ENDBRANCH   1   8
BRANCH   5  19
ATOM     19  S   UNL     1       3.439   3.579  17.315  0.00  0.00    +0.000 S 
ATOM     20  O   UNL     1       3.888   2.472  18.135  0.00  0.00    +0.000 OA
ATOM     21  O   UNL     1       2.315   3.418  16.409  0.00  0.00    +0.000 OA
BRANCH  19  22
ATOM     22  N   UNL     1       4.765   4.184  16.417  0.00  0.00    +0.000 N 
BRANCH  22  23
ATOM     23  C   UNL     1       5.609   5.072  17.188  0.00  0.00    +0.000 A 
ATOM     24  C   UNL     1       6.343   4.635  18.295  0.00  0.00    +0.000 A 
ATOM     25  C   UNL     1       7.228   5.508  18.932  0.00  0.00    +0.000 A 
ATOM     26  C   UNL     1       7.355   6.824  18.485  0.00  0.00    +0.000 A 
ATOM     27  C   UNL     1       6.576   7.278  17.422  0.00  0.00    +0.000 A 
ATOM     28  C   UNL     1       5.692   6.407  16.784  0.00  0.00    +0.000 A 
ENDBRANCH  22  23
BRANCH  22  29
ATOM     29  C   UNL     1       5.532   3.199  15.580  0.00  0.00    +0.000 C 
BRANCH  29  30
ATOM     30  C   UNL     1       6.116   3.828  14.325  0.00  0.00    +0.000 A 
ATOM     31  C   UNL     1       5.671   3.455  13.047  0.00  0.00    +0.000 A 
ATOM     32  C   UNL     1       6.304   3.943  11.903  0.00  0.00    +0.000 A 
ATOM     33  C   UNL     1       7.372   4.827  12.022  0.00  0.00    +0.000 A 
ATOM     34  C   UNL     1       7.784   5.255  13.282  0.00  0.00    +0.000 A 
ATOM     35  C   UNL     1       7.147   4.773  14.427  0.00  0.00    +0.000 A 
ENDBRANCH  29  30
ENDBRANCH  22  29
ENDBRANCH  19  22
ENDBRANCH   5  19
TORSDOF 6
ENDMDL
MODEL 8
REMARK VINA RESULT:      -8.9      0.757      1.148
REMARK  Name = 
REMARK  6 active torsions:
REMARK  status: ('A' for Active; 'I' for Inactive)
REMARK    1  A    between atoms: C_2  and  C_3
REMARK    2  A    between atoms: C_7  and  S_8
REMARK    3  A    between atoms: S_8  and  N_11
REMARK    4  A    between atoms: N_11  and  C_12
REMARK    5  A    between atoms: N_11  and  C_19
REMARK    6  A    between atoms: C_12  and  C_13
REMARK                            x       y       z     vdW  Elec       q    Type
REMARK                         _______ _______ _______ _____ _____    ______ ____
ROOT
ATOM      1  C   UNL     1       2.317   7.416  19.438  0.00  0.00    +0.000 A 
ATOM      2  C   UNL     1       1.965   6.618  20.538  0.00  0.00    +0.000 A 
ATOM      3  C   UNL     1       2.603   5.397  20.766  0.00  0.00    +0.000 A 
ATOM      4  C   UNL     1       3.633   4.975  19.924  0.00  0.00    +0.000 A 
ATOM      5  C   UNL     1       4.064   5.795  18.889  0.00  0.00    +0.000 A 
ATOM      6  C   UNL     1       3.362   6.983  18.608  0.00  0.00    +0.000 A 
ENDROOT
BRANCH   1   8
ATOM      7  O   UNL     1       1.297   8.847  17.944  0.00  0.00    +0.000 OA
ATOM      8  C   UNL     1       1.451   8.611  19.146  0.00  0.00    +0.000 C 
ATOM      9  N   UNL     1       0.869   9.359  20.191  0.00  0.00    +0.000 N 
ATOM     10  C   UNL     1       0.823   8.844  21.567  0.00  0.00    +0.000 C 
ATOM     11  C   UNL     1      -0.414   9.278  22.327  0.00  0.00    +0.000 C 
ATOM     12  C   UNL     1      -0.402  10.787  22.431  0.00  0.00    +0.000 C 
ATOM     13  C   UNL     1      -0.219  11.417  21.079  0.00  0.00    +0.000 A 
ATOM     14  N   UNL     1      -0.623  12.717  21.015  0.00  0.00    +0.000 NA
ATOM     15  C   UNL     1      -0.534  13.333  19.823  0.00  0.00    +0.000 A 
ATOM     16  C   UNL     1      -0.088  12.703  18.682  0.00  0.00    +0.000 A 
ATOM     17  C   UNL     1       0.350  11.378  18.776  0.00  0.00    +0.000 A 
ATOM     18  C   UNL     1       0.332  10.698  19.999  0.00  0.00    +0.000 A 
ENDBRANCH   1   8
BRANCH   5  19
ATOM     19  S   UNL     1       5.456   5.398  17.832  0.00  0.00    +0.000 S 
ATOM     20  O   UNL     1       5.798   6.657  17.201  0.00  0.00    +0.000 OA
ATOM     21  O   UNL     1       6.416   4.712  18.679  0.00  0.00    +0.000 OA
BRANCH  19  22
ATOM     22  N   UNL     1       4.922   4.298  16.634  0.00  0.00    +0.000 N 
BRANCH  22  23
ATOM     23  C   UNL     1       5.713   4.356  15.423  0.00  0.00    +0.000 A 
ATOM     24  C   UNL     1       5.277   3.801  14.215  0.00  0.00    +0.000 A 
ATOM     25  C   UNL     1       6.031   3.985  13.054  0.00  0.00    +0.000 A 
ATOM     26  C   UNL     1       7.233   4.693  13.104  0.00  0.00    +0.000 A 
ATOM     27  C   UNL     1       7.699   5.190  14.320  0.00  0.00    +0.000 A 
ATOM     28  C   UNL     1       6.948   5.008  15.481  0.00  0.00    +0.000 A 
ENDBRANCH  22  23
BRANCH  22  29
ATOM     29  C   UNL     1       4.606   2.898  17.081  0.00  0.00    +0.000 C 
BRANCH  29  30
ATOM     30  C   UNL     1       3.215   2.774  17.677  0.00  0.00    +0.000 A 
ATOM     31  C   UNL     1       2.164   3.606  17.259  0.00  0.00    +0.000 A 
ATOM     32  C   UNL     1       0.927   3.570  17.904  0.00  0.00    +0.000 A 
ATOM     33  C   UNL     1       0.718   2.687  18.959  0.00  0.00    +0.000 A 
ATOM     34  C   UNL     1       1.730   1.811  19.344  0.00  0.00    +0.000 A 
ATOM     35  C   UNL     1       2.966   1.841  18.695  0.00  0.00    +0.000 A 
ENDBRANCH  29  30
ENDBRANCH  22  29
ENDBRANCH  19  22
ENDBRANCH   5  19
TORSDOF 6
ENDMDL
MODEL 9
REMARK VINA RESULT:      -8.9      2.949      9.921
REMARK  Name = 
REMARK  6 active torsions:
REMARK  status: ('A' for Active; 'I' for Inactive)
REMARK    1  A    between atoms: C_2  and  C_3
REMARK    2  A    between atoms: C_7  and  S_8
REMARK    3  A    between atoms: S_8  and  N_11
REMARK    4  A    between atoms: N_11  and  C_12
REMARK    5  A    between atoms: N_11  and  C_19
REMARK    6  A    between atoms: C_12  and  C_13
REMARK                            x       y       z     vdW  Elec       q    Type
REMARK                         _______ _______ _______ _____ _____    ______ ____
ROOT
ATOM      1  C   UNL     1       1.742   7.970  19.933  0.00  0.00    +0.000 A 
ATOM      2  C   UNL     1       1.543   7.904  21.321  0.00  0.00    +0.000 A 
ATOM      3  C   UNL     1       0.978   8.978  22.011  0.00  0.00    +0.000 A 
ATOM      4  C   UNL     1       0.562  10.116  21.320  0.00  0.00    +0.000 A 
ATOM      5  C   UNL     1       0.659  10.162  19.935  0.00  0.00    +0.000 A 
ATOM      6  C   UNL     1       1.309   9.117  19.251  0.00  0.00    +0.000 A 
ENDROOT
BRANCH   1   8
ATOM      7  O   UNL     1       3.373   7.245  18.472  0.00  0.00    +0.000 OA
ATOM      8  C   UNL     1       2.537   6.863  19.296  0.00  0.00    +0.000 C 
ATOM      9  N   UNL     1       2.322   5.515  19.655  0.00  0.00    +0.000 N 
ATOM     10  C   UNL     1       1.555   5.156  20.856  0.00  0.00    +0.000 C 
ATOM     11  C   UNL     1       2.052   3.891  21.526  0.00  0.00    +0.000 C 
ATOM     12  C   UNL     1       1.892   2.743  20.553  0.00  0.00    +0.000 C 
ATOM     13  C   UNL     1       2.528   3.068  19.231  0.00  0.00    +0.000 A 
ATOM     14  N   UNL     1       2.813   1.974  18.470  0.00  0.00    +0.000 NA
ATOM     15  C   UNL     1       3.428   2.183  17.293  0.00  0.00    +0.000 A 
ATOM     16  C   UNL     1       3.801   3.434  16.851  0.00  0.00    +0.000 A 
ATOM     17  C   UNL     1       3.474   4.546  17.633  0.00  0.00    +0.000 A 
ATOM     18  C   UNL     1       2.787   4.399  18.844  0.00  0.00    +0.000 A 
ENDBRANCH   1   8
BRANCH   5  19
ATOM     19  S   UNL     1       0.043  11.526  18.948  0.00  0.00    +0.000 S 
ATOM     20  O   UNL     1       1.236  12.161  18.427  0.00  0.00    +0.000 OA
ATOM     21  O   UNL     1      -0.942  10.951  18.047  0.00  0.00    +0.000 OA
BRANCH  19  22
ATOM     22  N   UNL     1      -0.764  12.618  19.990  0.00  0.00    +0.000 N 
BRANCH  22  23
ATOM     23  C   UNL     1      -0.139  13.923  20.031  0.00  0.00    +0.000 A 
ATOM     24  C   UNL     1       0.742  14.301  21.050  0.00  0.00    +0.000 A 
ATOM     25  C   UNL     1       1.403  15.530  20.977  0.00  0.00    +0.000 A 
ATOM     26  C   UNL     1       1.160  16.393  19.908  0.00  0.00    +0.000 A 
ATOM     27  C   UNL     1       0.234  16.044  18.926  0.00  0.00    +0.000 A 
ATOM     28  C   UNL     1      -0.426  14.817  18.996  0.00  0.00    +0.000 A 
ENDBRANCH  22  23
BRANCH  22  29
ATOM     29  C   UNL     1      -2.264  12.672  19.899  0.00  0.00    +0.000 C 
BRANCH  29  30
ATOM     30  C   UNL     1      -2.929  12.772  21.261  0.00  0.00    +0.000 A 
ATOM     31  C   UNL     1      -2.340  12.212  22.405  0.00  0.00    +0.000 A 
ATOM     32  C   UNL     1      -3.021  12.199  23.623  0.00  0.00    +0.000 A 
ATOM     33  C   UNL     1      -4.289  12.765  23.718  0.00  0.00    +0.000 A 
ATOM     34  C   UNL     1      -4.860  13.380  22.607  0.00  0.00    +0.000 A 
ATOM     35  C   UNL     1      -4.177  13.401  21.390  0.00  0.00    +0.000 A 
ENDBRANCH  29  30
ENDBRANCH  22  29
ENDBRANCH  19  22
ENDBRANCH   5  19
TORSDOF 6
ENDMDL
