MODEL 1
REMARK VINA RESULT:      -8.7      0.000      0.000
REMARK  Name = 
REMARK  4 active torsions:
REMARK  status: ('A' for Active; 'I' for Inactive)
REMARK    1  A    between atoms: C_1  and  C_2
REMARK    2  A    between atoms: C_7  and  C_8
REMARK    3  A    between atoms: C_12  and  C_13
REMARK    4  A    between atoms: C_15  and  C_16
REMARK                            x       y       z     vdW  Elec       q    Type
REMARK                         _______ _______ _______ _____ _____    ______ ____
ROOT
ATOM      1  C   UNL     1       3.908   5.737  17.129  0.00  0.00    +0.000 A 
ATOM      2  N   UNL     1       3.677   6.982  17.463  0.00  0.00    +0.000 NA
ATOM      3  C   UNL     1       2.565   6.879  18.270  0.00  0.00    +0.000 A 
ATOM      4  N   UNL     1       2.114   5.621  18.412  0.00  0.00    +0.000 NA
ATOM      5  O   UNL     1       3.000   4.862  17.649  0.00  0.00    +0.000 OA
ENDROOT
BRANCH   1  14
ATOM      6  C   UNL     1       6.318   5.353  19.536  0.00  0.00    +0.000 C 
ATOM      7  C   UNL     1       6.847   4.922  18.222  0.00  0.00    +0.000 A 
ATOM      8  N   UNL     1       8.110   4.481  18.157  0.00  0.00    +0.000 NA
ATOM      9  O   UNL     1       8.319   4.141  16.835  0.00  0.00    +0.000 OA
ATOM     10  C   UNL     1       7.197   4.370  16.108  0.00  0.00    +0.000 A 
ATOM     11  N   UNL     1       7.094   4.126  14.797  0.00  0.00    +0.000 NA
ATOM     12  C   UNL     1       5.911   4.409  14.235  0.00  0.00    +0.000 A 
ATOM     13  C   UNL     1       4.834   4.913  14.979  0.00  0.00    +0.000 A 
ATOM     14  C   UNL     1       4.977   5.170  16.340  0.00  0.00    +0.000 A 
ATOM     15  C   UNL     1       6.215   4.881  16.945  0.00  0.00    +0.000 A 
BRANCH  12  16
ATOM     16  C   UNL     1       5.755   4.132  12.756  0.00  0.00    +0.000 C 
ATOM     17  C   UNL     1       5.780   2.693  12.290  0.00  0.00    +0.000 C 
ATOM     18  C   UNL     1       6.897   3.618  11.910  0.00  0.00    +0.000 C 
ENDBRANCH  12  16
ENDBRANCH   1  14
BRANCH   3  19
ATOM     19  C   UNL     1       2.121   8.008  19.084  0.00  0.00    +0.000 A 
ATOM     20  C   UNL     1       1.765   7.767  20.437  0.00  0.00    +0.000 A 
ATOM     21  C   UNL     1       0.874   8.607  21.099  0.00  0.00    +0.000 A 
ATOM     22  C   UNL     1       0.391   9.668  20.372  0.00  0.00    +0.000 A 
ATOM     23  C   UNL     1       0.935  10.066  19.154  0.00  0.00    +0.000 A 
ATOM     24  C   UNL     1       1.799   9.232  18.477  0.00  0.00    +0.000 A 
ATOM     25  C   UNL     1       0.137  11.218  18.666  0.00  0.00    +0.000 C 
ATOM     26  C   UNL     1      -1.171  10.677  19.224  0.00  0.00    +0.000 C 
ATOM     27  O   UNL     1      -0.848  10.248  20.583  0.00  0.00    +0.000 OA
ENDBRANCH   3  19
TORSDOF 3
ENDMDL
MODEL 2
REMARK VINA RESULT:      -8.5      3.155      4.233
REMARK  Name = 
REMARK  4 active torsions:
REMARK  status: ('A' for Active; 'I' for Inactive)
REMARK    1  A    between atoms: C_1  and  C_2
REMARK    2  A    between atoms: C_7  and  C_8
REMARK    3  A    between atoms: C_12  and  C_13
REMARK    4  A    between atoms: C_15  and  C_16
REMARK                            x       y       z     vdW  Elec       q    Type
REMARK                         _______ _______ _______ _____ _____    ______ ____
ROOT
ATOM      1  C   UNL     1       2.579   6.703  19.718  0.00  0.00    +0.000 A 
ATOM      2  N   UNL     1       2.161   7.741  19.038  0.00  0.00    +0.000 NA
ATOM      3  C   UNL     1       1.302   8.359  19.920  0.00  0.00    +0.000 A 
ATOM      4  N   UNL     1       1.177   7.715  21.093  0.00  0.00    +0.000 NA
ATOM      5  O   UNL     1       2.018   6.611  20.958  0.00  0.00    +0.000 OA
ENDROOT
BRANCH   1  14
ATOM      6  C   UNL     1       0.715   3.871  20.222  0.00  0.00    +0.000 C 
ATOM      7  C   UNL     1       2.087   3.502  19.807  0.00  0.00    +0.000 A 
ATOM      8  N   UNL     1       2.394   2.203  19.702  0.00  0.00    +0.000 NA
ATOM      9  O   UNL     1       3.712   2.163  19.291  0.00  0.00    +0.000 OA
ATOM     10  C   UNL     1       4.198   3.420  19.146  0.00  0.00    +0.000 A 
ATOM     11  N   UNL     1       5.444   3.698  18.749  0.00  0.00    +0.000 NA
ATOM     12  C   UNL     1       5.759   4.998  18.657  0.00  0.00    +0.000 A 
ATOM     13  C   UNL     1       4.831   6.011  18.942  0.00  0.00    +0.000 A 
ATOM     14  C   UNL     1       3.545   5.689  19.367  0.00  0.00    +0.000 A 
ATOM     15  C   UNL     1       3.200   4.328  19.472  0.00  0.00    +0.000 A 
BRANCH  12  16
ATOM     16  C   UNL     1       7.156   5.348  18.197  0.00  0.00    +0.000 C 
ATOM     17  C   UNL     1       8.113   5.948  19.203  0.00  0.00    +0.000 C 
ATOM     18  C   UNL     1       7.622   6.779  18.055  0.00  0.00    +0.000 C 
ENDBRANCH  12  16
ENDBRANCH   1  14
BRANCH   3  19
ATOM     19  C   UNL     1       0.814   9.712  19.669  0.00  0.00    +0.000 A 
ATOM     20  C   UNL     1       0.804  10.638  20.745  0.00  0.00    +0.000 A 
ATOM     21  C   UNL     1      -0.084  11.710  20.754  0.00  0.00    +0.000 A 
ATOM     22  C   UNL     1      -0.916  11.814  19.667  0.00  0.00    +0.000 A 
ATOM     23  C   UNL     1      -0.732  11.084  18.495  0.00  0.00    +0.000 A 
ATOM     24  C   UNL     1       0.126  10.005  18.481  0.00  0.00    +0.000 A 
ATOM     25  C   UNL     1      -1.835  11.443  17.570  0.00  0.00    +0.000 C 
ATOM     26  C   UNL     1      -2.858  11.594  18.686  0.00  0.00    +0.000 C 
ATOM     27  O   UNL     1      -2.178  12.383  19.711  0.00  0.00    +0.000 OA
ENDBRANCH   3  19
TORSDOF 3
ENDMDL
MODEL 3
REMARK VINA RESULT:      -8.4      2.203      3.427
REMARK  Name = 
REMARK  4 active torsions:
REMARK  status: ('A' for Active; 'I' for Inactive)
REMARK    1  A    between atoms: C_1  and  C_2
REMARK    2  A    between atoms: C_7  and  C_8
REMARK    3  A    between atoms: C_12  and  C_13
REMARK    4  A    between atoms: C_15  and  C_16
REMARK                            x       y       z     vdW  Elec       q    Type
REMARK                         _______ _______ _______ _____ _____    ______ ____
ROOT
ATOM      1  C   UNL     1       2.428   6.866  18.834  0.00  0.00    +0.000 A 
ATOM      2  N   UNL     1       1.724   7.864  18.359  0.00  0.00    +0.000 NA
ATOM      3  C   UNL     1       1.338   8.534  19.499  0.00  0.00    +0.000 A 
ATOM      4  N   UNL     1       1.768   7.960  20.636  0.00  0.00    +0.000 NA
ATOM      5  O   UNL     1       2.485   6.848  20.196  0.00  0.00    +0.000 OA
ENDROOT
BRANCH   1  14
ATOM      6  C   UNL     1       0.922   4.073  20.128  0.00  0.00    +0.000 C 
ATOM      7  C   UNL     1       2.000   3.675  19.194  0.00  0.00    +0.000 A 
ATOM      8  N   UNL     1       2.229   2.370  19.004  0.00  0.00    +0.000 NA
ATOM      9  O   UNL     1       3.260   2.302  18.087  0.00  0.00    +0.000 OA
ATOM     10  C   UNL     1       3.649   3.549  17.725  0.00  0.00    +0.000 A 
ATOM     11  N   UNL     1       4.623   3.800  16.843  0.00  0.00    +0.000 NA
ATOM     12  C   UNL     1       4.879   5.093  16.598  0.00  0.00    +0.000 A 
ATOM     13  C   UNL     1       4.156   6.125  17.215  0.00  0.00    +0.000 A 
ATOM     14  C   UNL     1       3.158   5.831  18.140  0.00  0.00    +0.000 A 
ATOM     15  C   UNL     1       2.880   4.478  18.410  0.00  0.00    +0.000 A 
BRANCH  12  16
ATOM     16  C   UNL     1       5.964   5.413  15.595  0.00  0.00    +0.000 C 
ATOM     17  C   UNL     1       5.970   4.663  14.281  0.00  0.00    +0.000 C 
ATOM     18  C   UNL     1       7.073   4.439  15.271  0.00  0.00    +0.000 C 
ENDBRANCH  12  16
ENDBRANCH   1  14
BRANCH   3  19
ATOM     19  C   UNL     1       0.756   9.871  19.423  0.00  0.00    +0.000 A 
ATOM     20  C   UNL     1       0.698  10.652  20.607  0.00  0.00    +0.000 A 
ATOM     21  C   UNL     1      -0.260  11.651  20.755  0.00  0.00    +0.000 A 
ATOM     22  C   UNL     1      -1.112  11.833  19.693  0.00  0.00    +0.000 A 
ATOM     23  C   UNL     1      -0.893  11.271  18.438  0.00  0.00    +0.000 A 
ATOM     24  C   UNL     1       0.035  10.263  18.284  0.00  0.00    +0.000 A 
ATOM     25  C   UNL     1      -2.030  11.666  17.570  0.00  0.00    +0.000 C 
ATOM     26  C   UNL     1      -3.046  11.606  18.701  0.00  0.00    +0.000 C 
ATOM     27  O   UNL     1      -2.408  12.305  19.814  0.00  0.00    +0.000 OA
ENDBRANCH   3  19
TORSDOF 3
ENDMDL
MODEL 4
REMARK VINA RESULT:      -8.2      2.369      3.609
REMARK  Name = 
REMARK  4 active torsions:
REMARK  status: ('A' for Active; 'I' for Inactive)
REMARK    1  A    between atoms: C_1  and  C_2
REMARK    2  A    between atoms: C_7  and  C_8
REMARK    3  A    between atoms: C_12  and  C_13
REMARK    4  A    between atoms: C_15  and  C_16
REMARK                            x       y       z     vdW  Elec       q    Type
REMARK                         _______ _______ _______ _____ _____    ______ ____
ROOT
ATOM      1  C   UNL     1       2.432   7.404  18.661  0.00  0.00    +0.000 A 
ATOM      2  N   UNL     1       2.419   7.879  19.881  0.00  0.00    +0.000 NA
ATOM      3  C   UNL     1       1.548   8.942  19.785  0.00  0.00    +0.000 A 
ATOM      4  N   UNL     1       1.057   9.129  18.548  0.00  0.00    +0.000 NA
ATOM      5  O   UNL     1       1.649   8.113  17.799  0.00  0.00    +0.000 OA
ENDROOT
BRANCH   1  14
ATOM      6  C   UNL     1       0.947   4.908  20.480  0.00  0.00    +0.000 C 
ATOM      7  C   UNL     1       1.971   4.332  19.579  0.00  0.00    +0.000 A 
ATOM      8  N   UNL     1       2.169   3.008  19.604  0.00  0.00    +0.000 NA
ATOM      9  O   UNL     1       3.153   2.760  18.666  0.00  0.00    +0.000 OA
ATOM     10  C   UNL     1       3.544   3.918  18.079  0.00  0.00    +0.000 A 
ATOM     11  N   UNL     1       4.477   3.992  17.123  0.00  0.00    +0.000 NA
ATOM     12  C   UNL     1       4.741   5.218  16.651  0.00  0.00    +0.000 A 
ATOM     13  C   UNL     1       4.067   6.357  17.115  0.00  0.00    +0.000 A 
ATOM     14  C   UNL     1       3.111   6.249  18.121  0.00  0.00    +0.000 A 
ATOM     15  C   UNL     1       2.824   4.968  18.630  0.00  0.00    +0.000 A 
BRANCH  12  16
ATOM     16  C   UNL     1       5.781   5.337  15.559  0.00  0.00    +0.000 C 
ATOM     17  C   UNL     1       5.602   4.510  14.305  0.00  0.00    +0.000 C 
ATOM     18  C   UNL     1       6.740   4.214  15.235  0.00  0.00    +0.000 C 
ENDBRANCH  12  16
ENDBRANCH   1  14
BRANCH   3  19
ATOM     19  C   UNL     1       1.029   9.598  20.983  0.00  0.00    +0.000 A 
ATOM     20  C   UNL     1       0.426   8.794  21.986  0.00  0.00    +0.000 A 
ATOM     21  C   UNL     1      -0.520   9.331  22.854  0.00  0.00    +0.000 A 
ATOM     22  C   UNL     1      -0.809  10.663  22.684  0.00  0.00    +0.000 A 
ATOM     23  C   UNL     1      -0.037  11.514  21.899  0.00  0.00    +0.000 A 
ATOM     24  C   UNL     1       0.886  10.994  21.017  0.00  0.00    +0.000 A 
ATOM     25  C   UNL     1      -0.673  12.855  21.938  0.00  0.00    +0.000 C 
ATOM     26  C   UNL     1      -2.086  12.294  21.988  0.00  0.00    +0.000 C 
ATOM     27  O   UNL     1      -2.033  11.233  22.991  0.00  0.00    +0.000 OA
ENDBRANCH   3  19
TORSDOF 3
ENDMDL
MODEL 5
REMARK VINA RESULT:      -8.2      3.210      4.329
REMARK  Name = 
REMARK  4 active torsions:
REMARK  status: ('A' for Active; 'I' for Inactive)
REMARK    1  A    between atoms: C_1  and  C_2
REMARK    2  A    between atoms: C_7  and  C_8
REMARK    3  A    between atoms: C_12  and  C_13
REMARK    4  A    between atoms: C_15  and  C_16
REMARK                            x       y       z     vdW  Elec       q    Type
REMARK                         _______ _______ _______ _____ _____    ______ ____
ROOT
ATOM      1  C   UNL     1       2.627   6.913  19.360  0.00  0.00    +0.000 A 
ATOM      2  N   UNL     1       2.165   7.764  18.478  0.00  0.00    +0.000 NA
ATOM      3  C   UNL     1       1.345   8.572  19.235  0.00  0.00    +0.000 A 
ATOM      4  N   UNL     1       1.286   8.221  20.531  0.00  0.00    +0.000 NA
ATOM      5  O   UNL     1       2.131   7.115  20.614  0.00  0.00    +0.000 OA
ENDROOT
BRANCH   1  14
ATOM      6  C   UNL     1       0.711   4.227  20.289  0.00  0.00    +0.000 C 
ATOM      7  C   UNL     1       2.086   3.778  19.974  0.00  0.00    +0.000 A 
ATOM      8  N   UNL     1       2.376   2.477  20.095  0.00  0.00    +0.000 NA
ATOM      9  O   UNL     1       3.701   2.353  19.726  0.00  0.00    +0.000 OA
ATOM     10  C   UNL     1       4.208   3.562  19.383  0.00  0.00    +0.000 A 
ATOM     11  N   UNL     1       5.466   3.755  18.973  0.00  0.00    +0.000 NA
ATOM     12  C   UNL     1       5.802   5.018  18.672  0.00  0.00    +0.000 A 
ATOM     13  C   UNL     1       4.884   6.075  18.761  0.00  0.00    +0.000 A 
ATOM     14  C   UNL     1       3.585   5.843  19.206  0.00  0.00    +0.000 A 
ATOM     15  C   UNL     1       3.218   4.523  19.529  0.00  0.00    +0.000 A 
BRANCH  12  16
ATOM     16  C   UNL     1       7.214   5.269  18.191  0.00  0.00    +0.000 C 
ATOM     17  C   UNL     1       8.165   6.003  19.111  0.00  0.00    +0.000 C 
ATOM     18  C   UNL     1       7.709   6.654  17.839  0.00  0.00    +0.000 C 
ENDBRANCH  12  16
ENDBRANCH   1  14
BRANCH   3  19
ATOM     19  C   UNL     1       0.830   9.830  18.701  0.00  0.00    +0.000 A 
ATOM     20  C   UNL     1       1.713  10.938  18.611  0.00  0.00    +0.000 A 
ATOM     21  C   UNL     1       1.224  12.241  18.627  0.00  0.00    +0.000 A 
ATOM     22  C   UNL     1      -0.140  12.373  18.718  0.00  0.00    +0.000 A 
ATOM     23  C   UNL     1      -1.021  11.311  18.532  0.00  0.00    +0.000 A 
ATOM     24  C   UNL     1      -0.552  10.015  18.539  0.00  0.00    +0.000 A 
ATOM     25  C   UNL     1      -2.396  11.833  18.734  0.00  0.00    +0.000 C 
ATOM     26  C   UNL     1      -1.974  12.807  19.825  0.00  0.00    +0.000 C 
ATOM     27  O   UNL     1      -0.774  13.456  19.303  0.00  0.00    +0.000 OA
ENDBRANCH   3  19
TORSDOF 3
ENDMDL
MODEL 6
REMARK VINA RESULT:      -8.2      2.299      3.569
REMARK  Name = 
REMARK  4 active torsions:
REMARK  status: ('A' for Active; 'I' for Inactive)
REMARK    1  A    between atoms: C_1  and  C_2
REMARK    2  A    between atoms: C_7  and  C_8
REMARK    3  A    between atoms: C_12  and  C_13
REMARK    4  A    between atoms: C_15  and  C_16
REMARK                            x       y       z     vdW  Elec       q    Type
REMARK                         _______ _______ _______ _____ _____    ______ ____
ROOT
ATOM      1  C   UNL     1       2.604   6.551  18.658  0.00  0.00    +0.000 A 
ATOM      2  N   UNL     1       2.012   7.561  18.070  0.00  0.00    +0.000 NA
ATOM      3  C   UNL     1       1.621   8.346  19.132  0.00  0.00    +0.000 A 
ATOM      4  N   UNL     1       1.941   7.832  20.332  0.00  0.00    +0.000 NA
ATOM      5  O   UNL     1       2.587   6.636  20.019  0.00  0.00    +0.000 OA
ENDROOT
BRANCH   1  14
ATOM      6  C   UNL     1       0.830   3.994  20.092  0.00  0.00    +0.000 C 
ATOM      7  C   UNL     1       1.915   3.442  19.250  0.00  0.00    +0.000 A 
ATOM      8  N   UNL     1       2.051   2.112  19.176  0.00  0.00    +0.000 NA
ATOM      9  O   UNL     1       3.114   1.892  18.323  0.00  0.00    +0.000 OA
ATOM     10  C   UNL     1       3.615   3.072  17.882  0.00  0.00    +0.000 A 
ATOM     11  N   UNL     1       4.644   3.177  17.034  0.00  0.00    +0.000 NA
ATOM     12  C   UNL     1       5.010   4.423  16.701  0.00  0.00    +0.000 A 
ATOM     13  C   UNL     1       4.342   5.553  17.195  0.00  0.00    +0.000 A 
ATOM     14  C   UNL     1       3.283   5.411  18.088  0.00  0.00    +0.000 A 
ATOM     15  C   UNL     1       2.889   4.109  18.451  0.00  0.00    +0.000 A 
BRANCH  12  16
ATOM     16  C   UNL     1       6.161   4.578  15.733  0.00  0.00    +0.000 C 
ATOM     17  C   UNL     1       5.892   5.234  14.397  0.00  0.00    +0.000 C 
ATOM     18  C   UNL     1       6.249   3.779  14.453  0.00  0.00    +0.000 C 
ENDBRANCH  12  16
ENDBRANCH   1  14
BRANCH   3  19
ATOM     19  C   UNL     1       1.157   9.715  18.922  0.00  0.00    +0.000 A 
ATOM     20  C   UNL     1       2.009  10.620  18.237  0.00  0.00    +0.000 A 
ATOM     21  C   UNL     1       1.904  11.993  18.447  0.00  0.00    +0.000 A 
ATOM     22  C   UNL     1       0.933  12.397  19.329  0.00  0.00    +0.000 A 
ATOM     23  C   UNL     1      -0.075  11.553  19.789  0.00  0.00    +0.000 A 
ATOM     24  C   UNL     1       0.029  10.190  19.610  0.00  0.00    +0.000 A 
ATOM     25  C   UNL     1      -0.910  12.333  20.737  0.00  0.00    +0.000 C 
ATOM     26  C   UNL     1       0.269  13.127  21.279  0.00  0.00    +0.000 C 
ATOM     27  O   UNL     1       1.014  13.547  20.095  0.00  0.00    +0.000 OA
ENDBRANCH   3  19
TORSDOF 3
ENDMDL
MODEL 7
REMARK VINA RESULT:      -8.1      3.232      4.412
REMARK  Name = 
REMARK  4 active torsions:
REMARK  status: ('A' for Active; 'I' for Inactive)
REMARK    1  A    between atoms: C_1  and  C_2
REMARK    2  A    between atoms: C_7  and  C_8
REMARK    3  A    between atoms: C_12  and  C_13
REMARK    4  A    between atoms: C_15  and  C_16
REMARK                            x       y       z     vdW  Elec       q    Type
REMARK                         _______ _______ _______ _____ _____    ______ ____
ROOT
ATOM      1  C   UNL     1       2.583   6.712  19.664  0.00  0.00    +0.000 A 
ATOM      2  N   UNL     1       2.161   7.717  18.938  0.00  0.00    +0.000 NA
ATOM      3  C   UNL     1       1.308   8.376  19.797  0.00  0.00    +0.000 A 
ATOM      4  N   UNL     1       1.191   7.789  21.000  0.00  0.00    +0.000 NA
ATOM      5  O   UNL     1       2.031   6.679  20.911  0.00  0.00    +0.000 OA
ENDROOT
BRANCH   1  14
ATOM      6  C   UNL     1       0.687   3.908  20.203  0.00  0.00    +0.000 C 
ATOM      7  C   UNL     1       2.063   3.518  19.821  0.00  0.00    +0.000 A 
ATOM      8  N   UNL     1       2.360   2.214  19.753  0.00  0.00    +0.000 NA
ATOM      9  O   UNL     1       3.684   2.153  19.365  0.00  0.00    +0.000 OA
ATOM     10  C   UNL     1       4.183   3.403  19.198  0.00  0.00    +0.000 A 
ATOM     11  N   UNL     1       5.438   3.661  18.816  0.00  0.00    +0.000 NA
ATOM     12  C   UNL     1       5.765   4.955  18.698  0.00  0.00    +0.000 A 
ATOM     13  C   UNL     1       4.842   5.982  18.943  0.00  0.00    +0.000 A 
ATOM     14  C   UNL     1       3.546   5.682  19.353  0.00  0.00    +0.000 A 
ATOM     15  C   UNL     1       3.188   4.326  19.485  0.00  0.00    +0.000 A 
BRANCH  12  16
ATOM     16  C   UNL     1       7.173   5.282  18.254  0.00  0.00    +0.000 C 
ATOM     17  C   UNL     1       8.125   5.879  19.267  0.00  0.00    +0.000 C 
ATOM     18  C   UNL     1       7.660   6.706  18.106  0.00  0.00    +0.000 C 
ENDBRANCH  12  16
ENDBRANCH   1  14
BRANCH   3  19
ATOM     19  C   UNL     1       0.819   9.717  19.486  0.00  0.00    +0.000 A 
ATOM     20  C   UNL     1       1.557  10.510  18.569  0.00  0.00    +0.000 A 
ATOM     21  C   UNL     1       1.487  11.900  18.614  0.00  0.00    +0.000 A 
ATOM     22  C   UNL     1       0.663  12.433  19.574  0.00  0.00    +0.000 A 
ATOM     23  C   UNL     1      -0.262  11.676  20.287  0.00  0.00    +0.000 A 
ATOM     24  C   UNL     1      -0.189  10.299  20.271  0.00  0.00    +0.000 A 
ATOM     25  C   UNL     1      -0.941  12.587  21.243  0.00  0.00    +0.000 C 
ATOM     26  C   UNL     1       0.309  13.418  21.493  0.00  0.00    +0.000 C 
ATOM     27  O   UNL     1       0.863  13.669  20.164  0.00  0.00    +0.000 OA
ENDBRANCH   3  19
TORSDOF 3
ENDMDL
MODEL 8
REMARK VINA RESULT:      -8.1      2.180      3.725
REMARK  Name = 
REMARK  4 active torsions:
REMARK  status: ('A' for Active; 'I' for Inactive)
REMARK    1  A    between atoms: C_1  and  C_2
REMARK    2  A    between atoms: C_7  and  C_8
REMARK    3  A    between atoms: C_12  and  C_13
REMARK    4  A    between atoms: C_15  and  C_16
REMARK                            x       y       z     vdW  Elec       q    Type
REMARK                         _______ _______ _______ _____ _____    ______ ____
ROOT
ATOM      1  C   UNL     1       2.624   7.867  18.213  0.00  0.00    +0.000 A 
ATOM      2  N   UNL     1       1.800   8.177  19.182  0.00  0.00    +0.000 NA
ATOM      3  C   UNL     1       1.273   9.379  18.763  0.00  0.00    +0.000 A 
ATOM      4  N   UNL     1       1.769   9.807  17.589  0.00  0.00    +0.000 NA
ATOM      5  O   UNL     1       2.672   8.808  17.226  0.00  0.00    +0.000 OA
ENDROOT
BRANCH   1  14
ATOM      6  C   UNL     1       1.475   5.909  20.779  0.00  0.00    +0.000 C 
ATOM      7  C   UNL     1       2.560   5.205  20.057  0.00  0.00    +0.000 A 
ATOM      8  N   UNL     1       2.924   3.989  20.482  0.00  0.00    +0.000 NA
ATOM      9  O   UNL     1       3.926   3.579  19.625  0.00  0.00    +0.000 OA
ATOM     10  C   UNL     1       4.165   4.532  18.691  0.00  0.00    +0.000 A 
ATOM     11  N   UNL     1       5.076   4.414  17.720  0.00  0.00    +0.000 NA
ATOM     12  C   UNL     1       5.181   5.453  16.879  0.00  0.00    +0.000 A 
ATOM     13  C   UNL     1       4.371   6.591  16.997  0.00  0.00    +0.000 A 
ATOM     14  C   UNL     1       3.441   6.690  18.028  0.00  0.00    +0.000 A 
ATOM     15  C   UNL     1       3.321   5.609  18.921  0.00  0.00    +0.000 A 
BRANCH  12  16
ATOM     16  C   UNL     1       6.193   5.346  15.759  0.00  0.00    +0.000 C 
ATOM     17  C   UNL     1       5.745   4.752  14.442  0.00  0.00    +0.000 C 
ATOM     18  C   UNL     1       6.738   4.017  15.291  0.00  0.00    +0.000 C 
ENDBRANCH  12  16
ENDBRANCH   1  14
BRANCH   3  19
ATOM     19  C   UNL     1       0.104   9.956  19.419  0.00  0.00    +0.000 A 
ATOM     20  C   UNL     1      -0.774  10.763  18.649  0.00  0.00    +0.000 A 
ATOM     21  C   UNL     1      -1.562  11.737  19.256  0.00  0.00    +0.000 A 
ATOM     22  C   UNL     1      -1.443  11.847  20.619  0.00  0.00    +0.000 A 
ATOM     23  C   UNL     1      -0.802  10.894  21.406  0.00  0.00    +0.000 A 
ATOM     24  C   UNL     1       0.001   9.939  20.820  0.00  0.00    +0.000 A 
ATOM     25  C   UNL     1      -0.853  11.370  22.811  0.00  0.00    +0.000 C 
ATOM     26  C   UNL     1      -0.709  12.835  22.426  0.00  0.00    +0.000 C 
ATOM     27  O   UNL     1      -1.645  13.024  21.320  0.00  0.00    +0.000 OA
ENDBRANCH   3  19
TORSDOF 3
ENDMDL
MODEL 9
REMARK VINA RESULT:      -8.1      2.853      3.933
REMARK  Name = 
REMARK  4 active torsions:
REMARK  status: ('A' for Active; 'I' for Inactive)
REMARK    1  A    between atoms: C_1  and  C_2
REMARK    2  A    between atoms: C_7  and  C_8
REMARK    3  A    between atoms: C_12  and  C_13
REMARK    4  A    between atoms: C_15  and  C_16
REMARK                            x       y       z     vdW  Elec       q    Type
REMARK                         _______ _______ _______ _____ _____    ______ ____
ROOT
ATOM      1  C   UNL     1       2.560   6.419  19.646  0.00  0.00    +0.000 A 
ATOM      2  N   UNL     1       2.171   7.639  19.368  0.00  0.00    +0.000 NA
ATOM      3  C   UNL     1       1.329   7.937  20.417  0.00  0.00    +0.000 A 
ATOM      4  N   UNL     1       1.187   6.933  21.299  0.00  0.00    +0.000 NA
ATOM      5  O   UNL     1       1.997   5.921  20.784  0.00  0.00    +0.000 OA
ENDROOT
BRANCH   1  14
ATOM      6  C   UNL     1       0.693   3.560  19.358  0.00  0.00    +0.000 C 
ATOM      7  C   UNL     1       2.040   3.340  18.786  0.00  0.00    +0.000 A 
ATOM      8  N   UNL     1       2.328   2.135  18.278  0.00  0.00    +0.000 NA
ATOM      9  O   UNL     1       3.624   2.226  17.811  0.00  0.00    +0.000 OA
ATOM     10  C   UNL     1       4.116   3.471  18.030  0.00  0.00    +0.000 A 
ATOM     11  N   UNL     1       5.345   3.861  17.676  0.00  0.00    +0.000 NA
ATOM     12  C   UNL     1       5.668   5.129  17.967  0.00  0.00    +0.000 A 
ATOM     13  C   UNL     1       4.766   6.004  18.589  0.00  0.00    +0.000 A 
ATOM     14  C   UNL     1       3.498   5.563  18.958  0.00  0.00    +0.000 A 
ATOM     15  C   UNL     1       3.144   4.233  18.663  0.00  0.00    +0.000 A 
BRANCH  12  16
ATOM     16  C   UNL     1       7.046   5.608  17.568  0.00  0.00    +0.000 C 
ATOM     17  C   UNL     1       8.002   6.034  18.661  0.00  0.00    +0.000 C 
ATOM     18  C   UNL     1       7.466   7.054  17.702  0.00  0.00    +0.000 C 
ENDBRANCH  12  16
ENDBRANCH   1  14
BRANCH   3  19
ATOM     19  C   UNL     1       0.878   9.306  20.651  0.00  0.00    +0.000 A 
ATOM     20  C   UNL     1       0.343   9.633  21.925  0.00  0.00    +0.000 A 
ATOM     21  C   UNL     1      -0.554  10.688  22.070  0.00  0.00    +0.000 A 
ATOM     22  C   UNL     1      -0.864  11.380  20.925  0.00  0.00    +0.000 A 
ATOM     23  C   UNL     1      -0.147  11.247  19.739  0.00  0.00    +0.000 A 
ATOM     24  C   UNL     1       0.726  10.193  19.573  0.00  0.00    +0.000 A 
ATOM     25  C   UNL     1      -0.791  12.125  18.730  0.00  0.00    +0.000 C 
ATOM     26  C   UNL     1      -2.194  11.881  19.265  0.00  0.00    +0.000 C 
ATOM     27  O   UNL     1      -2.072  12.023  20.714  0.00  0.00    +0.000 OA
ENDBRANCH   3  19
TORSDOF 3
ENDMDL
