MODEL 1
REMARK VINA RESULT:      -7.8      0.000      0.000
REMARK  Name = 
REMARK  4 active torsions:
REMARK  status: ('A' for Active; 'I' for Inactive)
REMARK    1  A    between atoms: C_1  and  C_2
REMARK    2  A    between atoms: C_5  and  C_6
REMARK    3  A    between atoms: C_12  and  C_14
REMARK    4  A    between atoms: C_22  and  C_23
REMARK                            x       y       z     vdW  Elec       q    Type
REMARK                         _______ _______ _______ _____ _____    ______ ____
ROOT
ATOM      1  C   UNL     1       0.049  12.550  18.571  0.00  0.00    +0.000 C 
ATOM      2  C   UNL     1       1.402  13.095  19.004  0.00  0.00    +0.000 C 
ATOM      3  C   UNL     1       1.121  11.626  19.134  0.00  0.00    +0.000 C 
ATOM      4  C   UNL     1       1.864  10.736  18.164  0.00  0.00    +0.000 C 
ATOM      5  C   UNL     1       1.293   9.321  18.165  0.00  0.00    +0.000 C 
ATOM      6  N   UNL     1       1.256   8.768  19.518  0.00  0.00    +0.000 N 
ATOM      7  C   UNL     1       1.860   7.576  19.937  0.00  0.00    +0.000 C 
ATOM      8  O   UNL     1       1.783   7.222  21.133  0.00  0.00    +0.000 OA
ATOM      9  C   UNL     1       0.459   9.573  20.445  0.00  0.00    +0.000 C 
ATOM     10  C   UNL     1       1.004  11.007  20.524  0.00  0.00    +0.000 C 
ENDROOT
BRANCH   7  11
ATOM     11  C   UNL     1       2.596   6.773  18.968  0.00  0.00    +0.000 A 
ATOM     12  O   UNL     1       3.502   7.392  18.137  0.00  0.00    +0.000 OA
ATOM     13  C   UNL     1       4.092   6.456  17.361  0.00  0.00    +0.000 A 
ATOM     14  C   UNL     1       5.083   6.690  16.410  0.00  0.00    +0.000 A 
ATOM     15  C   UNL     1       5.538   5.570  15.706  0.00  0.00    +0.000 A 
ATOM     16  C   UNL     1       5.026   4.295  15.955  0.00  0.00    +0.000 A 
ATOM     17  C   UNL     1       4.023   4.107  16.915  0.00  0.00    +0.000 A 
ATOM     18  C   UNL     1       3.543   5.216  17.623  0.00  0.00    +0.000 A 
ATOM     19  C   UNL     1       2.530   5.428  18.608  0.00  0.00    +0.000 A 
ATOM     20  C   UNL     1       1.625   4.377  19.123  0.00  0.00    +0.000 C 
ENDBRANCH   7  11
BRANCH   1  25
ATOM     21  C   UNL     1      -4.404  12.539  20.633  0.00  0.00    +0.000 C 
ATOM     22  C   UNL     1      -3.064  13.037  20.294  0.00  0.00    +0.000 A 
ATOM     23  N   UNL     1      -2.409  14.084  20.749  0.00  0.00    +0.000 NA
ATOM     24  N   UNL     1      -1.161  14.037  20.168  0.00  0.00    +0.000 NA
ATOM     25  C   UNL     1      -1.149  12.978  19.387  0.00  0.00    +0.000 A 
ATOM     26  O   UNL     1      -2.336  12.293  19.418  0.00  0.00    +0.000 OA
ENDBRANCH   1  25
TORSDOF 2
ENDMDL
MODEL 2
REMARK VINA RESULT:      -7.3      2.070      3.223
REMARK  Name = 
REMARK  4 active torsions:
REMARK  status: ('A' for Active; 'I' for Inactive)
REMARK    1  A    between atoms: C_1  and  C_2
REMARK    2  A    between atoms: C_5  and  C_6
REMARK    3  A    between atoms: C_12  and  C_14
REMARK    4  A    between atoms: C_22  and  C_23
REMARK                            x       y       z     vdW  Elec       q    Type
REMARK                         _______ _______ _______ _____ _____    ______ ____
ROOT
ATOM      1  C   UNL     1      -2.829  12.453  20.247  0.00  0.00    +0.000 C 
ATOM      2  C   UNL     1      -1.775  13.332  19.591  0.00  0.00    +0.000 C 
ATOM      3  C   UNL     1      -1.358  12.065  20.279  0.00  0.00    +0.000 C 
ATOM      4  C   UNL     1      -0.903  10.950  19.365  0.00  0.00    +0.000 C 
ATOM      5  C   UNL     1      -0.795   9.627  20.118  0.00  0.00    +0.000 C 
ATOM      6  N   UNL     1       0.052   9.762  21.302  0.00  0.00    +0.000 N 
ATOM      7  C   UNL     1       1.194   9.003  21.587  0.00  0.00    +0.000 C 
ATOM      8  O   UNL     1       1.856   9.233  22.622  0.00  0.00    +0.000 OA
ATOM      9  C   UNL     1      -0.432  10.774  22.241  0.00  0.00    +0.000 C 
ATOM     10  C   UNL     1      -0.528  12.146  21.558  0.00  0.00    +0.000 C 
ENDROOT
BRANCH   7  11
ATOM     11  C   UNL     1       1.609   7.964  20.653  0.00  0.00    +0.000 A 
ATOM     12  O   UNL     1       1.697   6.663  21.097  0.00  0.00    +0.000 OA
ATOM     13  C   UNL     1       2.054   5.872  20.060  0.00  0.00    +0.000 A 
ATOM     14  C   UNL     1       2.219   4.490  20.107  0.00  0.00    +0.000 A 
ATOM     15  C   UNL     1       2.612   3.877  18.912  0.00  0.00    +0.000 A 
ATOM     16  C   UNL     1       2.816   4.615  17.745  0.00  0.00    +0.000 A 
ATOM     17  C   UNL     1       2.646   6.006  17.746  0.00  0.00    +0.000 A 
ATOM     18  C   UNL     1       2.266   6.644  18.934  0.00  0.00    +0.000 A 
ATOM     19  C   UNL     1       2.049   7.999  19.331  0.00  0.00    +0.000 A 
ATOM     20  C   UNL     1       2.250   9.174  18.456  0.00  0.00    +0.000 C 
ENDBRANCH   7  11
BRANCH   1  25
ATOM     21  C   UNL     1      -5.059  12.749  24.609  0.00  0.00    +0.000 C 
ATOM     22  C   UNL     1      -4.516  13.214  23.326  0.00  0.00    +0.000 A 
ATOM     23  N   UNL     1      -4.383  14.435  22.855  0.00  0.00    +0.000 NA
ATOM     24  N   UNL     1      -3.734  14.312  21.646  0.00  0.00    +0.000 NA
ATOM     25  C   UNL     1      -3.533  13.024  21.457  0.00  0.00    +0.000 A 
ATOM     26  O   UNL     1      -4.012  12.264  22.492  0.00  0.00    +0.000 OA
ENDBRANCH   1  25
TORSDOF 2
ENDMDL
MODEL 3
REMARK VINA RESULT:      -7.2      2.722      3.704
REMARK  Name = 
REMARK  4 active torsions:
REMARK  status: ('A' for Active; 'I' for Inactive)
REMARK    1  A    between atoms: C_1  and  C_2
REMARK    2  A    between atoms: C_5  and  C_6
REMARK    3  A    between atoms: C_12  and  C_14
REMARK    4  A    between atoms: C_22  and  C_23
REMARK                            x       y       z     vdW  Elec       q    Type
REMARK                         _______ _______ _______ _____ _____    ______ ____
ROOT
ATOM      1  C   UNL     1      -4.253  10.821  17.037  0.00  0.00    +0.000 C 
ATOM      2  C   UNL     1      -3.605  11.194  15.711  0.00  0.00    +0.000 C 
ATOM      3  C   UNL     1      -2.741  10.954  16.915  0.00  0.00    +0.000 C 
ATOM      4  C   UNL     1      -1.922   9.683  16.881  0.00  0.00    +0.000 C 
ATOM      5  C   UNL     1      -1.325   9.375  18.251  0.00  0.00    +0.000 C 
ATOM      6  N   UNL     1      -0.568  10.516  18.765  0.00  0.00    +0.000 N 
ATOM      7  C   UNL     1       0.778  10.503  19.154  0.00  0.00    +0.000 C 
ATOM      8  O   UNL     1       1.325  11.554  19.550  0.00  0.00    +0.000 OA
ATOM      9  C   UNL     1      -1.375  11.730  18.891  0.00  0.00    +0.000 C 
ATOM     10  C   UNL     1      -1.980  12.122  17.534  0.00  0.00    +0.000 C 
ENDROOT
BRANCH   7  11
ATOM     11  C   UNL     1       1.531   9.258  19.068  0.00  0.00    +0.000 A 
ATOM     12  O   UNL     1       2.214   8.969  17.907  0.00  0.00    +0.000 OA
ATOM     13  C   UNL     1       2.870   7.799  18.068  0.00  0.00    +0.000 A 
ATOM     14  C   UNL     1       3.691   7.186  17.124  0.00  0.00    +0.000 A 
ATOM     15  C   UNL     1       4.256   5.963  17.500  0.00  0.00    +0.000 A 
ATOM     16  C   UNL     1       4.010   5.401  18.754  0.00  0.00    +0.000 A 
ATOM     17  C   UNL     1       3.170   6.047  19.670  0.00  0.00    +0.000 A 
ATOM     18  C   UNL     1       2.583   7.267  19.311  0.00  0.00    +0.000 A 
ATOM     19  C   UNL     1       1.665   8.171  19.929  0.00  0.00    +0.000 A 
ATOM     20  C   UNL     1       1.026   7.949  21.244  0.00  0.00    +0.000 C 
ENDBRANCH   7  11
BRANCH   1  25
ATOM     21  C   UNL     1      -6.217  13.695  20.497  0.00  0.00    +0.000 C 
ATOM     22  C   UNL     1      -5.993  13.143  19.154  0.00  0.00    +0.000 A 
ATOM     23  N   UNL     1      -6.453  13.541  17.987  0.00  0.00    +0.000 NA
ATOM     24  N   UNL     1      -5.861  12.730  17.044  0.00  0.00    +0.000 NA
ATOM     25  C   UNL     1      -5.098  11.883  17.703  0.00  0.00    +0.000 A 
ATOM     26  O   UNL     1      -5.138  12.089  19.057  0.00  0.00    +0.000 OA
ENDBRANCH   1  25
TORSDOF 2
ENDMDL
MODEL 4
REMARK VINA RESULT:      -7.2      4.355      7.499
REMARK  Name = 
REMARK  4 active torsions:
REMARK  status: ('A' for Active; 'I' for Inactive)
REMARK    1  A    between atoms: C_1  and  C_2
REMARK    2  A    between atoms: C_5  and  C_6
REMARK    3  A    between atoms: C_12  and  C_14
REMARK    4  A    between atoms: C_22  and  C_23
REMARK                            x       y       z     vdW  Elec       q    Type
REMARK                         _______ _______ _______ _____ _____    ______ ____
ROOT
ATOM      1  C   UNL     1       4.308  15.938  18.330  0.00  0.00    +0.000 C 
ATOM      2  C   UNL     1       5.192  14.717  18.119  0.00  0.00    +0.000 C 
ATOM      3  C   UNL     1       3.849  14.554  18.769  0.00  0.00    +0.000 C 
ATOM      4  C   UNL     1       2.802  13.859  17.929  0.00  0.00    +0.000 C 
ATOM      5  C   UNL     1       1.413  14.012  18.541  0.00  0.00    +0.000 C 
ATOM      6  N   UNL     1       1.398  13.568  19.934  0.00  0.00    +0.000 N 
ATOM      7  C   UNL     1       0.563  12.583  20.476  0.00  0.00    +0.000 C 
ATOM      8  O   UNL     1       0.666  12.268  21.681  0.00  0.00    +0.000 OA
ATOM      9  C   UNL     1       2.342  14.300  20.779  0.00  0.00    +0.000 C 
ATOM     10  C   UNL     1       3.774  14.158  20.241  0.00  0.00    +0.000 C 
ENDROOT
BRANCH   7  11
ATOM     11  C   UNL     1      -0.405  11.918  19.613  0.00  0.00    +0.000 A 
ATOM     12  O   UNL     1      -1.725  12.309  19.664  0.00  0.00    +0.000 OA
ATOM     13  C   UNL     1      -2.426  11.595  18.756  0.00  0.00    +0.000 A 
ATOM     14  C   UNL     1      -3.788  11.721  18.492  0.00  0.00    +0.000 A 
ATOM     15  C   UNL     1      -4.310  10.862  17.519  0.00  0.00    +0.000 A 
ATOM     16  C   UNL     1      -3.502   9.939  16.852  0.00  0.00    +0.000 A 
ATOM     17  C   UNL     1      -2.138   9.839  17.156  0.00  0.00    +0.000 A 
ATOM     18  C   UNL     1      -1.596  10.681  18.135  0.00  0.00    +0.000 A 
ATOM     19  C   UNL     1      -0.309  10.839  18.736  0.00  0.00    +0.000 A 
ATOM     20  C   UNL     1       0.870  10.000  18.430  0.00  0.00    +0.000 C 
ENDBRANCH   7  11
BRANCH   1  25
ATOM     21  C   UNL     1       7.321  18.630  21.115  0.00  0.00    +0.000 C 
ATOM     22  C   UNL     1       6.048  18.155  20.556  0.00  0.00    +0.000 A 
ATOM     23  N   UNL     1       4.829  18.628  20.703  0.00  0.00    +0.000 NA
ATOM     24  N   UNL     1       4.021  17.865  19.889  0.00  0.00    +0.000 NA
ATOM     25  C   UNL     1       4.800  16.970  19.318  0.00  0.00    +0.000 A 
ATOM     26  O   UNL     1       6.109  17.097  19.702  0.00  0.00    +0.000 OA
ENDBRANCH   1  25
TORSDOF 2
ENDMDL
MODEL 5
REMARK VINA RESULT:      -7.0      2.131      2.997
REMARK  Name = 
REMARK  4 active torsions:
REMARK  status: ('A' for Active; 'I' for Inactive)
REMARK    1  A    between atoms: C_1  and  C_2
REMARK    2  A    between atoms: C_5  and  C_6
REMARK    3  A    between atoms: C_12  and  C_14
REMARK    4  A    between atoms: C_22  and  C_23
REMARK                            x       y       z     vdW  Elec       q    Type
REMARK                         _______ _______ _______ _____ _____    ______ ____
ROOT
ATOM      1  C   UNL     1      -2.266  12.330  19.400  0.00  0.00    +0.000 C 
ATOM      2  C   UNL     1      -1.112  12.985  18.654  0.00  0.00    +0.000 C 
ATOM      3  C   UNL     1      -0.849  11.785  19.517  0.00  0.00    +0.000 C 
ATOM      4  C   UNL     1      -0.520  10.510  18.773  0.00  0.00    +0.000 C 
ATOM      5  C   UNL     1      -0.572   9.300  19.701  0.00  0.00    +0.000 C 
ATOM      6  N   UNL     1       0.278   9.499  20.875  0.00  0.00    +0.000 N 
ATOM      7  C   UNL     1       1.323   8.662  21.286  0.00  0.00    +0.000 C 
ATOM      8  O   UNL     1       2.000   8.956  22.294  0.00  0.00    +0.000 OA
ATOM      9  C   UNL     1      -0.091  10.680  21.657  0.00  0.00    +0.000 C 
ATOM     10  C   UNL     1      -0.024  11.947  20.791  0.00  0.00    +0.000 C 
ENDROOT
BRANCH   7  11
ATOM     11  C   UNL     1       1.621   7.464  20.512  0.00  0.00    +0.000 A 
ATOM     12  O   UNL     1       1.446   6.229  21.097  0.00  0.00    +0.000 OA
ATOM     13  C   UNL     1       1.737   5.272  20.189  0.00  0.00    +0.000 A 
ATOM     14  C   UNL     1       1.656   3.897  20.396  0.00  0.00    +0.000 A 
ATOM     15  C   UNL     1       2.026   3.088  19.317  0.00  0.00    +0.000 A 
ATOM     16  C   UNL     1       2.444   3.637  18.104  0.00  0.00    +0.000 A 
ATOM     17  C   UNL     1       2.521   5.026  17.941  0.00  0.00    +0.000 A 
ATOM     18  C   UNL     1       2.167   5.856  19.012  0.00  0.00    +0.000 A 
ATOM     19  C   UNL     1       2.160   7.266  19.242  0.00  0.00    +0.000 A 
ATOM     20  C   UNL     1       2.630   8.278  18.270  0.00  0.00    +0.000 C 
ENDBRANCH   7  11
BRANCH   1  25
ATOM     21  C   UNL     1      -3.512  16.130  22.244  0.00  0.00    +0.000 C 
ATOM     22  C   UNL     1      -3.470  14.737  21.778  0.00  0.00    +0.000 A 
ATOM     23  N   UNL     1      -4.148  13.686  22.186  0.00  0.00    +0.000 NA
ATOM     24  N   UNL     1      -3.790  12.651  21.350  0.00  0.00    +0.000 NA
ATOM     25  C   UNL     1      -2.906  13.139  20.505  0.00  0.00    +0.000 A 
ATOM     26  O   UNL     1      -2.652  14.467  20.724  0.00  0.00    +0.000 OA
ENDBRANCH   1  25
TORSDOF 2
ENDMDL
MODEL 6
REMARK VINA RESULT:      -6.9      1.934      2.743
REMARK  Name = 
REMARK  4 active torsions:
REMARK  status: ('A' for Active; 'I' for Inactive)
REMARK    1  A    between atoms: C_1  and  C_2
REMARK    2  A    between atoms: C_5  and  C_6
REMARK    3  A    between atoms: C_12  and  C_14
REMARK    4  A    between atoms: C_22  and  C_23
REMARK                            x       y       z     vdW  Elec       q    Type
REMARK                         _______ _______ _______ _____ _____    ______ ____
ROOT
ATOM      1  C   UNL     1      -1.322  12.748  19.095  0.00  0.00    +0.000 C 
ATOM      2  C   UNL     1      -0.026  13.214  18.449  0.00  0.00    +0.000 C 
ATOM      3  C   UNL     1      -0.023  11.985  19.310  0.00  0.00    +0.000 C 
ATOM      4  C   UNL     1       0.157  10.677  18.572  0.00  0.00    +0.000 C 
ATOM      5  C   UNL     1      -0.157   9.487  19.474  0.00  0.00    +0.000 C 
ATOM      6  N   UNL     1       0.620   9.544  20.712  0.00  0.00    +0.000 N 
ATOM      7  C   UNL     1       1.484   8.549  21.188  0.00  0.00    +0.000 C 
ATOM      8  O   UNL     1       2.119   8.728  22.249  0.00  0.00    +0.000 OA
ATOM      9  C   UNL     1       0.382  10.765  21.483  0.00  0.00    +0.000 C 
ATOM     10  C   UNL     1       0.716  12.009  20.645  0.00  0.00    +0.000 C 
ENDROOT
BRANCH   7  11
ATOM     11  C   UNL     1       1.648   7.322  20.419  0.00  0.00    +0.000 A 
ATOM     12  O   UNL     1       1.299   6.121  20.995  0.00  0.00    +0.000 OA
ATOM     13  C   UNL     1       1.492   5.133  20.093  0.00  0.00    +0.000 A 
ATOM     14  C   UNL     1       1.228   3.780  20.294  0.00  0.00    +0.000 A 
ATOM     15  C   UNL     1       1.522   2.929  19.223  0.00  0.00    +0.000 A 
ATOM     16  C   UNL     1       2.043   3.419  18.024  0.00  0.00    +0.000 A 
ATOM     17  C   UNL     1       2.302   4.787  17.868  0.00  0.00    +0.000 A 
ATOM     18  C   UNL     1       2.027   5.656  18.931  0.00  0.00    +0.000 A 
ATOM     19  C   UNL     1       2.194   7.056  19.164  0.00  0.00    +0.000 A 
ATOM     20  C   UNL     1       2.818   7.998  18.210  0.00  0.00    +0.000 C 
ENDBRANCH   7  11
BRANCH   1  25
ATOM     21  C   UNL     1      -3.870  14.240  23.015  0.00  0.00    +0.000 C 
ATOM     22  C   UNL     1      -3.003  14.352  21.835  0.00  0.00    +0.000 A 
ATOM     23  N   UNL     1      -2.324  15.382  21.376  0.00  0.00    +0.000 NA
ATOM     24  N   UNL     1      -1.606  14.918  20.295  0.00  0.00    +0.000 NA
ATOM     25  C   UNL     1      -1.911  13.644  20.161  0.00  0.00    +0.000 A 
ATOM     26  O   UNL     1      -2.801  13.217  21.111  0.00  0.00    +0.000 OA
ENDBRANCH   1  25
TORSDOF 2
ENDMDL
MODEL 7
REMARK VINA RESULT:      -6.9      2.027      3.624
REMARK  Name = 
REMARK  4 active torsions:
REMARK  status: ('A' for Active; 'I' for Inactive)
REMARK    1  A    between atoms: C_1  and  C_2
REMARK    2  A    between atoms: C_5  and  C_6
REMARK    3  A    between atoms: C_12  and  C_14
REMARK    4  A    between atoms: C_22  and  C_23
REMARK                            x       y       z     vdW  Elec       q    Type
REMARK                         _______ _______ _______ _____ _____    ______ ____
ROOT
ATOM      1  C   UNL     1      -0.063  11.765  20.504  0.00  0.00    +0.000 C 
ATOM      2  C   UNL     1      -1.359  11.176  19.967  0.00  0.00    +0.000 C 
ATOM      3  C   UNL     1      -0.053  10.510  19.643  0.00  0.00    +0.000 C 
ATOM      4  C   UNL     1       0.188   9.185  20.331  0.00  0.00    +0.000 C 
ATOM      5  C   UNL     1       1.641   8.743  20.184  0.00  0.00    +0.000 C 
ATOM      6  N   UNL     1       2.048   8.728  18.780  0.00  0.00    +0.000 N 
ATOM      7  C   UNL     1       2.567   7.627  18.085  0.00  0.00    +0.000 C 
ATOM      8  O   UNL     1       2.852   7.730  16.873  0.00  0.00    +0.000 OA
ATOM      9  C   UNL     1       1.909  10.030  18.128  0.00  0.00    +0.000 C 
ATOM     10  C   UNL     1       0.455  10.522  18.204  0.00  0.00    +0.000 C 
ENDROOT
BRANCH   7  11
ATOM     11  C   UNL     1       2.745   6.363  18.787  0.00  0.00    +0.000 A 
ATOM     12  O   UNL     1       1.694   5.847  19.513  0.00  0.00    +0.000 OA
ATOM     13  C   UNL     1       2.068   4.659  20.037  0.00  0.00    +0.000 A 
ATOM     14  C   UNL     1       1.270   3.821  20.812  0.00  0.00    +0.000 A 
ATOM     15  C   UNL     1       1.873   2.643  21.266  0.00  0.00    +0.000 A 
ATOM     16  C   UNL     1       3.196   2.331  20.948  0.00  0.00    +0.000 A 
ATOM     17  C   UNL     1       3.966   3.208  20.173  0.00  0.00    +0.000 A 
ATOM     18  C   UNL     1       3.387   4.400  19.718  0.00  0.00    +0.000 A 
ATOM     19  C   UNL     1       3.847   5.529  18.973  0.00  0.00    +0.000 A 
ATOM     20  C   UNL     1       5.235   5.714  18.497  0.00  0.00    +0.000 C 
ENDBRANCH   7  11
BRANCH   1  25
ATOM     21  C   UNL     1      -0.340  16.299  18.645  0.00  0.00    +0.000 C 
ATOM     22  C   UNL     1       0.293  15.070  19.141  0.00  0.00    +0.000 A 
ATOM     23  N   UNL     1       1.561  14.804  19.375  0.00  0.00    +0.000 NA
ATOM     24  N   UNL     1       1.594  13.538  19.917  0.00  0.00    +0.000 NA
ATOM     25  C   UNL     1       0.348  13.114  19.958  0.00  0.00    +0.000 A 
ATOM     26  O   UNL     1      -0.536  14.043  19.474  0.00  0.00    +0.000 OA
ENDBRANCH   1  25
TORSDOF 2
ENDMDL
MODEL 8
REMARK VINA RESULT:      -6.9      2.055      3.666
REMARK  Name = 
REMARK  4 active torsions:
REMARK  status: ('A' for Active; 'I' for Inactive)
REMARK    1  A    between atoms: C_1  and  C_2
REMARK    2  A    between atoms: C_5  and  C_6
REMARK    3  A    between atoms: C_12  and  C_14
REMARK    4  A    between atoms: C_22  and  C_23
REMARK                            x       y       z     vdW  Elec       q    Type
REMARK                         _______ _______ _______ _____ _____    ______ ____
ROOT
ATOM      1  C   UNL     1      -0.288  11.740  22.045  0.00  0.00    +0.000 C 
ATOM      2  C   UNL     1      -1.627  11.135  21.648  0.00  0.00    +0.000 C 
ATOM      3  C   UNL     1      -0.370  10.646  20.989  0.00  0.00    +0.000 C 
ATOM      4  C   UNL     1       0.069   9.253  21.381  0.00  0.00    +0.000 C 
ATOM      5  C   UNL     1       1.491   8.969  20.907  0.00  0.00    +0.000 C 
ATOM      6  N   UNL     1       1.629   9.217  19.473  0.00  0.00    +0.000 N 
ATOM      7  C   UNL     1       2.068   8.293  18.516  0.00  0.00    +0.000 C 
ATOM      8  O   UNL     1       2.115   8.615  17.310  0.00  0.00    +0.000 OA
ATOM      9  C   UNL     1       1.297  10.591  19.094  0.00  0.00    +0.000 C 
ATOM     10  C   UNL     1      -0.142  10.935  19.508  0.00  0.00    +0.000 C 
ENDROOT
BRANCH   7  11
ATOM     11  C   UNL     1       2.445   6.951  18.944  0.00  0.00    +0.000 A 
ATOM     12  O   UNL     1       1.708   6.332  19.929  0.00  0.00    +0.000 OA
ATOM     13  C   UNL     1       2.206   5.092  20.131  0.00  0.00    +0.000 A 
ATOM     14  C   UNL     1       1.712   4.150  21.030  0.00  0.00    +0.000 A 
ATOM     15  C   UNL     1       2.399   2.932  21.086  0.00  0.00    +0.000 A 
ATOM     16  C   UNL     1       3.509   2.683  20.277  0.00  0.00    +0.000 A 
ATOM     17  C   UNL     1       3.978   3.663  19.392  0.00  0.00    +0.000 A 
ATOM     18  C   UNL     1       3.314   4.895  19.328  0.00  0.00    +0.000 A 
ATOM     19  C   UNL     1       3.512   6.117  18.615  0.00  0.00    +0.000 A 
ATOM     20  C   UNL     1       4.643   6.381  17.699  0.00  0.00    +0.000 C 
ENDBRANCH   7  11
BRANCH   1  25
ATOM     21  C   UNL     1       1.980  15.978  21.059  0.00  0.00    +0.000 C 
ATOM     22  C   UNL     1       0.858  15.052  21.259  0.00  0.00    +0.000 A 
ATOM     23  N   UNL     1      -0.430  15.223  21.051  0.00  0.00    +0.000 NA
ATOM     24  N   UNL     1      -1.026  14.009  21.313  0.00  0.00    +0.000 NA
ATOM     25  C   UNL     1      -0.063  13.189  21.681  0.00  0.00    +0.000 A 
ATOM     26  O   UNL     1       1.168  13.792  21.672  0.00  0.00    +0.000 OA
ENDBRANCH   1  25
TORSDOF 2
ENDMDL
MODEL 9
REMARK VINA RESULT:      -6.8      1.048      1.238
REMARK  Name = 
REMARK  4 active torsions:
REMARK  status: ('A' for Active; 'I' for Inactive)
REMARK    1  A    between atoms: C_1  and  C_2
REMARK    2  A    between atoms: C_5  and  C_6
REMARK    3  A    between atoms: C_12  and  C_14
REMARK    4  A    between atoms: C_22  and  C_23
REMARK                            x       y       z     vdW  Elec       q    Type
REMARK                         _______ _______ _______ _____ _____    ______ ____
ROOT
ATOM      1  C   UNL     1      -1.516  12.237  18.588  0.00  0.00    +0.000 C 
ATOM      2  C   UNL     1      -0.254  13.087  18.572  0.00  0.00    +0.000 C 
ATOM      3  C   UNL     1      -0.194  11.683  19.099  0.00  0.00    +0.000 C 
ATOM      4  C   UNL     1       0.540  10.692  18.224  0.00  0.00    +0.000 C 
ATOM      5  C   UNL     1       0.288   9.258  18.681  0.00  0.00    +0.000 C 
ATOM      6  N   UNL     1       0.603   9.094  20.099  0.00  0.00    +0.000 N 
ATOM      7  C   UNL     1       1.508   8.172  20.640  0.00  0.00    +0.000 C 
ATOM      8  O   UNL     1       1.716   8.147  21.872  0.00  0.00    +0.000 OA
ATOM      9  C   UNL     1      -0.171   9.983  20.966  0.00  0.00    +0.000 C 
ATOM     10  C   UNL     1       0.065  11.453  20.585  0.00  0.00    +0.000 C 
ENDROOT
BRANCH   7  11
ATOM     11  C   UNL     1       2.216   7.263  19.747  0.00  0.00    +0.000 A 
ATOM     12  O   UNL     1       2.948   7.786  18.704  0.00  0.00    +0.000 OA
ATOM     13  C   UNL     1       3.549   6.773  18.042  0.00  0.00    +0.000 A 
ATOM     14  C   UNL     1       4.395   6.903  16.944  0.00  0.00    +0.000 A 
ATOM     15  C   UNL     1       4.891   5.711  16.403  0.00  0.00    +0.000 A 
ATOM     16  C   UNL     1       4.557   4.470  16.947  0.00  0.00    +0.000 A 
ATOM     17  C   UNL     1       3.695   4.384  18.048  0.00  0.00    +0.000 A 
ATOM     18  C   UNL     1       3.176   5.563  18.597  0.00  0.00    +0.000 A 
ATOM     19  C   UNL     1       2.262   5.873  19.651  0.00  0.00    +0.000 A 
ATOM     20  C   UNL     1       1.544   4.867  20.464  0.00  0.00    +0.000 C 
ENDBRANCH   7  11
BRANCH   1  25
ATOM     21  C   UNL     1      -5.834  12.414  20.914  0.00  0.00    +0.000 C 
ATOM     22  C   UNL     1      -4.466  12.812  20.556  0.00  0.00    +0.000 A 
ATOM     23  N   UNL     1      -3.677  13.716  21.096  0.00  0.00    +0.000 NA
ATOM     24  N   UNL     1      -2.473  13.618  20.435  0.00  0.00    +0.000 NA
ATOM     25  C   UNL     1      -2.617  12.675  19.527  0.00  0.00    +0.000 A 
ATOM     26  O   UNL     1      -3.869  12.119  19.547  0.00  0.00    +0.000 OA
ENDBRANCH   1  25
TORSDOF 2
ENDMDL
