MODEL 1
REMARK VINA RESULT:      -7.6      0.000      0.000
REMARK  Name = 
REMARK  5 active torsions:
REMARK  status: ('A' for Active; 'I' for Inactive)
REMARK    1  A    between atoms: C_2  and  C_4
REMARK    2  A    between atoms: C_6  and  O_7
REMARK    3  A    between atoms: N_9  and  C_10
REMARK    4  A    between atoms: C_12  and  C_13
REMARK    5  A    between atoms: C_14  and  C_15
REMARK                            x       y       z     vdW  Elec       q    Type
REMARK                         _______ _______ _______ _____ _____    ______ ____
ROOT
ATOM      1  C   UNL     1       9.279  12.987  20.035  0.00  0.00    +0.000 A 
ATOM      2  N   UNL     1       8.885  11.690  19.931  0.00  0.00    +0.000 NA
ATOM      3  C   UNL     1       9.238  10.990  18.827  0.00  0.00    +0.000 A 
ATOM      4  N   UNL     1       9.924  11.447  17.772  0.00  0.00    +0.000 NA
ATOM      5  C   UNL     1      10.353  12.704  17.940  0.00  0.00    +0.000 A 
ATOM      6  S   UNL     1      11.224  13.504  16.706  0.00  0.00    +0.000 S 
ATOM      7  C   UNL     1      11.418  14.893  17.666  0.00  0.00    +0.000 A 
ATOM      8  C   UNL     1      10.954  14.707  18.953  0.00  0.00    +0.000 A 
ATOM      9  C   UNL     1      10.160  13.500  19.056  0.00  0.00    +0.000 A 
ATOM     10  C   UNL     1      11.233  15.733  20.011  0.00  0.00    +0.000 C 
ATOM     11  C   UNL     1      11.318  17.136  19.404  0.00  0.00    +0.000 C 
ATOM     12  C   UNL     1      12.333  17.159  18.256  0.00  0.00    +0.000 C 
ATOM     13  C   UNL     1      11.964  16.180  17.127  0.00  0.00    +0.000 C 
ENDROOT
BRANCH   1  18
ATOM     14  C   UNL     1       7.705  14.590  21.163  0.00  0.00    +0.000 C 
ATOM     15  C   UNL     1       8.011  15.423  22.427  0.00  0.00    +0.000 C 
ATOM     16  C   UNL     1       8.881  14.495  23.303  0.00  0.00    +0.000 C 
ATOM     17  C   UNL     1       9.084  13.218  22.461  0.00  0.00    +0.000 C 
ATOM     18  N   UNL     1       8.932  13.759  21.119  0.00  0.00    +0.000 N 
BRANCH  14  20
ATOM     19  N   UNL     1       6.363  14.872  19.073  0.00  0.00    +0.000 N 
ATOM     20  C   UNL     1       7.309  15.397  19.910  0.00  0.00    +0.000 C 
ATOM     21  O   UNL     1       7.864  16.438  19.557  0.00  0.00    +0.000 OA
ATOM     22  H   UNL     1       6.113  15.461  18.286  0.00  0.00    +0.000 HD
ATOM     23  H   UNL     1       5.689  14.174  19.351  0.00  0.00    +0.000 HD
ENDBRANCH  14  20
BRANCH  16  24
ATOM     24  O   UNL     1       8.275  14.266  24.564  0.00  0.00    +0.000 OA
ATOM     25  H   UNL     1       7.452  14.780  24.614  0.00  0.00    +0.000 HD
ENDBRANCH  16  24
ENDBRANCH   1  18
BRANCH   3  26
ATOM     26  C   UNL     1       8.926   9.551  18.749  0.00  0.00    +0.000 C 
ATOM     27  C   UNL     1       8.161   8.936  17.829  0.00  0.00    +0.000 C 
BRANCH  27  28
ATOM     28  C   UNL     1       7.827   7.496  17.853  0.00  0.00    +0.000 A 
ATOM     29  C   UNL     1       8.180   6.656  18.921  0.00  0.00    +0.000 A 
ATOM     30  C   UNL     1       7.802   5.306  18.931  0.00  0.00    +0.000 A 
ATOM     31  C   UNL     1       7.057   4.782  17.881  0.00  0.00    +0.000 A 
ATOM     32  C   UNL     1       6.685   5.606  16.820  0.00  0.00    +0.000 A 
ATOM     33  C   UNL     1       7.067   6.954  16.809  0.00  0.00    +0.000 A 
ENDBRANCH  27  28
ENDBRANCH   3  26
TORSDOF 5
ENDMDL
MODEL 2
REMARK VINA RESULT:      -7.5      9.160     11.712
REMARK  Name = 
REMARK  5 active torsions:
REMARK  status: ('A' for Active; 'I' for Inactive)
REMARK    1  A    between atoms: C_2  and  C_4
REMARK    2  A    between atoms: C_6  and  O_7
REMARK    3  A    between atoms: N_9  and  C_10
REMARK    4  A    between atoms: C_12  and  C_13
REMARK    5  A    between atoms: C_14  and  C_15
REMARK                            x       y       z     vdW  Elec       q    Type
REMARK                         _______ _______ _______ _____ _____    ______ ____
ROOT
ATOM      1  C   UNL     1       3.142   5.164  19.440  0.00  0.00    +0.000 A 
ATOM      2  N   UNL     1       2.373   5.977  20.211  0.00  0.00    +0.000 NA
ATOM      3  C   UNL     1       2.211   7.268  19.835  0.00  0.00    +0.000 A 
ATOM      4  N   UNL     1       2.766   7.871  18.776  0.00  0.00    +0.000 NA
ATOM      5  C   UNL     1       3.459   7.025  18.004  0.00  0.00    +0.000 A 
ATOM      6  S   UNL     1       4.280   7.581  16.612  0.00  0.00    +0.000 S 
ATOM      7  C   UNL     1       4.798   6.011  16.221  0.00  0.00    +0.000 A 
ATOM      8  C   UNL     1       4.243   5.057  17.050  0.00  0.00    +0.000 A 
ATOM      9  C   UNL     1       3.618   5.664  18.206  0.00  0.00    +0.000 A 
ATOM     10  C   UNL     1       4.400   3.599  16.733  0.00  0.00    +0.000 C 
ATOM     11  C   UNL     1       5.724   3.335  16.010  0.00  0.00    +0.000 C 
ATOM     12  C   UNL     1       5.849   4.239  14.779  0.00  0.00    +0.000 C 
ATOM     13  C   UNL     1       5.801   5.734  15.142  0.00  0.00    +0.000 C 
ENDROOT
BRANCH   1  18
ATOM     14  C   UNL     1       2.522   2.733  19.290  0.00  0.00    +0.000 C 
ATOM     15  C   UNL     1       3.036   1.607  20.214  0.00  0.00    +0.000 C 
ATOM     16  C   UNL     1       4.506   1.983  20.504  0.00  0.00    +0.000 C 
ATOM     17  C   UNL     1       4.725   3.335  19.793  0.00  0.00    +0.000 C 
ATOM     18  N   UNL     1       3.365   3.850  19.779  0.00  0.00    +0.000 N 
BRANCH  14  20
ATOM     19  N   UNL     1       0.384   3.525  20.316  0.00  0.00    +0.000 N 
ATOM     20  C   UNL     1       0.991   2.918  19.251  0.00  0.00    +0.000 C 
ATOM     21  O   UNL     1       0.265   2.462  18.368  0.00  0.00    +0.000 OA
ATOM     22  H   UNL     1      -0.617   3.656  20.220  0.00  0.00    +0.000 HD
ATOM     23  H   UNL     1       0.862   4.129  20.968  0.00  0.00    +0.000 HD
ENDBRANCH  14  20
BRANCH  16  24
ATOM     24  O   UNL     1       5.389   0.957  20.081  0.00  0.00    +0.000 OA
ATOM     25  H   UNL     1       4.881   0.138  19.956  0.00  0.00    +0.000 HD
ENDBRANCH  16  24
ENDBRANCH   1  18
BRANCH   3  26
ATOM     26  C   UNL     1       1.286   8.133  20.588  0.00  0.00    +0.000 C 
ATOM     27  C   UNL     1       0.836   9.349  20.227  0.00  0.00    +0.000 C 
BRANCH  27  28
ATOM     28  C   UNL     1      -0.035  10.198  21.068  0.00  0.00    +0.000 A 
ATOM     29  C   UNL     1      -0.728  11.308  20.558  0.00  0.00    +0.000 A 
ATOM     30  C   UNL     1      -1.584  12.059  21.376  0.00  0.00    +0.000 A 
ATOM     31  C   UNL     1      -1.768  11.704  22.707  0.00  0.00    +0.000 A 
ATOM     32  C   UNL     1      -1.099  10.595  23.224  0.00  0.00    +0.000 A 
ATOM     33  C   UNL     1      -0.241   9.848  22.408  0.00  0.00    +0.000 A 
ENDBRANCH  27  28
ENDBRANCH   3  26
TORSDOF 5
ENDMDL
MODEL 3
REMARK VINA RESULT:      -7.4      8.085      9.653
REMARK  Name = 
REMARK  5 active torsions:
REMARK  status: ('A' for Active; 'I' for Inactive)
REMARK    1  A    between atoms: C_2  and  C_4
REMARK    2  A    between atoms: C_6  and  O_7
REMARK    3  A    between atoms: N_9  and  C_10
REMARK    4  A    between atoms: C_12  and  C_13
REMARK    5  A    between atoms: C_14  and  C_15
REMARK                            x       y       z     vdW  Elec       q    Type
REMARK                         _______ _______ _______ _____ _____    ______ ____
ROOT
ATOM      1  C   UNL     1      -0.563  11.708  19.005  0.00  0.00    +0.000 A 
ATOM      2  N   UNL     1      -0.144  10.424  18.851  0.00  0.00    +0.000 NA
ATOM      3  C   UNL     1       1.141  10.199  18.487  0.00  0.00    +0.000 A 
ATOM      4  N   UNL     1       2.072  11.122  18.217  0.00  0.00    +0.000 NA
ATOM      5  C   UNL     1       1.644  12.370  18.446  0.00  0.00    +0.000 A 
ATOM      6  S   UNL     1       2.656  13.713  18.139  0.00  0.00    +0.000 S 
ATOM      7  C   UNL     1       1.477  14.800  18.701  0.00  0.00    +0.000 A 
ATOM      8  C   UNL     1       0.386  14.152  19.244  0.00  0.00    +0.000 A 
ATOM      9  C   UNL     1       0.398  12.741  18.921  0.00  0.00    +0.000 A 
ATOM     10  C   UNL     1      -0.658  14.929  19.991  0.00  0.00    +0.000 C 
ATOM     11  C   UNL     1      -0.788  16.349  19.431  0.00  0.00    +0.000 C 
ATOM     12  C   UNL     1       0.579  17.040  19.408  0.00  0.00    +0.000 C 
ATOM     13  C   UNL     1       1.603  16.285  18.542  0.00  0.00    +0.000 C 
ENDROOT
BRANCH   1  18
ATOM     14  C   UNL     1      -3.036  11.386  18.690  0.00  0.00    +0.000 C 
ATOM     15  C   UNL     1      -4.148  12.298  19.252  0.00  0.00    +0.000 C 
ATOM     16  C   UNL     1      -3.627  12.740  20.637  0.00  0.00    +0.000 C 
ATOM     17  C   UNL     1      -2.220  12.117  20.756  0.00  0.00    +0.000 C 
ATOM     18  N   UNL     1      -1.861  12.003  19.351  0.00  0.00    +0.000 N 
BRANCH  14  20
ATOM     19  N   UNL     1      -3.890  11.966  16.413  0.00  0.00    +0.000 N 
ATOM     20  C   UNL     1      -3.022  11.215  17.157  0.00  0.00    +0.000 C 
ATOM     21  O   UNL     1      -2.353  10.368  16.565  0.00  0.00    +0.000 OA
ATOM     22  H   UNL     1      -3.811  11.842  15.410  0.00  0.00    +0.000 HD
ATOM     23  H   UNL     1      -4.308  12.827  16.734  0.00  0.00    +0.000 HD
ENDBRANCH  14  20
BRANCH  16  24
ATOM     24  O   UNL     1      -4.520  12.351  21.667  0.00  0.00    +0.000 OA
ATOM     25  H   UNL     1      -5.185  11.748  21.294  0.00  0.00    +0.000 HD
ENDBRANCH  16  24
ENDBRANCH   1  18
BRANCH   3  26
ATOM     26  C   UNL     1       1.648   8.816  18.431  0.00  0.00    +0.000 C 
ATOM     27  C   UNL     1       2.775   8.389  17.831  0.00  0.00    +0.000 C 
BRANCH  27  28
ATOM     28  C   UNL     1       3.187   6.971  17.750  0.00  0.00    +0.000 A 
ATOM     29  C   UNL     1       2.370   5.919  18.195  0.00  0.00    +0.000 A 
ATOM     30  C   UNL     1       2.775   4.585  18.054  0.00  0.00    +0.000 A 
ATOM     31  C   UNL     1       3.994   4.283  17.458  0.00  0.00    +0.000 A 
ATOM     32  C   UNL     1       4.810   5.316  16.998  0.00  0.00    +0.000 A 
ATOM     33  C   UNL     1       4.407   6.649  17.142  0.00  0.00    +0.000 A 
ENDBRANCH  27  28
ENDBRANCH   3  26
TORSDOF 5
ENDMDL
MODEL 4
REMARK VINA RESULT:      -7.2      7.194     11.301
REMARK  Name = 
REMARK  5 active torsions:
REMARK  status: ('A' for Active; 'I' for Inactive)
REMARK    1  A    between atoms: C_2  and  C_4
REMARK    2  A    between atoms: C_6  and  O_7
REMARK    3  A    between atoms: N_9  and  C_10
REMARK    4  A    between atoms: C_12  and  C_13
REMARK    5  A    between atoms: C_14  and  C_15
REMARK                            x       y       z     vdW  Elec       q    Type
REMARK                         _______ _______ _______ _____ _____    ______ ____
ROOT
ATOM      1  C   UNL     1       3.995   6.419  17.563  0.00  0.00    +0.000 A 
ATOM      2  N   UNL     1       3.614   7.710  17.376  0.00  0.00    +0.000 NA
ATOM      3  C   UNL     1       2.691   8.244  18.210  0.00  0.00    +0.000 A 
ATOM      4  N   UNL     1       2.059   7.619  19.211  0.00  0.00    +0.000 NA
ATOM      5  C   UNL     1       2.507   6.374  19.409  0.00  0.00    +0.000 A 
ATOM      6  S   UNL     1       1.822   5.377  20.617  0.00  0.00    +0.000 S 
ATOM      7  C   UNL     1       2.905   4.115  20.269  0.00  0.00    +0.000 A 
ATOM      8  C   UNL     1       3.865   4.489  19.350  0.00  0.00    +0.000 A 
ATOM      9  C   UNL     1       3.517   5.739  18.706  0.00  0.00    +0.000 A 
ATOM     10  C   UNL     1       5.038   3.595  19.077  0.00  0.00    +0.000 C 
ATOM     11  C   UNL     1       4.657   2.123  19.257  0.00  0.00    +0.000 C 
ATOM     12  C   UNL     1       4.034   1.899  20.639  0.00  0.00    +0.000 C 
ATOM     13  C   UNL     1       2.764   2.742  20.853  0.00  0.00    +0.000 C 
ENDROOT
BRANCH   1  18
ATOM     14  C   UNL     1       6.332   5.611  17.109  0.00  0.00    +0.000 C 
ATOM     15  C   UNL     1       6.896   5.197  15.732  0.00  0.00    +0.000 C 
ATOM     16  C   UNL     1       5.717   4.497  15.022  0.00  0.00    +0.000 C 
ATOM     17  C   UNL     1       4.529   4.617  16.000  0.00  0.00    +0.000 C 
ATOM     18  N   UNL     1       4.910   5.812  16.736  0.00  0.00    +0.000 N 
BRANCH  14  20
ATOM     19  N   UNL     1       7.066   7.996  17.250  0.00  0.00    +0.000 N 
ATOM     20  C   UNL     1       7.081   6.754  17.823  0.00  0.00    +0.000 C 
ATOM     21  O   UNL     1       7.782   6.599  18.823  0.00  0.00    +0.000 OA
ATOM     22  H   UNL     1       7.541   8.718  17.781  0.00  0.00    +0.000 HD
ATOM     23  H   UNL     1       6.369   8.303  16.588  0.00  0.00    +0.000 HD
ENDBRANCH  14  20
BRANCH  16  24
ATOM     24  O   UNL     1       6.048   3.163  14.675  0.00  0.00    +0.000 OA
ATOM     25  H   UNL     1       5.253   2.724  14.327  0.00  0.00    +0.000 HD
ENDBRANCH  16  24
ENDBRANCH   1  18
BRANCH   3  26
ATOM     26  C   UNL     1       2.354   9.675  18.101  0.00  0.00    +0.000 C 
ATOM     27  C   UNL     1       1.531  10.378  18.902  0.00  0.00    +0.000 C 
BRANCH  27  28
ATOM     28  C   UNL     1       1.178  11.798  18.690  0.00  0.00    +0.000 A 
ATOM     29  C   UNL     1      -0.148  12.259  18.719  0.00  0.00    +0.000 A 
ATOM     30  C   UNL     1      -0.439  13.622  18.564  0.00  0.00    +0.000 A 
ATOM     31  C   UNL     1       0.590  14.541  18.391  0.00  0.00    +0.000 A 
ATOM     32  C   UNL     1       1.912  14.100  18.375  0.00  0.00    +0.000 A 
ATOM     33  C   UNL     1       2.203  12.739  18.525  0.00  0.00    +0.000 A 
ENDBRANCH  27  28
ENDBRANCH   3  26
TORSDOF 5
ENDMDL
MODEL 5
REMARK VINA RESULT:      -7.0      8.099      9.725
REMARK  Name = 
REMARK  5 active torsions:
REMARK  status: ('A' for Active; 'I' for Inactive)
REMARK    1  A    between atoms: C_2  and  C_4
REMARK    2  A    between atoms: C_6  and  O_7
REMARK    3  A    between atoms: N_9  and  C_10
REMARK    4  A    between atoms: C_12  and  C_13
REMARK    5  A    between atoms: C_14  and  C_15
REMARK                            x       y       z     vdW  Elec       q    Type
REMARK                         _______ _______ _______ _____ _____    ______ ____
ROOT
ATOM      1  C   UNL     1      -0.459  11.467  18.638  0.00  0.00    +0.000 A 
ATOM      2  N   UNL     1      -0.041  10.186  18.454  0.00  0.00    +0.000 NA
ATOM      3  C   UNL     1       1.271   9.958  18.211  0.00  0.00    +0.000 A 
ATOM      4  N   UNL     1       2.236  10.878  18.091  0.00  0.00    +0.000 NA
ATOM      5  C   UNL     1       1.802  12.118  18.345  0.00  0.00    +0.000 A 
ATOM      6  S   UNL     1       2.857  13.458  18.220  0.00  0.00    +0.000 S 
ATOM      7  C   UNL     1       1.640  14.534  18.719  0.00  0.00    +0.000 A 
ATOM      8  C   UNL     1       0.491  13.877  19.111  0.00  0.00    +0.000 A 
ATOM      9  C   UNL     1       0.519  12.485  18.710  0.00  0.00    +0.000 A 
ATOM     10  C   UNL     1      -0.615  14.630  19.789  0.00  0.00    +0.000 C 
ATOM     11  C   UNL     1      -0.670  16.080  19.300  0.00  0.00    +0.000 C 
ATOM     12  C   UNL     1       0.701  16.747  19.456  0.00  0.00    +0.000 C 
ATOM     13  C   UNL     1       1.800  16.023  18.658  0.00  0.00    +0.000 C 
ENDROOT
BRANCH   1  18
ATOM     14  C   UNL     1      -2.900  11.035  18.221  0.00  0.00    +0.000 C 
ATOM     15  C   UNL     1      -4.064  11.979  18.593  0.00  0.00    +0.000 C 
ATOM     16  C   UNL     1      -3.639  12.609  19.937  0.00  0.00    +0.000 C 
ATOM     17  C   UNL     1      -2.229  12.049  20.219  0.00  0.00    +0.000 C 
ATOM     18  N   UNL     1      -1.781  11.766  18.864  0.00  0.00    +0.000 N 
BRANCH  14  20
ATOM     19  N   UNL     1      -3.116  11.619  15.800  0.00  0.00    +0.000 N 
ATOM     20  C   UNL     1      -2.787  10.669  16.727  0.00  0.00    +0.000 C 
ATOM     21  O   UNL     1      -2.519   9.541  16.312  0.00  0.00    +0.000 OA
ATOM     22  H   UNL     1      -2.987  11.339  14.834  0.00  0.00    +0.000 HD
ATOM     23  H   UNL     1      -3.124  12.611  15.989  0.00  0.00    +0.000 HD
ENDBRANCH  14  20
BRANCH  16  24
ATOM     24  O   UNL     1      -4.586  12.330  20.955  0.00  0.00    +0.000 OA
ATOM     25  H   UNL     1      -4.356  12.846  21.747  0.00  0.00    +0.000 HD
ENDBRANCH  16  24
ENDBRANCH   1  18
BRANCH   3  26
ATOM     26  C   UNL     1       1.765   8.571  18.130  0.00  0.00    +0.000 C 
ATOM     27  C   UNL     1       2.237   7.818  19.140  0.00  0.00    +0.000 C 
BRANCH  27  28
ATOM     28  C   UNL     1       2.787   6.455  18.975  0.00  0.00    +0.000 A 
ATOM     29  C   UNL     1       3.638   6.108  17.914  0.00  0.00    +0.000 A 
ATOM     30  C   UNL     1       4.180   4.818  17.819  0.00  0.00    +0.000 A 
ATOM     31  C   UNL     1       3.889   3.864  18.788  0.00  0.00    +0.000 A 
ATOM     32  C   UNL     1       3.057   4.199  19.855  0.00  0.00    +0.000 A 
ATOM     33  C   UNL     1       2.513   5.486  19.948  0.00  0.00    +0.000 A 
ENDBRANCH  27  28
ENDBRANCH   3  26
TORSDOF 5
ENDMDL
MODEL 6
REMARK VINA RESULT:      -7.0      0.663      1.101
REMARK  Name = 
REMARK  5 active torsions:
REMARK  status: ('A' for Active; 'I' for Inactive)
REMARK    1  A    between atoms: C_2  and  C_4
REMARK    2  A    between atoms: C_6  and  O_7
REMARK    3  A    between atoms: N_9  and  C_10
REMARK    4  A    between atoms: C_12  and  C_13
REMARK    5  A    between atoms: C_14  and  C_15
REMARK                            x       y       z     vdW  Elec       q    Type
REMARK                         _______ _______ _______ _____ _____    ______ ____
ROOT
ATOM      1  C   UNL     1       9.231  12.912  20.235  0.00  0.00    +0.000 A 
ATOM      2  N   UNL     1       8.844  11.621  20.061  0.00  0.00    +0.000 NA
ATOM      3  C   UNL     1       9.237  10.969  18.941  0.00  0.00    +0.000 A 
ATOM      4  N   UNL     1       9.957  11.473  17.931  0.00  0.00    +0.000 NA
ATOM      5  C   UNL     1      10.377  12.722  18.167  0.00  0.00    +0.000 A 
ATOM      6  S   UNL     1      11.287  13.576  17.000  0.00  0.00    +0.000 S 
ATOM      7  C   UNL     1      11.444  14.922  18.025  0.00  0.00    +0.000 A 
ATOM      8  C   UNL     1      10.938  14.679  19.286  0.00  0.00    +0.000 A 
ATOM      9  C   UNL     1      10.144  13.468  19.310  0.00  0.00    +0.000 A 
ATOM     10  C   UNL     1      11.178  15.658  20.398  0.00  0.00    +0.000 C 
ATOM     11  C   UNL     1      11.280  17.087  19.855  0.00  0.00    +0.000 C 
ATOM     12  C   UNL     1      12.333  17.161  18.745  0.00  0.00    +0.000 C 
ATOM     13  C   UNL     1      12.005  16.232  17.562  0.00  0.00    +0.000 C 
ENDROOT
BRANCH   1  18
ATOM     14  C   UNL     1       7.469  14.153  21.529  0.00  0.00    +0.000 C 
ATOM     15  C   UNL     1       7.719  15.100  22.723  0.00  0.00    +0.000 C 
ATOM     16  C   UNL     1       8.890  14.452  23.494  0.00  0.00    +0.000 C 
ATOM     17  C   UNL     1       9.290  13.217  22.660  0.00  0.00    +0.000 C 
ATOM     18  N   UNL     1       8.846  13.636  21.339  0.00  0.00    +0.000 N 
BRANCH  14  20
ATOM     19  N   UNL     1       7.489  15.304  19.310  0.00  0.00    +0.000 N 
ATOM     20  C   UNL     1       6.737  14.777  20.323  0.00  0.00    +0.000 C 
ATOM     21  O   UNL     1       5.516  14.927  20.261  0.00  0.00    +0.000 OA
ATOM     22  H   UNL     1       6.958  15.665  18.525  0.00  0.00    +0.000 HD
ATOM     23  H   UNL     1       8.450  15.049  19.130  0.00  0.00    +0.000 HD
ENDBRANCH  14  20
BRANCH  16  24
ATOM     24  O   UNL     1       8.519  14.152  24.830  0.00  0.00    +0.000 OA
ATOM     25  H   UNL     1       7.554  14.236  24.913  0.00  0.00    +0.000 HD
ENDBRANCH  16  24
ENDBRANCH   1  18
BRANCH   3  26
ATOM     26  C   UNL     1       8.931   9.535  18.790  0.00  0.00    +0.000 C 
ATOM     27  C   UNL     1       8.072   8.976  17.917  0.00  0.00    +0.000 C 
BRANCH  27  28
ATOM     28  C   UNL     1       7.757   7.533  17.869  0.00  0.00    +0.000 A 
ATOM     29  C   UNL     1       7.116   6.935  16.771  0.00  0.00    +0.000 A 
ATOM     30  C   UNL     1       6.879   5.554  16.741  0.00  0.00    +0.000 A 
ATOM     31  C   UNL     1       7.288   4.751  17.801  0.00  0.00    +0.000 A 
ATOM     32  C   UNL     1       7.939   5.327  18.891  0.00  0.00    +0.000 A 
ATOM     33  C   UNL     1       8.172   6.708  18.922  0.00  0.00    +0.000 A 
ENDBRANCH  27  28
ENDBRANCH   3  26
TORSDOF 5
ENDMDL
MODEL 7
REMARK VINA RESULT:      -7.0      7.492      8.997
REMARK  Name = 
REMARK  5 active torsions:
REMARK  status: ('A' for Active; 'I' for Inactive)
REMARK    1  A    between atoms: C_2  and  C_4
REMARK    2  A    between atoms: C_6  and  O_7
REMARK    3  A    between atoms: N_9  and  C_10
REMARK    4  A    between atoms: C_12  and  C_13
REMARK    5  A    between atoms: C_14  and  C_15
REMARK                            x       y       z     vdW  Elec       q    Type
REMARK                         _______ _______ _______ _____ _____    ______ ____
ROOT
ATOM      1  C   UNL     1       0.181  11.904  19.274  0.00  0.00    +0.000 A 
ATOM      2  N   UNL     1       0.540  10.671  18.827  0.00  0.00    +0.000 NA
ATOM      3  C   UNL     1       1.729  10.529  18.195  0.00  0.00    +0.000 A 
ATOM      4  N   UNL     1       2.610  11.497  17.917  0.00  0.00    +0.000 NA
ATOM      5  C   UNL     1       2.257  12.681  18.432  0.00  0.00    +0.000 A 
ATOM      6  S   UNL     1       3.219  14.070  18.175  0.00  0.00    +0.000 S 
ATOM      7  C   UNL     1       2.188  15.030  19.125  0.00  0.00    +0.000 A 
ATOM      8  C   UNL     1       1.205  14.284  19.745  0.00  0.00    +0.000 A 
ATOM      9  C   UNL     1       1.129  12.949  19.189  0.00  0.00    +0.000 A 
ATOM     10  C   UNL     1       0.334  14.907  20.796  0.00  0.00    +0.000 C 
ATOM     11  C   UNL     1       0.129  16.400  20.521  0.00  0.00    +0.000 C 
ATOM     12  C   UNL     1       1.481  17.103  20.360  0.00  0.00    +0.000 C 
ATOM     13  C   UNL     1       2.310  16.521  19.201  0.00  0.00    +0.000 C 
ENDROOT
BRANCH   1  18
ATOM     14  C   UNL     1      -2.317  11.638  19.360  0.00  0.00    +0.000 C 
ATOM     15  C   UNL     1      -3.281  12.416  20.283  0.00  0.00    +0.000 C 
ATOM     16  C   UNL     1      -2.504  12.577  21.608  0.00  0.00    +0.000 C 
ATOM     17  C   UNL     1      -1.119  11.951  21.344  0.00  0.00    +0.000 C 
ATOM     18  N   UNL     1      -1.023  12.119  19.902  0.00  0.00    +0.000 N 
BRANCH  14  20
ATOM     19  N   UNL     1      -1.600  12.301  17.059  0.00  0.00    +0.000 N 
ATOM     20  C   UNL     1      -2.585  11.773  17.848  0.00  0.00    +0.000 C 
ATOM     21  O   UNL     1      -3.670  11.534  17.316  0.00  0.00    +0.000 OA
ATOM     22  H   UNL     1      -1.814  12.331  16.069  0.00  0.00    +0.000 HD
ATOM     23  H   UNL     1      -0.623  12.319  17.314  0.00  0.00    +0.000 HD
ENDBRANCH  14  20
BRANCH  16  24
ATOM     24  O   UNL     1      -3.208  11.988  22.689  0.00  0.00    +0.000 OA
ATOM     25  H   UNL     1      -3.151  12.579  23.459  0.00  0.00    +0.000 HD
ENDBRANCH  16  24
ENDBRANCH   1  18
BRANCH   3  26
ATOM     26  C   UNL     1       2.190   9.183  17.811  0.00  0.00    +0.000 C 
ATOM     27  C   UNL     1       2.197   8.077  18.579  0.00  0.00    +0.000 C 
BRANCH  27  28
ATOM     28  C   UNL     1       2.745   6.772  18.152  0.00  0.00    +0.000 A 
ATOM     29  C   UNL     1       3.947   6.654  17.436  0.00  0.00    +0.000 A 
ATOM     30  C   UNL     1       4.460   5.395  17.093  0.00  0.00    +0.000 A 
ATOM     31  C   UNL     1       3.786   4.239  17.471  0.00  0.00    +0.000 A 
ATOM     32  C   UNL     1       2.599   4.339  18.195  0.00  0.00    +0.000 A 
ATOM     33  C   UNL     1       2.085   5.597  18.534  0.00  0.00    +0.000 A 
ENDBRANCH  27  28
ENDBRANCH   3  26
TORSDOF 5
ENDMDL
MODEL 8
REMARK VINA RESULT:      -6.9      7.348      8.807
REMARK  Name = 
REMARK  5 active torsions:
REMARK  status: ('A' for Active; 'I' for Inactive)
REMARK    1  A    between atoms: C_2  and  C_4
REMARK    2  A    between atoms: C_6  and  O_7
REMARK    3  A    between atoms: N_9  and  C_10
REMARK    4  A    between atoms: C_12  and  C_13
REMARK    5  A    between atoms: C_14  and  C_15
REMARK                            x       y       z     vdW  Elec       q    Type
REMARK                         _______ _______ _______ _____ _____    ______ ____
ROOT
ATOM      1  C   UNL     1       0.345  11.549  19.557  0.00  0.00    +0.000 A 
ATOM      2  N   UNL     1       0.608  10.297  19.098  0.00  0.00    +0.000 NA
ATOM      3  C   UNL     1       1.658  10.118  18.261  0.00  0.00    +0.000 A 
ATOM      4  N   UNL     1       2.475  11.066  17.786  0.00  0.00    +0.000 NA
ATOM      5  C   UNL     1       2.229  12.272  18.311  0.00  0.00    +0.000 A 
ATOM      6  S   UNL     1       3.131  13.640  17.825  0.00  0.00    +0.000 S 
ATOM      7  C   UNL     1       2.299  14.646  18.913  0.00  0.00    +0.000 A 
ATOM      8  C   UNL     1       1.448  13.934  19.735  0.00  0.00    +0.000 A 
ATOM      9  C   UNL     1       1.264  12.580  19.255  0.00  0.00    +0.000 A 
ATOM     10  C   UNL     1       0.791  14.605  20.905  0.00  0.00    +0.000 C 
ATOM     11  C   UNL     1       0.544  16.089  20.616  0.00  0.00    +0.000 C 
ATOM     12  C   UNL     1       1.844  16.771  20.178  0.00  0.00    +0.000 C 
ATOM     13  C   UNL     1       2.439  16.137  18.907  0.00  0.00    +0.000 C 
ENDROOT
BRANCH   1  18
ATOM     14  C   UNL     1      -2.129  11.546  20.004  0.00  0.00    +0.000 C 
ATOM     15  C   UNL     1      -2.842  12.282  21.159  0.00  0.00    +0.000 C 
ATOM     16  C   UNL     1      -1.871  12.165  22.354  0.00  0.00    +0.000 C 
ATOM     17  C   UNL     1      -0.630  11.437  21.796  0.00  0.00    +0.000 C 
ATOM     18  N   UNL     1      -0.720  11.800  20.390  0.00  0.00    +0.000 N 
BRANCH  14  20
ATOM     19  N   UNL     1      -3.904  12.256  18.394  0.00  0.00    +0.000 N 
ATOM     20  C   UNL     1      -2.590  11.927  18.583  0.00  0.00    +0.000 C 
ATOM     21  O   UNL     1      -1.875  11.853  17.583  0.00  0.00    +0.000 OA
ATOM     22  H   UNL     1      -4.145  12.535  17.449  0.00  0.00    +0.000 HD
ATOM     23  H   UNL     1      -4.518  12.571  19.131  0.00  0.00    +0.000 HD
ENDBRANCH  14  20
BRANCH  16  24
ATOM     24  O   UNL     1      -2.483  11.506  23.450  0.00  0.00    +0.000 OA
ATOM     25  H   UNL     1      -2.542  12.127  24.196  0.00  0.00    +0.000 HD
ENDBRANCH  16  24
ENDBRANCH   1  18
BRANCH   3  26
ATOM     26  C   UNL     1       2.034   8.754  17.849  0.00  0.00    +0.000 C 
ATOM     27  C   UNL     1       2.415   7.741  18.649  0.00  0.00    +0.000 C 
BRANCH  27  28
ATOM     28  C   UNL     1       2.852   6.415  18.162  0.00  0.00    +0.000 A 
ATOM     29  C   UNL     1       2.021   5.283  18.204  0.00  0.00    +0.000 A 
ATOM     30  C   UNL     1       2.453   4.054  17.686  0.00  0.00    +0.000 A 
ATOM     31  C   UNL     1       3.713   3.943  17.110  0.00  0.00    +0.000 A 
ATOM     32  C   UNL     1       4.543   5.061  17.047  0.00  0.00    +0.000 A 
ATOM     33  C   UNL     1       4.113   6.288  17.567  0.00  0.00    +0.000 A 
ENDBRANCH  27  28
ENDBRANCH   3  26
TORSDOF 5
ENDMDL
MODEL 9
REMARK VINA RESULT:      -6.9      9.487     11.089
REMARK  Name = 
REMARK  5 active torsions:
REMARK  status: ('A' for Active; 'I' for Inactive)
REMARK    1  A    between atoms: C_2  and  C_4
REMARK    2  A    between atoms: C_6  and  O_7
REMARK    3  A    between atoms: N_9  and  C_10
REMARK    4  A    between atoms: C_12  and  C_13
REMARK    5  A    between atoms: C_14  and  C_15
REMARK                            x       y       z     vdW  Elec       q    Type
REMARK                         _______ _______ _______ _____ _____    ______ ____
ROOT
ATOM      1  C   UNL     1      -1.912  12.769  21.241  0.00  0.00    +0.000 A 
ATOM      2  N   UNL     1      -1.229  11.614  21.025  0.00  0.00    +0.000 NA
ATOM      3  C   UNL     1      -0.181  11.629  20.168  0.00  0.00    +0.000 A 
ATOM      4  N   UNL     1       0.258  12.674  19.455  0.00  0.00    +0.000 NA
ATOM      5  C   UNL     1      -0.394  13.806  19.744  0.00  0.00    +0.000 A 
ATOM      6  S   UNL     1      -0.022  15.263  18.929  0.00  0.00    +0.000 S 
ATOM      7  C   UNL     1      -1.154  16.133  19.851  0.00  0.00    +0.000 A 
ATOM      8  C   UNL     1      -1.707  15.366  20.857  0.00  0.00    +0.000 A 
ATOM      9  C   UNL     1      -1.408  13.961  20.673  0.00  0.00    +0.000 A 
ATOM     10  C   UNL     1      -2.559  16.008  21.913  0.00  0.00    +0.000 C 
ATOM     11  C   UNL     1      -3.306  17.221  21.350  0.00  0.00    +0.000 C 
ATOM     12  C   UNL     1      -2.323  18.194  20.692  0.00  0.00    +0.000 C 
ATOM     13  C   UNL     1      -1.541  17.545  19.535  0.00  0.00    +0.000 C 
ENDROOT
BRANCH   1  18
ATOM     14  C   UNL     1      -4.394  12.627  21.613  0.00  0.00    +0.000 C 
ATOM     15  C   UNL     1      -5.148  13.081  22.882  0.00  0.00    +0.000 C 
ATOM     16  C   UNL     1      -4.200  12.725  24.047  0.00  0.00    +0.000 C 
ATOM     17  C   UNL     1      -2.932  12.156  23.377  0.00  0.00    +0.000 C 
ATOM     18  N   UNL     1      -3.000  12.815  22.081  0.00  0.00    +0.000 N 
BRANCH  14  20
ATOM     19  N   UNL     1      -4.644  12.618  19.126  0.00  0.00    +0.000 N 
ATOM     20  C   UNL     1      -4.833  13.299  20.297  0.00  0.00    +0.000 C 
ATOM     21  O   UNL     1      -5.248  14.456  20.219  0.00  0.00    +0.000 OA
ATOM     22  H   UNL     1      -4.986  13.090  18.296  0.00  0.00    +0.000 HD
ATOM     23  H   UNL     1      -4.538  11.615  19.069  0.00  0.00    +0.000 HD
ENDBRANCH  14  20
BRANCH  16  24
ATOM     24  O   UNL     1      -4.822  11.833  24.958  0.00  0.00    +0.000 OA
ATOM     25  H   UNL     1      -4.156  11.203  25.284  0.00  0.00    +0.000 HD
ENDBRANCH  16  24
ENDBRANCH   1  18
BRANCH   3  26
ATOM     26  C   UNL     1       0.647  10.419  20.013  0.00  0.00    +0.000 C 
ATOM     27  C   UNL     1       1.078   9.874  18.860  0.00  0.00    +0.000 C 
BRANCH  27  28
ATOM     28  C   UNL     1       1.845   8.613  18.772  0.00  0.00    +0.000 A 
ATOM     29  C   UNL     1       2.682   8.312  17.685  0.00  0.00    +0.000 A 
ATOM     30  C   UNL     1       3.433   7.128  17.662  0.00  0.00    +0.000 A 
ATOM     31  C   UNL     1       3.366   6.237  18.727  0.00  0.00    +0.000 A 
ATOM     32  C   UNL     1       2.551   6.528  19.819  0.00  0.00    +0.000 A 
ATOM     33  C   UNL     1       1.799   7.709  19.841  0.00  0.00    +0.000 A 
ENDBRANCH  27  28
ENDBRANCH   3  26
TORSDOF 5
ENDMDL
