MODEL 1
REMARK VINA RESULT:      -8.1      0.000      0.000
REMARK  Name = 
REMARK  4 active torsions:
REMARK  status: ('A' for Active; 'I' for Inactive)
REMARK    1  A    between atoms: C_1  and  C_2
REMARK    2  A    between atoms: C_9  and  C_10
REMARK    3  A    between atoms: C_21  and  C_22
REMARK    4  A    between atoms: C_22  and  O_24
REMARK                            x       y       z     vdW  Elec       q    Type
REMARK                         _______ _______ _______ _____ _____    ______ ____
ROOT
ATOM      1  C   UNL     1       4.233   4.036  18.697  0.00  0.00    +0.000 C 
ATOM      2  O   UNL     1       4.258   2.808  18.700  0.00  0.00    +0.000 OA
ATOM      3  N   UNL     1       3.084   4.762  19.037  0.00  0.00    +0.000 N 
ATOM      4  C   UNL     1       2.905   6.152  18.610  0.00  0.00    +0.000 C 
ATOM      5  C   UNL     1       2.021   7.007  19.462  0.00  0.00    +0.000 A 
ATOM      6  C   UNL     1       1.985   8.389  19.207  0.00  0.00    +0.000 A 
ATOM      7  C   UNL     1       1.253   9.238  20.034  0.00  0.00    +0.000 A 
ATOM      8  C   UNL     1       0.535   8.707  21.095  0.00  0.00    +0.000 A 
ATOM      9  C   UNL     1       0.542   7.330  21.335  0.00  0.00    +0.000 A 
ATOM     10  C   UNL     1       1.282   6.467  20.516  0.00  0.00    +0.000 A 
ATOM     11  C   UNL     1       1.365   4.993  20.816  0.00  0.00    +0.000 C 
ATOM     12  C   UNL     1       1.861   4.133  19.619  0.00  0.00    +0.000 C 
ENDROOT
BRANCH   1  21
ATOM     13  C   UNL     1       4.727   3.891  13.625  0.00  0.00    +0.000 C 
ATOM     14  C   UNL     1       5.443   4.733  14.673  0.00  0.00    +0.000 C 
ATOM     15  O   UNL     1       5.156   4.210  15.976  0.00  0.00    +0.000 OA
ATOM     16  C   UNL     1       5.921   4.780  16.969  0.00  0.00    +0.000 A 
ATOM     17  C   UNL     1       7.193   5.310  16.685  0.00  0.00    +0.000 A 
ATOM     18  C   UNL     1       8.001   5.831  17.696  0.00  0.00    +0.000 A 
ATOM     19  C   UNL     1       7.522   5.883  19.001  0.00  0.00    +0.000 A 
ATOM     20  C   UNL     1       6.250   5.394  19.292  0.00  0.00    +0.000 A 
ATOM     21  C   UNL     1       5.479   4.758  18.301  0.00  0.00    +0.000 A 
ATOM     22  N   UNL     1       7.705   5.259  15.388  0.00  0.00    +0.000 N 
ATOM     23  C   UNL     1       6.936   4.848  14.334  0.00  0.00    +0.000 C 
ATOM     24  O   UNL     1       7.423   4.702  13.210  0.00  0.00    +0.000 OA
ATOM     25  H   UNL     1       8.676   5.470  15.192  0.00  0.00    +0.000 HD
ENDBRANCH   1  21
BRANCH  12  26
ATOM     26  C   UNL     1       1.801   2.653  20.089  0.00  0.00    +0.000 C 
ATOM     27  O   UNL     1       1.741   2.305  21.263  0.00  0.00    +0.000 OA
BRANCH  26  28
ATOM     28  O   UNL     1       1.572   1.759  19.099  0.00  0.00    +0.000 OA
ATOM     29  H   UNL     1       0.680   1.911  18.709  0.00  0.00    +0.000 HD
ENDBRANCH  26  28
ENDBRANCH  12  26
TORSDOF 3
ENDMDL
MODEL 2
REMARK VINA RESULT:      -7.5      3.016      7.182
REMARK  Name = 
REMARK  4 active torsions:
REMARK  status: ('A' for Active; 'I' for Inactive)
REMARK    1  A    between atoms: C_1  and  C_2
REMARK    2  A    between atoms: C_9  and  C_10
REMARK    3  A    between atoms: C_21  and  C_22
REMARK    4  A    between atoms: C_22  and  O_24
REMARK                            x       y       z     vdW  Elec       q    Type
REMARK                         _______ _______ _______ _____ _____    ______ ____
ROOT
ATOM      1  C   UNL     1       2.155   6.488  19.914  0.00  0.00    +0.000 C 
ATOM      2  O   UNL     1       1.475   6.080  20.851  0.00  0.00    +0.000 OA
ATOM      3  N   UNL     1       3.140   5.700  19.304  0.00  0.00    +0.000 N 
ATOM      4  C   UNL     1       4.227   6.302  18.526  0.00  0.00    +0.000 C 
ATOM      5  C   UNL     1       4.841   5.450  17.461  0.00  0.00    +0.000 A 
ATOM      6  C   UNL     1       5.739   6.052  16.564  0.00  0.00    +0.000 A 
ATOM      7  C   UNL     1       6.262   5.324  15.497  0.00  0.00    +0.000 A 
ATOM      8  C   UNL     1       5.912   3.991  15.343  0.00  0.00    +0.000 A 
ATOM      9  C   UNL     1       5.043   3.378  16.251  0.00  0.00    +0.000 A 
ATOM     10  C   UNL     1       4.504   4.103  17.322  0.00  0.00    +0.000 A 
ATOM     11  C   UNL     1       3.501   3.476  18.256  0.00  0.00    +0.000 C 
ATOM     12  C   UNL     1       3.321   4.246  19.595  0.00  0.00    +0.000 C 
ENDROOT
BRANCH   1  21
ATOM     13  C   UNL     1       0.150   9.257  23.695  0.00  0.00    +0.000 C 
ATOM     14  C   UNL     1       0.750   9.680  22.361  0.00  0.00    +0.000 C 
ATOM     15  O   UNL     1       0.917   8.522  21.531  0.00  0.00    +0.000 OA
ATOM     16  C   UNL     1       1.263   8.832  20.235  0.00  0.00    +0.000 A 
ATOM     17  C   UNL     1       0.893  10.063  19.663  0.00  0.00    +0.000 A 
ATOM     18  C   UNL     1       1.183  10.357  18.331  0.00  0.00    +0.000 A 
ATOM     19  C   UNL     1       1.901   9.445  17.564  0.00  0.00    +0.000 A 
ATOM     20  C   UNL     1       2.305   8.235  18.127  0.00  0.00    +0.000 A 
ATOM     21  C   UNL     1       1.913   7.881  19.431  0.00  0.00    +0.000 A 
ATOM     22  N   UNL     1       0.160  10.991  20.403  0.00  0.00    +0.000 N 
ATOM     23  C   UNL     1      -0.079  10.811  21.738  0.00  0.00    +0.000 C 
ATOM     24  O   UNL     1      -0.817  11.578  22.361  0.00  0.00    +0.000 OA
ATOM     25  H   UNL     1      -0.266  11.800  19.966  0.00  0.00    +0.000 HD
ENDBRANCH   1  21
BRANCH  12  26
ATOM     26  C   UNL     1       2.324   3.415  20.447  0.00  0.00    +0.000 C 
ATOM     27  O   UNL     1       2.520   3.086  21.613  0.00  0.00    +0.000 OA
BRANCH  26  28
ATOM     28  O   UNL     1       1.095   3.275  19.897  0.00  0.00    +0.000 OA
ATOM     29  H   UNL     1       1.009   2.382  19.488  0.00  0.00    +0.000 HD
ENDBRANCH  26  28
ENDBRANCH  12  26
TORSDOF 3
ENDMDL
MODEL 3
REMARK VINA RESULT:      -7.2      1.463      2.821
REMARK  Name = 
REMARK  4 active torsions:
REMARK  status: ('A' for Active; 'I' for Inactive)
REMARK    1  A    between atoms: C_1  and  C_2
REMARK    2  A    between atoms: C_9  and  C_10
REMARK    3  A    between atoms: C_21  and  C_22
REMARK    4  A    between atoms: C_22  and  O_24
REMARK                            x       y       z     vdW  Elec       q    Type
REMARK                         _______ _______ _______ _____ _____    ______ ____
ROOT
ATOM      1  C   UNL     1       3.775   3.410  17.551  0.00  0.00    +0.000 C 
ATOM      2  O   UNL     1       3.777   2.191  17.703  0.00  0.00    +0.000 OA
ATOM      3  N   UNL     1       2.865   4.245  18.214  0.00  0.00    +0.000 N 
ATOM      4  C   UNL     1       2.558   5.588  17.715  0.00  0.00    +0.000 C 
ATOM      5  C   UNL     1       2.096   6.590  18.726  0.00  0.00    +0.000 A 
ATOM      6  C   UNL     1       1.987   7.933  18.329  0.00  0.00    +0.000 A 
ATOM      7  C   UNL     1       1.655   8.917  19.258  0.00  0.00    +0.000 A 
ATOM      8  C   UNL     1       1.403   8.556  20.574  0.00  0.00    +0.000 A 
ATOM      9  C   UNL     1       1.479   7.217  20.967  0.00  0.00    +0.000 A 
ATOM     10  C   UNL     1       1.821   6.221  20.044  0.00  0.00    +0.000 A 
ATOM     11  C   UNL     1       1.989   4.787  20.475  0.00  0.00    +0.000 C 
ATOM     12  C   UNL     1       1.959   3.768  19.301  0.00  0.00    +0.000 C 
ENDROOT
BRANCH   1  21
ATOM     13  C   UNL     1       7.298   5.943  20.226  0.00  0.00    +0.000 C 
ATOM     14  C   UNL     1       7.282   5.497  18.770  0.00  0.00    +0.000 C 
ATOM     15  O   UNL     1       5.959   5.070  18.422  0.00  0.00    +0.000 OA
ATOM     16  C   UNL     1       5.801   4.842  17.073  0.00  0.00    +0.000 A 
ATOM     17  C   UNL     1       6.597   5.517  16.129  0.00  0.00    +0.000 A 
ATOM     18  C   UNL     1       6.401   5.340  14.759  0.00  0.00    +0.000 A 
ATOM     19  C   UNL     1       5.441   4.439  14.312  0.00  0.00    +0.000 A 
ATOM     20  C   UNL     1       4.668   3.736  15.235  0.00  0.00    +0.000 A 
ATOM     21  C   UNL     1       4.777   3.998  16.614  0.00  0.00    +0.000 A 
ATOM     22  N   UNL     1       7.558   6.438  16.547  0.00  0.00    +0.000 N 
ATOM     23  C   UNL     1       7.869   6.593  17.871  0.00  0.00    +0.000 C 
ATOM     24  O   UNL     1       8.638   7.482  18.243  0.00  0.00    +0.000 OA
ATOM     25  H   UNL     1       8.017   7.060  15.893  0.00  0.00    +0.000 HD
ENDBRANCH   1  21
BRANCH  12  26
ATOM     26  C   UNL     1       2.062   2.357  19.943  0.00  0.00    +0.000 C 
ATOM     27  O   UNL     1       2.329   2.155  21.124  0.00  0.00    +0.000 OA
BRANCH  26  28
ATOM     28  O   UNL     1       1.595   1.351  19.168  0.00  0.00    +0.000 OA
ATOM     29  H   UNL     1       0.906   0.842  19.656  0.00  0.00    +0.000 HD
ENDBRANCH  26  28
ENDBRANCH  12  26
TORSDOF 3
ENDMDL
MODEL 4
REMARK VINA RESULT:      -7.0      6.856     10.494
REMARK  Name = 
REMARK  4 active torsions:
REMARK  status: ('A' for Active; 'I' for Inactive)
REMARK    1  A    between atoms: C_1  and  C_2
REMARK    2  A    between atoms: C_9  and  C_10
REMARK    3  A    between atoms: C_21  and  C_22
REMARK    4  A    between atoms: C_22  and  O_24
REMARK                            x       y       z     vdW  Elec       q    Type
REMARK                         _______ _______ _______ _____ _____    ______ ____
ROOT
ATOM      1  C   UNL     1      -1.751  11.487  19.814  0.00  0.00    +0.000 C 
ATOM      2  O   UNL     1      -2.236  12.150  20.726  0.00  0.00    +0.000 OA
ATOM      3  N   UNL     1      -0.546  10.786  19.956  0.00  0.00    +0.000 N 
ATOM      4  C   UNL     1       0.248  10.387  18.791  0.00  0.00    +0.000 C 
ATOM      5  C   UNL     1       1.131   9.191  18.958  0.00  0.00    +0.000 A 
ATOM      6  C   UNL     1       1.750   8.656  17.816  0.00  0.00    +0.000 A 
ATOM      7  C   UNL     1       2.502   7.487  17.906  0.00  0.00    +0.000 A 
ATOM      8  C   UNL     1       2.661   6.869  19.138  0.00  0.00    +0.000 A 
ATOM      9  C   UNL     1       2.074   7.414  20.283  0.00  0.00    +0.000 A 
ATOM     10  C   UNL     1       1.307   8.584  20.203  0.00  0.00    +0.000 A 
ATOM     11  C   UNL     1       0.600   9.133  21.416  0.00  0.00    +0.000 C 
ATOM     12  C   UNL     1       0.150  10.614  21.266  0.00  0.00    +0.000 C 
ENDROOT
BRANCH   1  21
ATOM     13  C   UNL     1      -6.449  13.355  20.468  0.00  0.00    +0.000 C 
ATOM     14  C   UNL     1      -5.660  13.064  19.198  0.00  0.00    +0.000 C 
ATOM     15  O   UNL     1      -4.501  12.288  19.530  0.00  0.00    +0.000 OA
ATOM     16  C   UNL     1      -3.838  11.806  18.423  0.00  0.00    +0.000 A 
ATOM     17  C   UNL     1      -4.522  11.573  17.216  0.00  0.00    +0.000 A 
ATOM     18  C   UNL     1      -3.872  11.024  16.111  0.00  0.00    +0.000 A 
ATOM     19  C   UNL     1      -2.509  10.754  16.179  0.00  0.00    +0.000 A 
ATOM     20  C   UNL     1      -1.809  11.012  17.356  0.00  0.00    +0.000 A 
ATOM     21  C   UNL     1      -2.482  11.452  18.512  0.00  0.00    +0.000 A 
ATOM     22  N   UNL     1      -5.892  11.821  17.124  0.00  0.00    +0.000 N 
ATOM     23  C   UNL     1      -6.574  12.443  18.133  0.00  0.00    +0.000 C 
ATOM     24  O   UNL     1      -7.801  12.562  18.092  0.00  0.00    +0.000 OA
ATOM     25  H   UNL     1      -6.437  11.500  16.333  0.00  0.00    +0.000 HD
ENDBRANCH   1  21
BRANCH  12  26
ATOM     26  C   UNL     1      -0.477  11.020  22.628  0.00  0.00    +0.000 C 
ATOM     27  O   UNL     1      -0.783  10.225  23.510  0.00  0.00    +0.000 OA
BRANCH  26  28
ATOM     28  O   UNL     1      -0.444  12.348  22.888  0.00  0.00    +0.000 OA
ATOM     29  H   UNL     1      -1.243  12.610  23.401  0.00  0.00    +0.000 HD
ENDBRANCH  26  28
ENDBRANCH  12  26
TORSDOF 3
ENDMDL
MODEL 5
REMARK VINA RESULT:      -6.9      3.307      5.715
REMARK  Name = 
REMARK  4 active torsions:
REMARK  status: ('A' for Active; 'I' for Inactive)
REMARK    1  A    between atoms: C_1  and  C_2
REMARK    2  A    between atoms: C_9  and  C_10
REMARK    3  A    between atoms: C_21  and  C_22
REMARK    4  A    between atoms: C_22  and  O_24
REMARK                            x       y       z     vdW  Elec       q    Type
REMARK                         _______ _______ _______ _____ _____    ______ ____
ROOT
ATOM      1  C   UNL     1       1.475   7.814  20.301  0.00  0.00    +0.000 C 
ATOM      2  O   UNL     1       1.023   7.086  21.180  0.00  0.00    +0.000 OA
ATOM      3  N   UNL     1       1.138   9.171  20.207  0.00  0.00    +0.000 N 
ATOM      4  C   UNL     1       1.293   9.911  18.952  0.00  0.00    +0.000 C 
ATOM      5  C   UNL     1       1.497  11.389  19.065  0.00  0.00    +0.000 A 
ATOM      6  C   UNL     1       1.851  12.103  17.907  0.00  0.00    +0.000 A 
ATOM      7  C   UNL     1       2.146  13.462  17.981  0.00  0.00    +0.000 A 
ATOM      8  C   UNL     1       2.058  14.115  19.202  0.00  0.00    +0.000 A 
ATOM      9  C   UNL     1       1.676  13.417  20.351  0.00  0.00    +0.000 A 
ATOM     10  C   UNL     1       1.387  12.048  20.291  0.00  0.00    +0.000 A 
ATOM     11  C   UNL     1       1.056  11.268  21.538  0.00  0.00    +0.000 C 
ATOM     12  C   UNL     1       0.372   9.899  21.262  0.00  0.00    +0.000 C 
ENDROOT
BRANCH   1  21
ATOM     13  C   UNL     1       2.433   2.981  21.608  0.00  0.00    +0.000 C 
ATOM     14  C   UNL     1       2.700   3.735  20.311  0.00  0.00    +0.000 C 
ATOM     15  O   UNL     1       2.508   5.138  20.533  0.00  0.00    +0.000 OA
ATOM     16  C   UNL     1       2.923   5.915  19.474  0.00  0.00    +0.000 A 
ATOM     17  C   UNL     1       3.936   5.469  18.606  0.00  0.00    +0.000 A 
ATOM     18  C   UNL     1       4.407   6.277  17.570  0.00  0.00    +0.000 A 
ATOM     19  C   UNL     1       3.829   7.523  17.352  0.00  0.00    +0.000 A 
ATOM     20  C   UNL     1       2.801   7.964  18.183  0.00  0.00    +0.000 A 
ATOM     21  C   UNL     1       2.403   7.207  19.301  0.00  0.00    +0.000 A 
ATOM     22  N   UNL     1       4.544   4.230  18.809  0.00  0.00    +0.000 N 
ATOM     23  C   UNL     1       4.073   3.349  19.743  0.00  0.00    +0.000 C 
ATOM     24  O   UNL     1       4.677   2.303  19.993  0.00  0.00    +0.000 OA
ATOM     25  H   UNL     1       5.386   3.964  18.312  0.00  0.00    +0.000 HD
ENDBRANCH   1  21
BRANCH  12  26
ATOM     26  C   UNL     1       0.039   9.289  22.651  0.00  0.00    +0.000 C 
ATOM     27  O   UNL     1       0.512   9.688  23.710  0.00  0.00    +0.000 OA
BRANCH  26  28
ATOM     28  O   UNL     1      -1.009   8.433  22.651  0.00  0.00    +0.000 OA
ATOM     29  H   UNL     1      -0.855   7.714  23.308  0.00  0.00    +0.000 HD
ENDBRANCH  26  28
ENDBRANCH  12  26
TORSDOF 3
ENDMDL
MODEL 6
REMARK VINA RESULT:      -6.6      9.574     12.813
REMARK  Name = 
REMARK  4 active torsions:
REMARK  status: ('A' for Active; 'I' for Inactive)
REMARK    1  A    between atoms: C_1  and  C_2
REMARK    2  A    between atoms: C_9  and  C_10
REMARK    3  A    between atoms: C_21  and  C_22
REMARK    4  A    between atoms: C_22  and  O_24
REMARK                            x       y       z     vdW  Elec       q    Type
REMARK                         _______ _______ _______ _____ _____    ______ ____
ROOT
ATOM      1  C   UNL     1       6.985  16.477  18.572  0.00  0.00    +0.000 C 
ATOM      2  O   UNL     1       7.040  17.702  18.528  0.00  0.00    +0.000 OA
ATOM      3  N   UNL     1       8.072  15.665  18.219  0.00  0.00    +0.000 N 
ATOM      4  C   UNL     1       7.885  14.262  17.838  0.00  0.00    +0.000 C 
ATOM      5  C   UNL     1       9.047  13.346  18.062  0.00  0.00    +0.000 A 
ATOM      6  C   UNL     1       8.845  11.965  17.902  0.00  0.00    +0.000 A 
ATOM      7  C   UNL     1       9.868  11.066  18.194  0.00  0.00    +0.000 A 
ATOM      8  C   UNL     1      11.100  11.545  18.615  0.00  0.00    +0.000 A 
ATOM      9  C   UNL     1      11.316  12.920  18.746  0.00  0.00    +0.000 A 
ATOM     10  C   UNL     1      10.291  13.833  18.465  0.00  0.00    +0.000 A 
ATOM     11  C   UNL     1      10.487  15.311  18.684  0.00  0.00    +0.000 C 
ATOM     12  C   UNL     1       9.441  16.200  17.954  0.00  0.00    +0.000 C 
ENDROOT
BRANCH   1  21
ATOM     13  C   UNL     1       7.064  15.810  23.625  0.00  0.00    +0.000 C 
ATOM     14  C   UNL     1       5.915  15.738  22.628  0.00  0.00    +0.000 C 
ATOM     15  O   UNL     1       6.445  15.722  21.296  0.00  0.00    +0.000 OA
ATOM     16  C   UNL     1       5.494  15.454  20.338  0.00  0.00    +0.000 A 
ATOM     17  C   UNL     1       4.347  14.701  20.650  0.00  0.00    +0.000 A 
ATOM     18  C   UNL     1       3.410  14.371  19.671  0.00  0.00    +0.000 A 
ATOM     19  C   UNL     1       3.578  14.839  18.371  0.00  0.00    +0.000 A 
ATOM     20  C   UNL     1       4.692  15.615  18.054  0.00  0.00    +0.000 A 
ATOM     21  C   UNL     1       5.700  15.851  19.007  0.00  0.00    +0.000 A 
ATOM     22  N   UNL     1       4.159  14.206  21.941  0.00  0.00    +0.000 N 
ATOM     23  C   UNL     1       4.984  14.566  22.970  0.00  0.00    +0.000 C 
ATOM     24  O   UNL     1       4.880  14.043  24.082  0.00  0.00    +0.000 OA
ATOM     25  H   UNL     1       3.441  13.522  22.147  0.00  0.00    +0.000 HD
ENDBRANCH   1  21
BRANCH  12  26
ATOM     26  C   UNL     1       9.850  17.673  18.228  0.00  0.00    +0.000 C 
ATOM     27  O   UNL     1       9.979  18.526  17.356  0.00  0.00    +0.000 OA
BRANCH  26  28
ATOM     28  O   UNL     1       9.822  18.031  19.533  0.00  0.00    +0.000 OA
ATOM     29  H   UNL     1       9.758  17.227  20.101  0.00  0.00    +0.000 HD
ENDBRANCH  26  28
ENDBRANCH  12  26
TORSDOF 3
ENDMDL
MODEL 7
REMARK VINA RESULT:      -6.6      7.717     10.908
REMARK  Name = 
REMARK  4 active torsions:
REMARK  status: ('A' for Active; 'I' for Inactive)
REMARK    1  A    between atoms: C_1  and  C_2
REMARK    2  A    between atoms: C_9  and  C_10
REMARK    3  A    between atoms: C_21  and  C_22
REMARK    4  A    between atoms: C_22  and  O_24
REMARK                            x       y       z     vdW  Elec       q    Type
REMARK                         _______ _______ _______ _____ _____    ______ ____
ROOT
ATOM      1  C   UNL     1      -1.455  10.944  19.167  0.00  0.00    +0.000 C 
ATOM      2  O   UNL     1      -1.419   9.856  19.735  0.00  0.00    +0.000 OA
ATOM      3  N   UNL     1      -0.689  12.038  19.593  0.00  0.00    +0.000 N 
ATOM      4  C   UNL     1      -1.050  13.411  19.231  0.00  0.00    +0.000 C 
ATOM      5  C   UNL     1       0.064  14.409  19.189  0.00  0.00    +0.000 A 
ATOM      6  C   UNL     1      -0.202  15.680  18.652  0.00  0.00    +0.000 A 
ATOM      7  C   UNL     1       0.825  16.609  18.502  0.00  0.00    +0.000 A 
ATOM      8  C   UNL     1       2.109  16.282  18.915  0.00  0.00    +0.000 A 
ATOM      9  C   UNL     1       2.372  15.030  19.478  0.00  0.00    +0.000 A 
ATOM     10  C   UNL     1       1.349  14.084  19.624  0.00  0.00    +0.000 A 
ATOM     11  C   UNL     1       1.640  12.702  20.151  0.00  0.00    +0.000 C 
ATOM     12  C   UNL     1       0.377  11.934  20.635  0.00  0.00    +0.000 C 
ENDROOT
BRANCH   1  21
ATOM     13  C   UNL     1      -5.904  12.901  20.704  0.00  0.00    +0.000 C 
ATOM     14  C   UNL     1      -5.320  12.728  19.308  0.00  0.00    +0.000 C 
ATOM     15  O   UNL     1      -4.170  11.876  19.379  0.00  0.00    +0.000 OA
ATOM     16  C   UNL     1      -3.697  11.500  18.142  0.00  0.00    +0.000 A 
ATOM     17  C   UNL     1      -4.558  11.433  17.030  0.00  0.00    +0.000 A 
ATOM     18  C   UNL     1      -4.101  10.991  15.789  0.00  0.00    +0.000 A 
ATOM     19  C   UNL     1      -2.759  10.663  15.625  0.00  0.00    +0.000 A 
ATOM     20  C   UNL     1      -1.887  10.758  16.708  0.00  0.00    +0.000 A 
ATOM     21  C   UNL     1      -2.364  11.086  17.991  0.00  0.00    +0.000 A 
ATOM     22  N   UNL     1      -5.911  11.742  17.167  0.00  0.00    +0.000 N 
ATOM     23  C   UNL     1      -6.409  12.269  18.328  0.00  0.00    +0.000 C 
ATOM     24  O   UNL     1      -7.621  12.438  18.481  0.00  0.00    +0.000 OA
ATOM     25  H   UNL     1      -6.580  11.535  16.435  0.00  0.00    +0.000 HD
ENDBRANCH   1  21
BRANCH  12  26
ATOM     26  C   UNL     1       0.880  10.582  21.211  0.00  0.00    +0.000 C 
ATOM     27  O   UNL     1       0.717  10.225  22.373  0.00  0.00    +0.000 OA
BRANCH  26  28
ATOM     28  O   UNL     1       1.307   9.698  20.279  0.00  0.00    +0.000 OA
ATOM     29  H   UNL     1       1.908   9.036  20.694  0.00  0.00    +0.000 HD
ENDBRANCH  26  28
ENDBRANCH  12  26
TORSDOF 3
ENDMDL
MODEL 8
REMARK VINA RESULT:      -6.6      3.840      7.498
REMARK  Name = 
REMARK  4 active torsions:
REMARK  status: ('A' for Active; 'I' for Inactive)
REMARK    1  A    between atoms: C_1  and  C_2
REMARK    2  A    between atoms: C_9  and  C_10
REMARK    3  A    between atoms: C_21  and  C_22
REMARK    4  A    between atoms: C_22  and  O_24
REMARK                            x       y       z     vdW  Elec       q    Type
REMARK                         _______ _______ _______ _____ _____    ______ ____
ROOT
ATOM      1  C   UNL     1       2.197   8.302  18.831  0.00  0.00    +0.000 C 
ATOM      2  O   UNL     1       2.720   9.035  17.996  0.00  0.00    +0.000 OA
ATOM      3  N   UNL     1       2.394   6.914  18.838  0.00  0.00    +0.000 N 
ATOM      4  C   UNL     1       1.454   6.013  19.509  0.00  0.00    +0.000 C 
ATOM      5  C   UNL     1       2.003   4.704  19.984  0.00  0.00    +0.000 A 
ATOM      6  C   UNL     1       1.193   3.903  20.806  0.00  0.00    +0.000 A 
ATOM      7  C   UNL     1       1.694   2.723  21.353  0.00  0.00    +0.000 A 
ATOM      8  C   UNL     1       2.990   2.329  21.056  0.00  0.00    +0.000 A 
ATOM      9  C   UNL     1       3.790   3.107  20.213  0.00  0.00    +0.000 A 
ATOM     10  C   UNL     1       3.300   4.300  19.666  0.00  0.00    +0.000 A 
ATOM     11  C   UNL     1       4.181   5.188  18.826  0.00  0.00    +0.000 C 
ATOM     12  C   UNL     1       3.399   6.226  17.973  0.00  0.00    +0.000 C 
ENDROOT
BRANCH   1  21
ATOM     13  C   UNL     1      -1.888  10.309  16.535  0.00  0.00    +0.000 C 
ATOM     14  C   UNL     1      -1.607  10.031  18.006  0.00  0.00    +0.000 C 
ATOM     15  O   UNL     1      -0.217   9.724  18.171  0.00  0.00    +0.000 OA
ATOM     16  C   UNL     1       0.170   9.658  19.491  0.00  0.00    +0.000 A 
ATOM     17  C   UNL     1      -0.515  10.388  20.481  0.00  0.00    +0.000 A 
ATOM     18  C   UNL     1      -0.091  10.377  21.810  0.00  0.00    +0.000 A 
ATOM     19  C   UNL     1       0.994   9.589  22.180  0.00  0.00    +0.000 A 
ATOM     20  C   UNL     1       1.661   8.834  21.217  0.00  0.00    +0.000 A 
ATOM     21  C   UNL     1       1.314   8.932  19.857  0.00  0.00    +0.000 A 
ATOM     22  N   UNL     1      -1.598  11.198  20.137  0.00  0.00    +0.000 N 
ATOM     23  C   UNL     1      -2.125  11.185  18.875  0.00  0.00    +0.000 C 
ATOM     24  O   UNL     1      -3.009  11.980  18.547  0.00  0.00    +0.000 OA
ATOM     25  H   UNL     1      -1.993  11.862  20.792  0.00  0.00    +0.000 HD
ENDBRANCH   1  21
BRANCH  12  26
ATOM     26  C   UNL     1       4.458   6.983  17.125  0.00  0.00    +0.000 C 
ATOM     27  O   UNL     1       5.656   7.015  17.387  0.00  0.00    +0.000 OA
BRANCH  26  28
ATOM     28  O   UNL     1       4.012   7.413  15.922  0.00  0.00    +0.000 OA
ATOM     29  H   UNL     1       4.773   7.550  15.310  0.00  0.00    +0.000 HD
ENDBRANCH  26  28
ENDBRANCH  12  26
TORSDOF 3
ENDMDL
MODEL 9
REMARK VINA RESULT:      -6.6      7.839     11.332
REMARK  Name = 
REMARK  4 active torsions:
REMARK  status: ('A' for Active; 'I' for Inactive)
REMARK    1  A    between atoms: C_1  and  C_2
REMARK    2  A    between atoms: C_9  and  C_10
REMARK    3  A    between atoms: C_21  and  C_22
REMARK    4  A    between atoms: C_22  and  O_24
REMARK                            x       y       z     vdW  Elec       q    Type
REMARK                         _______ _______ _______ _____ _____    ______ ____
ROOT
ATOM      1  C   UNL     1      -0.323  13.917  21.253  0.00  0.00    +0.000 C 
ATOM      2  O   UNL     1       0.251  13.342  22.173  0.00  0.00    +0.000 OA
ATOM      3  N   UNL     1       0.201  15.065  20.644  0.00  0.00    +0.000 N 
ATOM      4  C   UNL     1      -0.653  15.989  19.893  0.00  0.00    +0.000 C 
ATOM      5  C   UNL     1       0.010  16.797  18.822  0.00  0.00    +0.000 A 
ATOM      6  C   UNL     1      -0.803  17.539  17.949  0.00  0.00    +0.000 A 
ATOM      7  C   UNL     1      -0.239  18.228  16.877  0.00  0.00    +0.000 A 
ATOM      8  C   UNL     1       1.136  18.200  16.695  0.00  0.00    +0.000 A 
ATOM      9  C   UNL     1       1.953  17.489  17.579  0.00  0.00    +0.000 A 
ATOM     10  C   UNL     1       1.396  16.785  18.654  0.00  0.00    +0.000 A 
ATOM     11  C   UNL     1       2.257  15.946  19.563  0.00  0.00    +0.000 C 
ATOM     12  C   UNL     1       1.578  15.577  20.912  0.00  0.00    +0.000 C 
ENDROOT
BRANCH   1  21
ATOM     13  C   UNL     1       0.528  10.012  18.088  0.00  0.00    +0.000 C 
ATOM     14  C   UNL     1      -0.745  10.466  18.792  0.00  0.00    +0.000 C 
ATOM     15  O   UNL     1      -0.538  11.772  19.346  0.00  0.00    +0.000 OA
ATOM     16  C   UNL     1      -1.694  12.346  19.824  0.00  0.00    +0.000 A 
ATOM     17  C   UNL     1      -2.948  11.997  19.289  0.00  0.00    +0.000 A 
ATOM     18  C   UNL     1      -4.118  12.621  19.723  0.00  0.00    +0.000 A 
ATOM     19  C   UNL     1      -4.057  13.566  20.741  0.00  0.00    +0.000 A 
ATOM     20  C   UNL     1      -2.826  13.898  21.305  0.00  0.00    +0.000 A 
ATOM     21  C   UNL     1      -1.631  13.362  20.791  0.00  0.00    +0.000 A 
ATOM     22  N   UNL     1      -3.039  11.062  18.257  0.00  0.00    +0.000 N 
ATOM     23  C   UNL     1      -1.948  10.344  17.847  0.00  0.00    +0.000 C 
ATOM     24  O   UNL     1      -2.010   9.601  16.865  0.00  0.00    +0.000 OA
ATOM     25  H   UNL     1      -3.899  10.924  17.741  0.00  0.00    +0.000 HD
ENDBRANCH   1  21
BRANCH  12  26
ATOM     26  C   UNL     1       2.637  14.793  21.734  0.00  0.00    +0.000 C 
ATOM     27  O   UNL     1       2.987  15.094  22.871  0.00  0.00    +0.000 OA
BRANCH  26  28
ATOM     28  O   UNL     1       2.981  13.594  21.209  0.00  0.00    +0.000 OA
ATOM     29  H   UNL     1       2.745  12.871  21.837  0.00  0.00    +0.000 HD
ENDBRANCH  26  28
ENDBRANCH  12  26
TORSDOF 3
ENDMDL
