MODEL 1
REMARK VINA RESULT:      -9.2      0.000      0.000
REMARK  Name = 
REMARK  6 active torsions:
REMARK  status: ('A' for Active; 'I' for Inactive)
REMARK    1  A    between atoms: C_2  and  C_16
REMARK    2  A    between atoms: N_3  and  C_4
REMARK    3  A    between atoms: C_4  and  C_5
REMARK    4  A    between atoms: C_8  and  C_9
REMARK    5  A    between atoms: C_20  and  C_21
REMARK    6  A    between atoms: C_24  and  C_25
REMARK                            x       y       z     vdW  Elec       q    Type
REMARK                         _______ _______ _______ _____ _____    ______ ____
ROOT
ATOM      1  O   UNL     1       2.433   5.497  20.561  0.00  0.00    +0.000 OA
ATOM      2  C   UNL     1       2.834   6.270  19.696  0.00  0.00    +0.000 C 
ATOM      3  N   UNL     1       3.880   5.963  18.859  0.00  0.00    +0.000 N 
ATOM      4  H   UNL     1       4.109   6.535  18.053  0.00  0.00    +0.000 HD
ENDROOT
BRANCH   2   5
ATOM      5  C   UNL     1       2.179   7.593  19.516  0.00  0.00    +0.000 A 
ATOM      6  C   UNL     1       2.090   8.119  18.222  0.00  0.00    +0.000 A 
ATOM      7  C   UNL     1       1.428   9.325  17.996  0.00  0.00    +0.000 A 
ATOM      8  C   UNL     1       0.829   9.999  19.061  0.00  0.00    +0.000 A 
ATOM      9  C   UNL     1       0.892   9.478  20.363  0.00  0.00    +0.000 A 
ATOM     10  C   UNL     1       1.587   8.277  20.585  0.00  0.00    +0.000 A 
BRANCH   9  11
ATOM     11  C   UNL     1       0.228  10.149  21.474  0.00  0.00    +0.000 A 
ATOM     12  N   UNL     1       0.564   9.990  22.764  0.00  0.00    +0.000 NA
ATOM     13  O   UNL     1      -0.330  10.811  23.447  0.00  0.00    +0.000 OA
ATOM     14  C   UNL     1      -1.130  11.390  22.505  0.00  0.00    +0.000 A 
ATOM     15  N   UNL     1      -0.815  11.027  21.276  0.00  0.00    +0.000 NA
BRANCH  14  16
ATOM     16  C   UNL     1      -2.204  12.280  23.013  0.00  0.00    +0.000 C 
ATOM     17  F   UNL     1      -1.725  13.324  23.744  0.00  0.00    +0.000 F 
ATOM     18  F   UNL     1      -2.942  12.824  22.007  0.00  0.00    +0.000 F 
ATOM     19  F   UNL     1      -3.076  11.616  23.819  0.00  0.00    +0.000 F 
ENDBRANCH  14  16
ENDBRANCH   9  11
ENDBRANCH   2   5
BRANCH   3  20
ATOM     20  C   UNL     1       4.561   4.700  18.996  0.00  0.00    +0.000 C 
BRANCH  20  21
ATOM     21  C   UNL     1       5.643   4.591  17.987  0.00  0.00    +0.000 A 
ATOM     22  N   UNL     1       6.943   4.525  18.181  0.00  0.00    +0.000 NA
ATOM     23  N   UNL     1       7.549   4.469  16.948  0.00  0.00    +0.000 NA
ATOM     24  C   UNL     1       6.615   4.479  16.015  0.00  0.00    +0.000 A 
ATOM     25  N   UNL     1       5.398   4.567  16.641  0.00  0.00    +0.000 N 
ATOM     26  H   UNL     1       4.496   4.636  16.193  0.00  0.00    +0.000 HD
BRANCH  24  27
ATOM     27  C   UNL     1       6.813   4.438  14.568  0.00  0.00    +0.000 A 
ATOM     28  C   UNL     1       7.718   5.284  13.919  0.00  0.00    +0.000 A 
ATOM     29  C   UNL     1       7.837   5.195  12.541  0.00  0.00    +0.000 A 
ATOM     30  N   UNL     1       7.134   4.330  11.782  0.00  0.00    +0.000 NA
ATOM     31  C   UNL     1       6.263   3.525  12.425  0.00  0.00    +0.000 A 
ATOM     32  C   UNL     1       6.069   3.544  13.796  0.00  0.00    +0.000 A 
ENDBRANCH  24  27
ENDBRANCH  20  21
ENDBRANCH   3  20
TORSDOF 6
ENDMDL
MODEL 2
REMARK VINA RESULT:      -8.7      0.834      1.439
REMARK  Name = 
REMARK  6 active torsions:
REMARK  status: ('A' for Active; 'I' for Inactive)
REMARK    1  A    between atoms: C_2  and  C_16
REMARK    2  A    between atoms: N_3  and  C_4
REMARK    3  A    between atoms: C_4  and  C_5
REMARK    4  A    between atoms: C_8  and  C_9
REMARK    5  A    between atoms: C_20  and  C_21
REMARK    6  A    between atoms: C_24  and  C_25
REMARK                            x       y       z     vdW  Elec       q    Type
REMARK                         _______ _______ _______ _____ _____    ______ ____
ROOT
ATOM      1  O   UNL     1       2.149   5.863  17.958  0.00  0.00    +0.000 OA
ATOM      2  C   UNL     1       2.553   6.573  18.873  0.00  0.00    +0.000 C 
ATOM      3  N   UNL     1       3.420   6.116  19.836  0.00  0.00    +0.000 N 
ATOM      4  H   UNL     1       3.868   6.741  20.497  0.00  0.00    +0.000 HD
ENDROOT
BRANCH   2   5
ATOM      5  C   UNL     1       2.112   7.991  18.967  0.00  0.00    +0.000 A 
ATOM      6  C   UNL     1       2.274   8.812  17.845  0.00  0.00    +0.000 A 
ATOM      7  C   UNL     1       1.817  10.129  17.866  0.00  0.00    +0.000 A 
ATOM      8  C   UNL     1       1.172  10.624  18.999  0.00  0.00    +0.000 A 
ATOM      9  C   UNL     1       0.984   9.809  20.127  0.00  0.00    +0.000 A 
ATOM     10  C   UNL     1       1.474   8.493  20.109  0.00  0.00    +0.000 A 
BRANCH   9  11
ATOM     11  C   UNL     1       0.268  10.301  21.298  0.00  0.00    +0.000 A 
ATOM     12  N   UNL     1       0.531   9.924  22.560  0.00  0.00    +0.000 NA
ATOM     13  O   UNL     1      -0.389  10.639  23.322  0.00  0.00    +0.000 OA
ATOM     14  C   UNL     1      -1.128  11.383  22.450  0.00  0.00    +0.000 A 
ATOM     15  N   UNL     1      -0.751  11.222  21.195  0.00  0.00    +0.000 NA
BRANCH  14  16
ATOM     16  C   UNL     1      -2.218  12.200  23.042  0.00  0.00    +0.000 C 
ATOM     17  F   UNL     1      -3.071  12.702  22.107  0.00  0.00    +0.000 F 
ATOM     18  F   UNL     1      -2.981  11.488  23.913  0.00  0.00    +0.000 F 
ATOM     19  F   UNL     1      -1.735  13.269  23.731  0.00  0.00    +0.000 F 
ENDBRANCH  14  16
ENDBRANCH   9  11
ENDBRANCH   2   5
BRANCH   3  20
ATOM     20  C   UNL     1       3.872   4.747  19.802  0.00  0.00    +0.000 C 
BRANCH  20  21
ATOM     21  C   UNL     1       5.001   4.604  18.851  0.00  0.00    +0.000 A 
ATOM     22  N   UNL     1       6.286   4.500  19.112  0.00  0.00    +0.000 NA
ATOM     23  N   UNL     1       6.954   4.424  17.912  0.00  0.00    +0.000 NA
ATOM     24  C   UNL     1       6.070   4.461  16.932  0.00  0.00    +0.000 A 
ATOM     25  N   UNL     1       4.825   4.586  17.494  0.00  0.00    +0.000 N 
ATOM     26  H   UNL     1       3.951   4.681  16.999  0.00  0.00    +0.000 HD
BRANCH  24  27
ATOM     27  C   UNL     1       6.342   4.412  15.497  0.00  0.00    +0.000 A 
ATOM     28  C   UNL     1       5.577   3.633  14.624  0.00  0.00    +0.000 A 
ATOM     29  C   UNL     1       5.909   3.627  13.278  0.00  0.00    +0.000 A 
ATOM     30  N   UNL     1       6.928   4.337  12.753  0.00  0.00    +0.000 NA
ATOM     31  C   UNL     1       7.658   5.079  13.612  0.00  0.00    +0.000 A 
ATOM     32  C   UNL     1       7.408   5.145  14.973  0.00  0.00    +0.000 A 
ENDBRANCH  24  27
ENDBRANCH  20  21
ENDBRANCH   3  20
TORSDOF 6
ENDMDL
MODEL 3
REMARK VINA RESULT:      -8.7      5.907     10.743
REMARK  Name = 
REMARK  6 active torsions:
REMARK  status: ('A' for Active; 'I' for Inactive)
REMARK    1  A    between atoms: C_2  and  C_16
REMARK    2  A    between atoms: N_3  and  C_4
REMARK    3  A    between atoms: C_4  and  C_5
REMARK    4  A    between atoms: C_8  and  C_9
REMARK    5  A    between atoms: C_20  and  C_21
REMARK    6  A    between atoms: C_24  and  C_25
REMARK                            x       y       z     vdW  Elec       q    Type
REMARK                         _______ _______ _______ _____ _____    ______ ____
ROOT
ATOM      1  O   UNL     1       2.282   5.157  18.208  0.00  0.00    +0.000 OA
ATOM      2  C   UNL     1       3.194   5.679  18.840  0.00  0.00    +0.000 C 
ATOM      3  N   UNL     1       2.978   6.400  19.990  0.00  0.00    +0.000 N 
ATOM      4  H   UNL     1       3.741   6.699  20.589  0.00  0.00    +0.000 HD
ENDROOT
BRANCH   2   5
ATOM      5  C   UNL     1       4.600   5.536  18.376  0.00  0.00    +0.000 A 
ATOM      6  C   UNL     1       5.620   5.530  19.336  0.00  0.00    +0.000 A 
ATOM      7  C   UNL     1       6.945   5.334  18.953  0.00  0.00    +0.000 A 
ATOM      8  C   UNL     1       7.257   5.118  17.610  0.00  0.00    +0.000 A 
ATOM      9  C   UNL     1       6.246   5.102  16.636  0.00  0.00    +0.000 A 
ATOM     10  C   UNL     1       4.916   5.330  17.027  0.00  0.00    +0.000 A 
BRANCH   9  11
ATOM     11  C   UNL     1       6.555   4.829  15.237  0.00  0.00    +0.000 A 
ATOM     12  N   UNL     1       7.498   5.471  14.531  0.00  0.00    +0.000 NA
ATOM     13  O   UNL     1       7.431   4.885  13.270  0.00  0.00    +0.000 OA
ATOM     14  C   UNL     1       6.448   3.940  13.328  0.00  0.00    +0.000 A 
ATOM     15  N   UNL     1       5.891   3.857  14.522  0.00  0.00    +0.000 NA
BRANCH  14  16
ATOM     16  C   UNL     1       6.161   3.211  12.067  0.00  0.00    +0.000 C 
ATOM     17  F   UNL     1       7.281   2.961  11.334  0.00  0.00    +0.000 F 
ATOM     18  F   UNL     1       5.574   2.004  12.291  0.00  0.00    +0.000 F 
ATOM     19  F   UNL     1       5.321   3.908  11.255  0.00  0.00    +0.000 F 
ENDBRANCH  14  16
ENDBRANCH   9  11
ENDBRANCH   2   5
BRANCH   3  20
ATOM     20  C   UNL     1       1.636   6.583  20.481  0.00  0.00    +0.000 C 
BRANCH  20  21
ATOM     21  C   UNL     1       1.401   8.010  20.809  0.00  0.00    +0.000 A 
ATOM     22  N   UNL     1       1.338   8.581  21.993  0.00  0.00    +0.000 NA
ATOM     23  N   UNL     1       1.067   9.916  21.802  0.00  0.00    +0.000 NA
ATOM     24  C   UNL     1       0.988  10.151  20.506  0.00  0.00    +0.000 A 
ATOM     25  N   UNL     1       1.184   8.962  19.850  0.00  0.00    +0.000 N 
ATOM     26  H   UNL     1       1.142   8.813  18.853  0.00  0.00    +0.000 HD
BRANCH  24  27
ATOM     27  C   UNL     1       0.712  11.431  19.857  0.00  0.00    +0.000 A 
ATOM     28  C   UNL     1       1.602  12.009  18.947  0.00  0.00    +0.000 A 
ATOM     29  C   UNL     1       1.275  13.234  18.387  0.00  0.00    +0.000 A 
ATOM     30  N   UNL     1       0.138  13.905  18.662  0.00  0.00    +0.000 NA
ATOM     31  C   UNL     1      -0.707  13.334  19.546  0.00  0.00    +0.000 A 
ATOM     32  C   UNL     1      -0.465  12.117  20.162  0.00  0.00    +0.000 A 
ENDBRANCH  24  27
ENDBRANCH  20  21
ENDBRANCH   3  20
TORSDOF 6
ENDMDL
MODEL 4
REMARK VINA RESULT:      -8.7      5.855     11.252
REMARK  Name = 
REMARK  6 active torsions:
REMARK  status: ('A' for Active; 'I' for Inactive)
REMARK    1  A    between atoms: C_2  and  C_16
REMARK    2  A    between atoms: N_3  and  C_4
REMARK    3  A    between atoms: C_4  and  C_5
REMARK    4  A    between atoms: C_8  and  C_9
REMARK    5  A    between atoms: C_20  and  C_21
REMARK    6  A    between atoms: C_24  and  C_25
REMARK                            x       y       z     vdW  Elec       q    Type
REMARK                         _______ _______ _______ _____ _____    ______ ____
ROOT
ATOM      1  O   UNL     1       2.486   5.075  18.224  0.00  0.00    +0.000 OA
ATOM      2  C   UNL     1       3.414   5.552  18.870  0.00  0.00    +0.000 C 
ATOM      3  N   UNL     1       3.223   6.229  20.049  0.00  0.00    +0.000 N 
ATOM      4  H   UNL     1       3.996   6.487  20.654  0.00  0.00    +0.000 HD
ENDROOT
BRANCH   2   5
ATOM      5  C   UNL     1       4.814   5.398  18.388  0.00  0.00    +0.000 A 
ATOM      6  C   UNL     1       5.838   5.316  19.339  0.00  0.00    +0.000 A 
ATOM      7  C   UNL     1       7.156   5.107  18.937  0.00  0.00    +0.000 A 
ATOM      8  C   UNL     1       7.454   4.955  17.583  0.00  0.00    +0.000 A 
ATOM      9  C   UNL     1       6.438   5.016  16.616  0.00  0.00    +0.000 A 
ATOM     10  C   UNL     1       5.116   5.256  17.028  0.00  0.00    +0.000 A 
BRANCH   9  11
ATOM     11  C   UNL     1       6.731   4.809  15.203  0.00  0.00    +0.000 A 
ATOM     12  N   UNL     1       7.671   5.480  14.519  0.00  0.00    +0.000 NA
ATOM     13  O   UNL     1       7.588   4.956  13.232  0.00  0.00    +0.000 OA
ATOM     14  C   UNL     1       6.600   4.014  13.254  0.00  0.00    +0.000 A 
ATOM     15  N   UNL     1       6.055   3.876  14.448  0.00  0.00    +0.000 NA
BRANCH  14  16
ATOM     16  C   UNL     1       6.298   3.348  11.962  0.00  0.00    +0.000 C 
ATOM     17  F   UNL     1       5.078   2.744  11.951  0.00  0.00    +0.000 F 
ATOM     18  F   UNL     1       6.302   4.220  10.918  0.00  0.00    +0.000 F 
ATOM     19  F   UNL     1       7.206   2.381  11.664  0.00  0.00    +0.000 F 
ENDBRANCH  14  16
ENDBRANCH   9  11
ENDBRANCH   2   5
BRANCH   3  20
ATOM     20  C   UNL     1       1.887   6.420  20.559  0.00  0.00    +0.000 C 
BRANCH  20  21
ATOM     21  C   UNL     1       1.469   7.831  20.381  0.00  0.00    +0.000 A 
ATOM     22  N   UNL     1       1.641   8.614  19.337  0.00  0.00    +0.000 NA
ATOM     23  N   UNL     1       1.118   9.848  19.645  0.00  0.00    +0.000 NA
ATOM     24  C   UNL     1       0.613   9.801  20.864  0.00  0.00    +0.000 A 
ATOM     25  N   UNL     1       0.829   8.541  21.360  0.00  0.00    +0.000 N 
ATOM     26  H   UNL     1       0.592   8.212  22.284  0.00  0.00    +0.000 HD
BRANCH  24  27
ATOM     27  C   UNL     1      -0.037  10.889  21.591  0.00  0.00    +0.000 A 
ATOM     28  C   UNL     1      -0.916  10.652  22.652  0.00  0.00    +0.000 A 
ATOM     29  C   UNL     1      -1.505  11.738  23.280  0.00  0.00    +0.000 A 
ATOM     30  N   UNL     1      -1.275  13.020  22.934  0.00  0.00    +0.000 NA
ATOM     31  C   UNL     1      -0.428  13.230  21.905  0.00  0.00    +0.000 A 
ATOM     32  C   UNL     1       0.205  12.211  21.212  0.00  0.00    +0.000 A 
ENDBRANCH  24  27
ENDBRANCH  20  21
ENDBRANCH   3  20
TORSDOF 6
ENDMDL
MODEL 5
REMARK VINA RESULT:      -8.5      5.514     11.834
REMARK  Name = 
REMARK  6 active torsions:
REMARK  status: ('A' for Active; 'I' for Inactive)
REMARK    1  A    between atoms: C_2  and  C_16
REMARK    2  A    between atoms: N_3  and  C_4
REMARK    3  A    between atoms: C_4  and  C_5
REMARK    4  A    between atoms: C_8  and  C_9
REMARK    5  A    between atoms: C_20  and  C_21
REMARK    6  A    between atoms: C_24  and  C_25
REMARK                            x       y       z     vdW  Elec       q    Type
REMARK                         _______ _______ _______ _____ _____    ______ ____
ROOT
ATOM      1  O   UNL     1       2.085   9.791  17.557  0.00  0.00    +0.000 OA
ATOM      2  C   UNL     1       1.898   8.973  18.452  0.00  0.00    +0.000 C 
ATOM      3  N   UNL     1       0.958   9.157  19.437  0.00  0.00    +0.000 N 
ATOM      4  H   UNL     1       0.702   8.417  20.082  0.00  0.00    +0.000 HD
ENDROOT
BRANCH   2   5
ATOM      5  C   UNL     1       2.697   7.718  18.495  0.00  0.00    +0.000 A 
ATOM      6  C   UNL     1       2.476   6.826  19.551  0.00  0.00    +0.000 A 
ATOM      7  C   UNL     1       3.155   5.610  19.598  0.00  0.00    +0.000 A 
ATOM      8  C   UNL     1       4.040   5.268  18.576  0.00  0.00    +0.000 A 
ATOM      9  C   UNL     1       4.260   6.141  17.499  0.00  0.00    +0.000 A 
ATOM     10  C   UNL     1       3.594   7.378  17.475  0.00  0.00    +0.000 A 
BRANCH   9  11
ATOM     11  C   UNL     1       5.146   5.772  16.401  0.00  0.00    +0.000 A 
ATOM     12  N   UNL     1       6.344   6.332  16.174  0.00  0.00    +0.000 NA
ATOM     13  O   UNL     1       6.812   5.674  15.040  0.00  0.00    +0.000 OA
ATOM     14  C   UNL     1       5.850   4.776  14.681  0.00  0.00    +0.000 A 
ATOM     15  N   UNL     1       4.813   4.787  15.497  0.00  0.00    +0.000 NA
BRANCH  14  16
ATOM     16  C   UNL     1       6.114   3.985  13.452  0.00  0.00    +0.000 C 
ATOM     17  F   UNL     1       6.464   2.697  13.718  0.00  0.00    +0.000 F 
ATOM     18  F   UNL     1       5.029   3.925  12.634  0.00  0.00    +0.000 F 
ATOM     19  F   UNL     1       7.128   4.512  12.716  0.00  0.00    +0.000 F 
ENDBRANCH  14  16
ENDBRANCH   9  11
ENDBRANCH   2   5
BRANCH   3  20
ATOM     20  C   UNL     1       0.163  10.360  19.453  0.00  0.00    +0.000 C 
BRANCH  20  21
ATOM     21  C   UNL     1      -0.182  10.726  20.848  0.00  0.00    +0.000 A 
ATOM     22  N   UNL     1       0.281  10.216  21.970  0.00  0.00    +0.000 NA
ATOM     23  N   UNL     1      -0.355  10.847  23.013  0.00  0.00    +0.000 NA
ATOM     24  C   UNL     1      -1.183  11.750  22.520  0.00  0.00    +0.000 A 
ATOM     25  N   UNL     1      -1.104  11.690  21.152  0.00  0.00    +0.000 N 
ATOM     26  H   UNL     1      -1.648  12.230  20.496  0.00  0.00    +0.000 HD
BRANCH  24  27
ATOM     27  C   UNL     1      -2.060  12.644  23.272  0.00  0.00    +0.000 A 
ATOM     28  C   UNL     1      -3.332  12.249  23.700  0.00  0.00    +0.000 A 
ATOM     29  C   UNL     1      -4.111  13.162  24.394  0.00  0.00    +0.000 A 
ATOM     30  N   UNL     1      -3.712  14.415  24.691  0.00  0.00    +0.000 NA
ATOM     31  C   UNL     1      -2.484  14.780  24.267  0.00  0.00    +0.000 A 
ATOM     32  C   UNL     1      -1.636  13.942  23.562  0.00  0.00    +0.000 A 
ENDBRANCH  24  27
ENDBRANCH  20  21
ENDBRANCH   3  20
TORSDOF 6
ENDMDL
MODEL 6
REMARK VINA RESULT:      -8.5      6.336     10.771
REMARK  Name = 
REMARK  6 active torsions:
REMARK  status: ('A' for Active; 'I' for Inactive)
REMARK    1  A    between atoms: C_2  and  C_16
REMARK    2  A    between atoms: N_3  and  C_4
REMARK    3  A    between atoms: C_4  and  C_5
REMARK    4  A    between atoms: C_8  and  C_9
REMARK    5  A    between atoms: C_20  and  C_21
REMARK    6  A    between atoms: C_24  and  C_25
REMARK                            x       y       z     vdW  Elec       q    Type
REMARK                         _______ _______ _______ _____ _____    ______ ____
ROOT
ATOM      1  O   UNL     1       1.702   6.306  18.730  0.00  0.00    +0.000 OA
ATOM      2  C   UNL     1       2.653   6.914  18.249  0.00  0.00    +0.000 C 
ATOM      3  N   UNL     1       2.553   8.212  17.809  0.00  0.00    +0.000 N 
ATOM      4  H   UNL     1       3.370   8.758  17.555  0.00  0.00    +0.000 HD
ENDROOT
BRANCH   2   5
ATOM      5  C   UNL     1       3.980   6.252  18.131  0.00  0.00    +0.000 A 
ATOM      6  C   UNL     1       4.559   5.717  19.288  0.00  0.00    +0.000 A 
ATOM      7  C   UNL     1       5.770   5.031  19.216  0.00  0.00    +0.000 A 
ATOM      8  C   UNL     1       6.397   4.855  17.982  0.00  0.00    +0.000 A 
ATOM      9  C   UNL     1       5.822   5.368  16.809  0.00  0.00    +0.000 A 
ATOM     10  C   UNL     1       4.616   6.083  16.895  0.00  0.00    +0.000 A 
BRANCH   9  11
ATOM     11  C   UNL     1       6.443   5.147  15.508  0.00  0.00    +0.000 A 
ATOM     12  N   UNL     1       7.624   5.666  15.136  0.00  0.00    +0.000 NA
ATOM     13  O   UNL     1       7.804   5.193  13.839  0.00  0.00    +0.000 OA
ATOM     14  C   UNL     1       6.711   4.432  13.543  0.00  0.00    +0.000 A 
ATOM     15  N   UNL     1       5.854   4.360  14.544  0.00  0.00    +0.000 NA
BRANCH  14  16
ATOM     16  C   UNL     1       6.661   3.856  12.175  0.00  0.00    +0.000 C 
ATOM     17  F   UNL     1       5.390   3.688  11.718  0.00  0.00    +0.000 F 
ATOM     18  F   UNL     1       7.297   4.639  11.262  0.00  0.00    +0.000 F 
ATOM     19  F   UNL     1       7.253   2.632  12.117  0.00  0.00    +0.000 F 
ENDBRANCH  14  16
ENDBRANCH   9  11
ENDBRANCH   2   5
BRANCH   3  20
ATOM     20  C   UNL     1       1.289   8.900  17.886  0.00  0.00    +0.000 C 
BRANCH  20  21
ATOM     21  C   UNL     1       1.462  10.214  18.552  0.00  0.00    +0.000 A 
ATOM     22  N   UNL     1       1.177  10.550  19.792  0.00  0.00    +0.000 NA
ATOM     23  N   UNL     1       1.476  11.884  19.946  0.00  0.00    +0.000 NA
ATOM     24  C   UNL     1       1.959  12.344  18.807  0.00  0.00    +0.000 A 
ATOM     25  N   UNL     1       1.953  11.313  17.902  0.00  0.00    +0.000 N 
ATOM     26  H   UNL     1       2.226  11.366  16.931  0.00  0.00    +0.000 HD
BRANCH  24  27
ATOM     27  C   UNL     1       2.399  13.708  18.523  0.00  0.00    +0.000 A 
ATOM     28  C   UNL     1       3.687  13.990  18.058  0.00  0.00    +0.000 A 
ATOM     29  C   UNL     1       4.034  15.312  17.828  0.00  0.00    +0.000 A 
ATOM     30  N   UNL     1       3.196  16.351  18.018  0.00  0.00    +0.000 NA
ATOM     31  C   UNL     1       1.959  16.060  18.471  0.00  0.00    +0.000 A 
ATOM     32  C   UNL     1       1.522  14.773  18.735  0.00  0.00    +0.000 A 
ENDBRANCH  24  27
ENDBRANCH  20  21
ENDBRANCH   3  20
TORSDOF 6
ENDMDL
MODEL 7
REMARK VINA RESULT:      -8.4      5.465     11.707
REMARK  Name = 
REMARK  6 active torsions:
REMARK  status: ('A' for Active; 'I' for Inactive)
REMARK    1  A    between atoms: C_2  and  C_16
REMARK    2  A    between atoms: N_3  and  C_4
REMARK    3  A    between atoms: C_4  and  C_5
REMARK    4  A    between atoms: C_8  and  C_9
REMARK    5  A    between atoms: C_20  and  C_21
REMARK    6  A    between atoms: C_24  and  C_25
REMARK                            x       y       z     vdW  Elec       q    Type
REMARK                         _______ _______ _______ _____ _____    ______ ____
ROOT
ATOM      1  O   UNL     1       2.160   9.080  17.454  0.00  0.00    +0.000 OA
ATOM      2  C   UNL     1       2.103   8.433  18.495  0.00  0.00    +0.000 C 
ATOM      3  N   UNL     1       1.414   8.871  19.600  0.00  0.00    +0.000 N 
ATOM      4  H   UNL     1       1.242   8.271  20.400  0.00  0.00    +0.000 HD
ENDROOT
BRANCH   2   5
ATOM      5  C   UNL     1       2.789   7.117  18.593  0.00  0.00    +0.000 A 
ATOM      6  C   UNL     1       2.437   6.261  19.644  0.00  0.00    +0.000 A 
ATOM      7  C   UNL     1       3.005   4.993  19.739  0.00  0.00    +0.000 A 
ATOM      8  C   UNL     1       3.911   4.562  18.770  0.00  0.00    +0.000 A 
ATOM      9  C   UNL     1       4.263   5.399  17.699  0.00  0.00    +0.000 A 
ATOM     10  C   UNL     1       3.707   6.687  17.627  0.00  0.00    +0.000 A 
BRANCH   9  11
ATOM     11  C   UNL     1       5.170   4.941  16.654  0.00  0.00    +0.000 A 
ATOM     12  N   UNL     1       6.486   4.737  16.829  0.00  0.00    +0.000 NA
ATOM     13  O   UNL     1       6.929   4.314  15.579  0.00  0.00    +0.000 OA
ATOM     14  C   UNL     1       5.840   4.303  14.758  0.00  0.00    +0.000 A 
ATOM     15  N   UNL     1       4.732   4.665  15.377  0.00  0.00    +0.000 NA
BRANCH  14  16
ATOM     16  C   UNL     1       6.086   3.926  13.343  0.00  0.00    +0.000 C 
ATOM     17  F   UNL     1       4.978   4.051  12.562  0.00  0.00    +0.000 F 
ATOM     18  F   UNL     1       7.050   4.692  12.765  0.00  0.00    +0.000 F 
ATOM     19  F   UNL     1       6.493   2.633  13.225  0.00  0.00    +0.000 F 
ENDBRANCH  14  16
ENDBRANCH   9  11
ENDBRANCH   2   5
BRANCH   3  20
ATOM     20  C   UNL     1       0.740  10.145  19.567  0.00  0.00    +0.000 C 
BRANCH  20  21
ATOM     21  C   UNL     1       0.269  10.510  20.925  0.00  0.00    +0.000 A 
ATOM     22  N   UNL     1       0.566   9.946  22.076  0.00  0.00    +0.000 NA
ATOM     23  N   UNL     1      -0.135  10.603  23.060  0.00  0.00    +0.000 NA
ATOM     24  C   UNL     1      -0.836  11.574  22.504  0.00  0.00    +0.000 A 
ATOM     25  N   UNL     1      -0.609  11.534  21.152  0.00  0.00    +0.000 N 
ATOM     26  H   UNL     1      -1.037  12.125  20.455  0.00  0.00    +0.000 HD
BRANCH  24  27
ATOM     27  C   UNL     1      -1.725  12.517  23.179  0.00  0.00    +0.000 A 
ATOM     28  C   UNL     1      -1.320  13.814  23.507  0.00  0.00    +0.000 A 
ATOM     29  C   UNL     1      -2.218  14.643  24.162  0.00  0.00    +0.000 A 
ATOM     30  N   UNL     1      -3.471  14.275  24.497  0.00  0.00    +0.000 NA
ATOM     31  C   UNL     1      -3.843  13.019  24.176  0.00  0.00    +0.000 A 
ATOM     32  C   UNL     1      -3.016  12.116  23.528  0.00  0.00    +0.000 A 
ENDBRANCH  24  27
ENDBRANCH  20  21
ENDBRANCH   3  20
TORSDOF 6
ENDMDL
MODEL 8
REMARK VINA RESULT:      -8.4      6.193     10.689
REMARK  Name = 
REMARK  6 active torsions:
REMARK  status: ('A' for Active; 'I' for Inactive)
REMARK    1  A    between atoms: C_2  and  C_16
REMARK    2  A    between atoms: N_3  and  C_4
REMARK    3  A    between atoms: C_4  and  C_5
REMARK    4  A    between atoms: C_8  and  C_9
REMARK    5  A    between atoms: C_20  and  C_21
REMARK    6  A    between atoms: C_24  and  C_25
REMARK                            x       y       z     vdW  Elec       q    Type
REMARK                         _______ _______ _______ _____ _____    ______ ____
ROOT
ATOM      1  O   UNL     1       2.352   7.245  20.125  0.00  0.00    +0.000 OA
ATOM      2  C   UNL     1       2.566   7.200  18.917  0.00  0.00    +0.000 C 
ATOM      3  N   UNL     1       2.569   8.323  18.125  0.00  0.00    +0.000 N 
ATOM      4  H   UNL     1       2.894   8.303  17.164  0.00  0.00    +0.000 HD
ENDROOT
BRANCH   2   5
ATOM      5  C   UNL     1       2.846   5.897  18.258  0.00  0.00    +0.000 A 
ATOM      6  C   UNL     1       1.977   4.827  18.506  0.00  0.00    +0.000 A 
ATOM      7  C   UNL     1       2.162   3.606  17.860  0.00  0.00    +0.000 A 
ATOM      8  C   UNL     1       3.203   3.455  16.944  0.00  0.00    +0.000 A 
ATOM      9  C   UNL     1       4.073   4.522  16.668  0.00  0.00    +0.000 A 
ATOM     10  C   UNL     1       3.896   5.740  17.345  0.00  0.00    +0.000 A 
BRANCH   9  11
ATOM     11  C   UNL     1       5.133   4.390  15.675  0.00  0.00    +0.000 A 
ATOM     12  N   UNL     1       6.428   4.650  15.912  0.00  0.00    +0.000 NA
ATOM     13  O   UNL     1       7.051   4.390  14.695  0.00  0.00    +0.000 OA
ATOM     14  C   UNL     1       6.072   3.999  13.828  0.00  0.00    +0.000 A 
ATOM     15  N   UNL     1       4.878   3.967  14.389  0.00  0.00    +0.000 NA
BRANCH  14  16
ATOM     16  C   UNL     1       6.501   3.713  12.436  0.00  0.00    +0.000 C 
ATOM     17  F   UNL     1       5.484   3.814  11.537  0.00  0.00    +0.000 F 
ATOM     18  F   UNL     1       7.473   4.565  12.011  0.00  0.00    +0.000 F 
ATOM     19  F   UNL     1       7.003   2.456  12.306  0.00  0.00    +0.000 F 
ENDBRANCH  14  16
ENDBRANCH   9  11
ENDBRANCH   2   5
BRANCH   3  20
ATOM     20  C   UNL     1       2.292   9.612  18.708  0.00  0.00    +0.000 C 
BRANCH  20  21
ATOM     21  C   UNL     1       0.828   9.844  18.763  0.00  0.00    +0.000 A 
ATOM     22  N   UNL     1       0.035   9.838  19.813  0.00  0.00    +0.000 NA
ATOM     23  N   UNL     1      -1.248  10.068  19.373  0.00  0.00    +0.000 NA
ATOM     24  C   UNL     1      -1.223  10.235  18.063  0.00  0.00    +0.000 A 
ATOM     25  N   UNL     1       0.076  10.088  17.646  0.00  0.00    +0.000 N 
ATOM     26  H   UNL     1       0.407  10.120  16.694  0.00  0.00    +0.000 HD
BRANCH  24  27
ATOM     27  C   UNL     1      -2.361  10.497  17.186  0.00  0.00    +0.000 A 
ATOM     28  C   UNL     1      -2.423   9.998  15.882  0.00  0.00    +0.000 A 
ATOM     29  C   UNL     1      -3.530  10.306  15.107  0.00  0.00    +0.000 A 
ATOM     30  N   UNL     1      -4.563  11.057  15.539  0.00  0.00    +0.000 NA
ATOM     31  C   UNL     1      -4.484  11.534  16.798  0.00  0.00    +0.000 A 
ATOM     32  C   UNL     1      -3.417  11.286  17.646  0.00  0.00    +0.000 A 
ENDBRANCH  24  27
ENDBRANCH  20  21
ENDBRANCH   3  20
TORSDOF 6
ENDMDL
MODEL 9
REMARK VINA RESULT:      -8.3      5.805      7.703
REMARK  Name = 
REMARK  6 active torsions:
REMARK  status: ('A' for Active; 'I' for Inactive)
REMARK    1  A    between atoms: C_2  and  C_16
REMARK    2  A    between atoms: N_3  and  C_4
REMARK    3  A    between atoms: C_4  and  C_5
REMARK    4  A    between atoms: C_8  and  C_9
REMARK    5  A    between atoms: C_20  and  C_21
REMARK    6  A    between atoms: C_24  and  C_25
REMARK                            x       y       z     vdW  Elec       q    Type
REMARK                         _______ _______ _______ _____ _____    ______ ____
ROOT
ATOM      1  O   UNL     1       0.772  10.542  17.953  0.00  0.00    +0.000 OA
ATOM      2  C   UNL     1      -0.256  10.339  18.592  0.00  0.00    +0.000 C 
ATOM      3  N   UNL     1      -0.242   9.918  19.899  0.00  0.00    +0.000 N 
ATOM      4  H   UNL     1      -1.083   9.899  20.467  0.00  0.00    +0.000 HD
ENDROOT
BRANCH   2   5
ATOM      5  C   UNL     1      -1.584  10.559  17.957  0.00  0.00    +0.000 A 
ATOM      6  C   UNL     1      -2.558  11.259  18.679  0.00  0.00    +0.000 A 
ATOM      7  C   UNL     1      -3.793  11.544  18.101  0.00  0.00    +0.000 A 
ATOM      8  C   UNL     1      -4.053  11.152  16.787  0.00  0.00    +0.000 A 
ATOM      9  C   UNL     1      -3.082  10.465  16.041  0.00  0.00    +0.000 A 
ATOM     10  C   UNL     1      -1.850  10.156  16.642  0.00  0.00    +0.000 A 
BRANCH   9  11
ATOM     11  C   UNL     1      -3.325  10.095  14.652  0.00  0.00    +0.000 A 
ATOM     12  N   UNL     1      -2.361   9.778  13.773  0.00  0.00    +0.000 NA
ATOM     13  O   UNL     1      -3.055   9.503  12.598  0.00  0.00    +0.000 OA
ATOM     14  C   UNL     1      -4.379   9.683  12.873  0.00  0.00    +0.000 A 
ATOM     15  N   UNL     1      -4.597  10.031  14.127  0.00  0.00    +0.000 NA
BRANCH  14  16
ATOM     16  C   UNL     1      -5.318   9.491  11.738  0.00  0.00    +0.000 C 
ATOM     17  F   UNL     1      -5.870  10.657  11.305  0.00  0.00    +0.000 F 
ATOM     18  F   UNL     1      -4.713   8.929  10.658  0.00  0.00    +0.000 F 
ATOM     19  F   UNL     1      -6.356   8.676  12.070  0.00  0.00    +0.000 F 
ENDBRANCH  14  16
ENDBRANCH   9  11
ENDBRANCH   2   5
BRANCH   3  20
ATOM     20  C   UNL     1       1.015   9.677  20.562  0.00  0.00    +0.000 C 
BRANCH  20  21
ATOM     21  C   UNL     1       1.427   8.265  20.379  0.00  0.00    +0.000 A 
ATOM     22  N   UNL     1       1.223   7.239  21.177  0.00  0.00    +0.000 NA
ATOM     23  N   UNL     1       1.817   6.137  20.607  0.00  0.00    +0.000 NA
ATOM     24  C   UNL     1       2.359   6.495  19.458  0.00  0.00    +0.000 A 
ATOM     25  N   UNL     1       2.138   7.839  19.290  0.00  0.00    +0.000 N 
ATOM     26  H   UNL     1       2.468   8.410  18.526  0.00  0.00    +0.000 HD
BRANCH  24  27
ATOM     27  C   UNL     1       3.094   5.643  18.526  0.00  0.00    +0.000 A 
ATOM     28  C   UNL     1       4.390   5.953  18.101  0.00  0.00    +0.000 A 
ATOM     29  C   UNL     1       5.014   5.102  17.203  0.00  0.00    +0.000 A 
ATOM     30  N   UNL     1       4.448   3.979  16.716  0.00  0.00    +0.000 NA
ATOM     31  C   UNL     1       3.196   3.699  17.133  0.00  0.00    +0.000 A 
ATOM     32  C   UNL     1       2.488   4.490  18.023  0.00  0.00    +0.000 A 
ENDBRANCH  24  27
ENDBRANCH  20  21
ENDBRANCH   3  20
TORSDOF 6
ENDMDL
