MODEL 1
REMARK VINA RESULT:      -8.5      0.000      0.000
REMARK  Name = 
REMARK  6 active torsions:
REMARK  status: ('A' for Active; 'I' for Inactive)
REMARK    1  A    between atoms: C_1  and  C_2
REMARK    2  A    between atoms: C_7  and  C_8
REMARK    3  A    between atoms: C_12  and  N_13
REMARK    4  A    between atoms: C_14  and  C_16
REMARK    5  A    between atoms: C_21  and  O_22
REMARK    6  A    between atoms: O_22  and  C_23
REMARK                            x       y       z     vdW  Elec       q    Type
REMARK                         _______ _______ _______ _____ _____    ______ ____
ROOT
ATOM      1  C   UNL     1       1.763   7.052  20.253  0.00  0.00    +0.000 A 
ATOM      2  C   UNL     1       1.310   5.980  21.030  0.00  0.00    +0.000 A 
ATOM      3  C   UNL     1       1.734   4.688  20.751  0.00  0.00    +0.000 A 
ATOM      4  C   UNL     1       2.612   4.460  19.692  0.00  0.00    +0.000 A 
ATOM      5  C   UNL     1       3.073   5.511  18.894  0.00  0.00    +0.000 A 
ATOM      6  C   UNL     1       2.654   6.819  19.191  0.00  0.00    +0.000 A 
ENDROOT
BRANCH   1  13
ATOM      7  C   UNL     1       0.854  11.639  19.017  0.00  0.00    +0.000 C 
ATOM      8  C   UNL     1       0.818  10.597  20.101  0.00  0.00    +0.000 A 
ATOM      9  C   UNL     1       0.419  10.899  21.344  0.00  0.00    +0.000 A 
ATOM     10  C   UNL     1       0.433   9.829  22.347  0.00  0.00    +0.000 A 
ATOM     11  O   UNL     1       0.118  10.035  23.513  0.00  0.00    +0.000 OA
ATOM     12  N   UNL     1       0.832   8.606  21.897  0.00  0.00    +0.000 N 
ATOM     13  C   UNL     1       1.250   8.405  20.605  0.00  0.00    +0.000 A 
ATOM     14  N   UNL     1       1.249   9.351  19.720  0.00  0.00    +0.000 NA
ATOM     15  H   UNL     1       0.900   7.892  22.602  0.00  0.00    +0.000 HD
ENDBRANCH   1  13
BRANCH   5  16
ATOM     16  N   UNL     1       3.932   5.317  17.782  0.00  0.00    +0.000 N 
ATOM     17  C   UNL     1       5.076   4.528  17.756  0.00  0.00    +0.000 C 
ATOM     18  O   UNL     1       5.534   3.898  18.703  0.00  0.00    +0.000 OA
ATOM     19  H   UNL     1       3.655   5.776  16.925  0.00  0.00    +0.000 HD
BRANCH  17  20
ATOM     20  C   UNL     1       5.833   4.469  16.474  0.00  0.00    +0.000 A 
ATOM     21  C   UNL     1       5.225   3.830  15.373  0.00  0.00    +0.000 A 
ATOM     22  C   UNL     1       5.785   3.916  14.096  0.00  0.00    +0.000 A 
ATOM     23  C   UNL     1       6.944   4.653  13.899  0.00  0.00    +0.000 A 
ATOM     24  C   UNL     1       7.562   5.276  14.982  0.00  0.00    +0.000 A 
ATOM     25  C   UNL     1       7.035   5.176  16.280  0.00  0.00    +0.000 A 
BRANCH  25  26
ATOM     26  O   UNL     1       7.773   5.887  17.187  0.00  0.00    +0.000 OA
BRANCH  26  27
ATOM     27  C   UNL     1       7.584   7.293  17.297  0.00  0.00    +0.000 C 
ATOM     28  F   UNL     1       6.273   7.594  17.482  0.00  0.00    +0.000 F 
ATOM     29  F   UNL     1       8.222   7.684  18.434  0.00  0.00    +0.000 F 
ENDBRANCH  26  27
ENDBRANCH  25  26
ENDBRANCH  17  20
ENDBRANCH   5  16
TORSDOF 5
ENDMDL
MODEL 2
REMARK VINA RESULT:      -8.5      4.143      5.890
REMARK  Name = 
REMARK  6 active torsions:
REMARK  status: ('A' for Active; 'I' for Inactive)
REMARK    1  A    between atoms: C_1  and  C_2
REMARK    2  A    between atoms: C_7  and  C_8
REMARK    3  A    between atoms: C_12  and  N_13
REMARK    4  A    between atoms: C_14  and  C_16
REMARK    5  A    between atoms: C_21  and  O_22
REMARK    6  A    between atoms: O_22  and  C_23
REMARK                            x       y       z     vdW  Elec       q    Type
REMARK                         _______ _______ _______ _____ _____    ______ ____
ROOT
ATOM      1  C   UNL     1      -1.074  10.585  18.772  0.00  0.00    +0.000 A 
ATOM      2  C   UNL     1      -1.055  11.362  19.937  0.00  0.00    +0.000 A 
ATOM      3  C   UNL     1      -0.076  11.152  20.898  0.00  0.00    +0.000 A 
ATOM      4  C   UNL     1       0.888  10.164  20.703  0.00  0.00    +0.000 A 
ATOM      5  C   UNL     1       0.887   9.368  19.553  0.00  0.00    +0.000 A 
ATOM      6  C   UNL     1      -0.096   9.596  18.575  0.00  0.00    +0.000 A 
ENDROOT
BRANCH   1  13
ATOM      7  C   UNL     1      -5.556  12.139  17.829  0.00  0.00    +0.000 C 
ATOM      8  C   UNL     1      -4.286  11.554  17.277  0.00  0.00    +0.000 A 
ATOM      9  C   UNL     1      -4.176  11.221  15.983  0.00  0.00    +0.000 A 
ATOM     10  C   UNL     1      -2.908  10.637  15.532  0.00  0.00    +0.000 A 
ATOM     11  O   UNL     1      -2.744  10.274  14.373  0.00  0.00    +0.000 OA
ATOM     12  N   UNL     1      -1.943  10.515  16.486  0.00  0.00    +0.000 N 
ATOM     13  C   UNL     1      -2.165  10.860  17.796  0.00  0.00    +0.000 A 
ATOM     14  N   UNL     1      -3.287  11.366  18.200  0.00  0.00    +0.000 NA
ATOM     15  H   UNL     1      -1.100  10.056  16.185  0.00  0.00    +0.000 HD
ENDBRANCH   1  13
BRANCH   5  16
ATOM     16  N   UNL     1       1.822   8.324  19.335  0.00  0.00    +0.000 N 
ATOM     17  C   UNL     1       2.549   8.103  18.171  0.00  0.00    +0.000 C 
ATOM     18  O   UNL     1       2.471   8.763  17.141  0.00  0.00    +0.000 OA
ATOM     19  H   UNL     1       1.991   7.711  20.121  0.00  0.00    +0.000 HD
BRANCH  17  20
ATOM     20  C   UNL     1       3.481   6.941  18.162  0.00  0.00    +0.000 A 
ATOM     21  C   UNL     1       4.641   7.025  17.365  0.00  0.00    +0.000 A 
ATOM     22  C   UNL     1       5.651   6.066  17.465  0.00  0.00    +0.000 A 
ATOM     23  C   UNL     1       5.527   5.025  18.373  0.00  0.00    +0.000 A 
ATOM     24  C   UNL     1       4.378   4.922  19.156  0.00  0.00    +0.000 A 
ATOM     25  C   UNL     1       3.335   5.856  19.049  0.00  0.00    +0.000 A 
BRANCH  25  26
ATOM     26  O   UNL     1       2.320   5.591  19.928  0.00  0.00    +0.000 OA
BRANCH  26  27
ATOM     27  C   UNL     1       1.608   4.363  19.827  0.00  0.00    +0.000 C 
ATOM     28  F   UNL     1       0.481   4.391  20.582  0.00  0.00    +0.000 F 
ATOM     29  F   UNL     1       1.191   4.259  18.535  0.00  0.00    +0.000 F 
ENDBRANCH  26  27
ENDBRANCH  25  26
ENDBRANCH  17  20
ENDBRANCH   5  16
TORSDOF 5
ENDMDL
MODEL 3
REMARK VINA RESULT:      -8.4      2.882      8.202
REMARK  Name = 
REMARK  6 active torsions:
REMARK  status: ('A' for Active; 'I' for Inactive)
REMARK    1  A    between atoms: C_1  and  C_2
REMARK    2  A    between atoms: C_7  and  C_8
REMARK    3  A    between atoms: C_12  and  N_13
REMARK    4  A    between atoms: C_14  and  C_16
REMARK    5  A    between atoms: C_21  and  O_22
REMARK    6  A    between atoms: O_22  and  C_23
REMARK                            x       y       z     vdW  Elec       q    Type
REMARK                         _______ _______ _______ _____ _____    ______ ____
ROOT
ATOM      1  C   UNL     1       3.735   5.416  18.711  0.00  0.00    +0.000 A 
ATOM      2  C   UNL     1       3.112   4.337  19.350  0.00  0.00    +0.000 A 
ATOM      3  C   UNL     1       2.049   4.559  20.215  0.00  0.00    +0.000 A 
ATOM      4  C   UNL     1       1.604   5.859  20.448  0.00  0.00    +0.000 A 
ATOM      5  C   UNL     1       2.214   6.955  19.831  0.00  0.00    +0.000 A 
ATOM      6  C   UNL     1       3.278   6.725  18.943  0.00  0.00    +0.000 A 
ENDROOT
BRANCH   1  13
ATOM      7  C   UNL     1       5.428   4.350  14.308  0.00  0.00    +0.000 C 
ATOM      8  C   UNL     1       5.749   4.562  15.761  0.00  0.00    +0.000 A 
ATOM      9  C   UNL     1       6.992   4.391  16.232  0.00  0.00    +0.000 A 
ATOM     10  C   UNL     1       7.215   4.599  17.667  0.00  0.00    +0.000 A 
ATOM     11  O   UNL     1       8.314   4.427  18.179  0.00  0.00    +0.000 OA
ATOM     12  N   UNL     1       6.119   4.978  18.384  0.00  0.00    +0.000 N 
ATOM     13  C   UNL     1       4.878   5.099  17.811  0.00  0.00    +0.000 A 
ATOM     14  N   UNL     1       4.676   4.905  16.546  0.00  0.00    +0.000 NA
ATOM     15  H   UNL     1       6.265   5.058  19.377  0.00  0.00    +0.000 HD
ENDBRANCH   1  13
BRANCH   5  16
ATOM     16  N   UNL     1       1.819   8.296  20.074  0.00  0.00    +0.000 N 
ATOM     17  C   UNL     1       1.306   9.183  19.135  0.00  0.00    +0.000 C 
ATOM     18  O   UNL     1       1.140   8.950  17.943  0.00  0.00    +0.000 OA
ATOM     19  H   UNL     1       1.894   8.612  21.031  0.00  0.00    +0.000 HD
BRANCH  17  20
ATOM     20  C   UNL     1       0.957  10.551  19.612  0.00  0.00    +0.000 A 
ATOM     21  C   UNL     1       0.697  11.545  18.647  0.00  0.00    +0.000 A 
ATOM     22  C   UNL     1       0.169  12.784  19.018  0.00  0.00    +0.000 A 
ATOM     23  C   UNL     1      -0.123  13.039  20.350  0.00  0.00    +0.000 A 
ATOM     24  C   UNL     1       0.144  12.070  21.316  0.00  0.00    +0.000 A 
ATOM     25  C   UNL     1       0.705  10.830  20.970  0.00  0.00    +0.000 A 
BRANCH  25  26
ATOM     26  O   UNL     1       0.853  10.015  22.059  0.00  0.00    +0.000 OA
BRANCH  26  27
ATOM     27  C   UNL     1      -0.300   9.577  22.769  0.00  0.00    +0.000 C 
ATOM     28  F   UNL     1      -0.770   8.410  22.261  0.00  0.00    +0.000 F 
ATOM     29  F   UNL     1       0.106   9.296  24.038  0.00  0.00    +0.000 F 
ENDBRANCH  26  27
ENDBRANCH  25  26
ENDBRANCH  17  20
ENDBRANCH   5  16
TORSDOF 5
ENDMDL
MODEL 4
REMARK VINA RESULT:      -8.4      3.254      8.248
REMARK  Name = 
REMARK  6 active torsions:
REMARK  status: ('A' for Active; 'I' for Inactive)
REMARK    1  A    between atoms: C_1  and  C_2
REMARK    2  A    between atoms: C_7  and  C_8
REMARK    3  A    between atoms: C_12  and  N_13
REMARK    4  A    between atoms: C_14  and  C_16
REMARK    5  A    between atoms: C_21  and  O_22
REMARK    6  A    between atoms: O_22  and  C_23
REMARK                            x       y       z     vdW  Elec       q    Type
REMARK                         _______ _______ _______ _____ _____    ______ ____
ROOT
ATOM      1  C   UNL     1       3.829   5.675  18.753  0.00  0.00    +0.000 A 
ATOM      2  C   UNL     1       3.345   4.711  19.647  0.00  0.00    +0.000 A 
ATOM      3  C   UNL     1       2.305   5.024  20.512  0.00  0.00    +0.000 A 
ATOM      4  C   UNL     1       1.745   6.300  20.492  0.00  0.00    +0.000 A 
ATOM      5  C   UNL     1       2.216   7.284  19.617  0.00  0.00    +0.000 A 
ATOM      6  C   UNL     1       3.256   6.958  18.731  0.00  0.00    +0.000 A 
ENDROOT
BRANCH   1  13
ATOM      7  C   UNL     1       5.489   4.458  14.376  0.00  0.00    +0.000 C 
ATOM      8  C   UNL     1       5.808   4.656  15.832  0.00  0.00    +0.000 A 
ATOM      9  C   UNL     1       7.030   4.398  16.319  0.00  0.00    +0.000 A 
ATOM     10  C   UNL     1       7.251   4.599  17.755  0.00  0.00    +0.000 A 
ATOM     11  O   UNL     1       8.329   4.350  18.281  0.00  0.00    +0.000 OA
ATOM     12  N   UNL     1       6.178   5.061  18.457  0.00  0.00    +0.000 N 
ATOM     13  C   UNL     1       4.955   5.269  17.869  0.00  0.00    +0.000 A 
ATOM     14  N   UNL     1       4.755   5.082  16.602  0.00  0.00    +0.000 NA
ATOM     15  H   UNL     1       6.318   5.137  19.451  0.00  0.00    +0.000 HD
ENDBRANCH   1  13
BRANCH   5  16
ATOM     16  N   UNL     1       1.703   8.606  19.594  0.00  0.00    +0.000 N 
ATOM     17  C   UNL     1       1.372   9.338  18.461  0.00  0.00    +0.000 C 
ATOM     18  O   UNL     1       1.499   8.962  17.301  0.00  0.00    +0.000 OA
ATOM     19  H   UNL     1       1.536   9.031  20.497  0.00  0.00    +0.000 HD
BRANCH  17  20
ATOM     20  C   UNL     1       0.847  10.717  18.671  0.00  0.00    +0.000 A 
ATOM     21  C   UNL     1       1.762  11.789  18.633  0.00  0.00    +0.000 A 
ATOM     22  C   UNL     1       1.316  13.113  18.618  0.00  0.00    +0.000 A 
ATOM     23  C   UNL     1      -0.045  13.382  18.621  0.00  0.00    +0.000 A 
ATOM     24  C   UNL     1      -0.959  12.331  18.674  0.00  0.00    +0.000 A 
ATOM     25  C   UNL     1      -0.533  10.994  18.723  0.00  0.00    +0.000 A 
BRANCH  25  26
ATOM     26  O   UNL     1      -1.588  10.122  18.736  0.00  0.00    +0.000 OA
BRANCH  26  27
ATOM     27  C   UNL     1      -2.407   9.996  17.579  0.00  0.00    +0.000 C 
ATOM     28  F   UNL     1      -1.703   9.484  16.538  0.00  0.00    +0.000 F 
ATOM     29  F   UNL     1      -3.361   9.071  17.876  0.00  0.00    +0.000 F 
ENDBRANCH  26  27
ENDBRANCH  25  26
ENDBRANCH  17  20
ENDBRANCH   5  16
TORSDOF 5
ENDMDL
MODEL 5
REMARK VINA RESULT:      -8.4      4.222      5.863
REMARK  Name = 
REMARK  6 active torsions:
REMARK  status: ('A' for Active; 'I' for Inactive)
REMARK    1  A    between atoms: C_1  and  C_2
REMARK    2  A    between atoms: C_7  and  C_8
REMARK    3  A    between atoms: C_12  and  N_13
REMARK    4  A    between atoms: C_14  and  C_16
REMARK    5  A    between atoms: C_21  and  O_22
REMARK    6  A    between atoms: O_22  and  C_23
REMARK                            x       y       z     vdW  Elec       q    Type
REMARK                         _______ _______ _______ _____ _____    ______ ____
ROOT
ATOM      1  C   UNL     1      -0.775  10.658  18.246  0.00  0.00    +0.000 A 
ATOM      2  C   UNL     1      -0.349  11.445  19.323  0.00  0.00    +0.000 A 
ATOM      3  C   UNL     1       0.872  11.190  19.933  0.00  0.00    +0.000 A 
ATOM      4  C   UNL     1       1.672  10.145  19.474  0.00  0.00    +0.000 A 
ATOM      5  C   UNL     1       1.267   9.337  18.407  0.00  0.00    +0.000 A 
ATOM      6  C   UNL     1       0.039   9.610  17.781  0.00  0.00    +0.000 A 
ENDROOT
BRANCH   1  13
ATOM      7  C   UNL     1      -5.363  12.085  18.790  0.00  0.00    +0.000 C 
ATOM      8  C   UNL     1      -4.294  11.626  17.839  0.00  0.00    +0.000 A 
ATOM      9  C   UNL     1      -4.551  11.442  16.537  0.00  0.00    +0.000 A 
ATOM     10  C   UNL     1      -3.456  10.973  15.682  0.00  0.00    +0.000 A 
ATOM     11  O   UNL     1      -3.622  10.746  14.489  0.00  0.00    +0.000 OA
ATOM     12  N   UNL     1      -2.257  10.794  16.305  0.00  0.00    +0.000 N 
ATOM     13  C   UNL     1      -2.102  10.984  17.656  0.00  0.00    +0.000 A 
ATOM     14  N   UNL     1      -3.071  11.388  18.415  0.00  0.00    +0.000 NA
ATOM     15  H   UNL     1      -1.527  10.413  15.727  0.00  0.00    +0.000 HD
ENDBRANCH   1  13
BRANCH   5  16
ATOM     16  N   UNL     1       2.031   8.238  17.937  0.00  0.00    +0.000 N 
ATOM     17  C   UNL     1       2.395   7.117  18.673  0.00  0.00    +0.000 C 
ATOM     18  O   UNL     1       2.133   6.918  19.854  0.00  0.00    +0.000 OA
ATOM     19  H   UNL     1       2.301   8.273  16.963  0.00  0.00    +0.000 HD
BRANCH  17  20
ATOM     20  C   UNL     1       3.204   6.079  17.974  0.00  0.00    +0.000 A 
ATOM     21  C   UNL     1       4.554   6.369  17.688  0.00  0.00    +0.000 A 
ATOM     22  C   UNL     1       5.419   5.376  17.224  0.00  0.00    +0.000 A 
ATOM     23  C   UNL     1       4.954   4.079  17.059  0.00  0.00    +0.000 A 
ATOM     24  C   UNL     1       3.618   3.782  17.324  0.00  0.00    +0.000 A 
ATOM     25  C   UNL     1       2.723   4.773  17.759  0.00  0.00    +0.000 A 
BRANCH  25  26
ATOM     26  O   UNL     1       1.474   4.264  17.993  0.00  0.00    +0.000 OA
BRANCH  26  27
ATOM     27  C   UNL     1       1.256   3.432  19.126  0.00  0.00    +0.000 C 
ATOM     28  F   UNL     1       0.593   4.102  20.102  0.00  0.00    +0.000 F 
ATOM     29  F   UNL     1       0.422   2.434  18.723  0.00  0.00    +0.000 F 
ENDBRANCH  26  27
ENDBRANCH  25  26
ENDBRANCH  17  20
ENDBRANCH   5  16
TORSDOF 5
ENDMDL
MODEL 6
REMARK VINA RESULT:      -8.4      1.240      1.769
REMARK  Name = 
REMARK  6 active torsions:
REMARK  status: ('A' for Active; 'I' for Inactive)
REMARK    1  A    between atoms: C_1  and  C_2
REMARK    2  A    between atoms: C_7  and  C_8
REMARK    3  A    between atoms: C_12  and  N_13
REMARK    4  A    between atoms: C_14  and  C_16
REMARK    5  A    between atoms: C_21  and  O_22
REMARK    6  A    between atoms: O_22  and  C_23
REMARK                            x       y       z     vdW  Elec       q    Type
REMARK                         _______ _______ _______ _____ _____    ______ ____
ROOT
ATOM      1  C   UNL     1       1.951   6.929  20.233  0.00  0.00    +0.000 A 
ATOM      2  C   UNL     1       1.544   5.855  21.034  0.00  0.00    +0.000 A 
ATOM      3  C   UNL     1       2.094   4.595  20.842  0.00  0.00    +0.000 A 
ATOM      4  C   UNL     1       3.050   4.400  19.847  0.00  0.00    +0.000 A 
ATOM      5  C   UNL     1       3.467   5.452  19.026  0.00  0.00    +0.000 A 
ATOM      6  C   UNL     1       2.921   6.729  19.236  0.00  0.00    +0.000 A 
ENDROOT
BRANCH   1  13
ATOM      7  C   UNL     1      -0.542   9.871  23.152  0.00  0.00    +0.000 C 
ATOM      8  C   UNL     1       0.100   9.684  21.805  0.00  0.00    +0.000 A 
ATOM      9  C   UNL     1       0.019  10.627  20.857  0.00  0.00    +0.000 A 
ATOM     10  C   UNL     1       0.656  10.356  19.564  0.00  0.00    +0.000 A 
ATOM     11  O   UNL     1       0.594  11.153  18.636  0.00  0.00    +0.000 OA
ATOM     12  N   UNL     1       1.302   9.159  19.466  0.00  0.00    +0.000 N 
ATOM     13  C   UNL     1       1.303   8.245  20.489  0.00  0.00    +0.000 A 
ATOM     14  N   UNL     1       0.732   8.478  21.629  0.00  0.00    +0.000 NA
ATOM     15  H   UNL     1       1.682   8.952  18.558  0.00  0.00    +0.000 HD
ENDBRANCH   1  13
BRANCH   5  16
ATOM     16  N   UNL     1       4.406   5.287  17.975  0.00  0.00    +0.000 N 
ATOM     17  C   UNL     1       4.331   4.355  16.947  0.00  0.00    +0.000 C 
ATOM     18  O   UNL     1       3.452   3.511  16.806  0.00  0.00    +0.000 OA
ATOM     19  H   UNL     1       5.180   5.937  17.968  0.00  0.00    +0.000 HD
BRANCH  17  20
ATOM     20  C   UNL     1       5.433   4.358  15.945  0.00  0.00    +0.000 A 
ATOM     21  C   UNL     1       5.151   3.890  14.645  0.00  0.00    +0.000 A 
ATOM     22  C   UNL     1       6.073   4.053  13.608  0.00  0.00    +0.000 A 
ATOM     23  C   UNL     1       7.276   4.701  13.850  0.00  0.00    +0.000 A 
ATOM     24  C   UNL     1       7.573   5.155  15.134  0.00  0.00    +0.000 A 
ATOM     25  C   UNL     1       6.675   4.972  16.199  0.00  0.00    +0.000 A 
BRANCH  25  26
ATOM     26  O   UNL     1       7.145   5.519  17.362  0.00  0.00    +0.000 OA
BRANCH  26  27
ATOM     27  C   UNL     1       7.540   6.886  17.383  0.00  0.00    +0.000 C 
ATOM     28  F   UNL     1       6.459   7.705  17.434  0.00  0.00    +0.000 F 
ATOM     29  F   UNL     1       8.212   7.080  18.552  0.00  0.00    +0.000 F 
ENDBRANCH  26  27
ENDBRANCH  25  26
ENDBRANCH  17  20
ENDBRANCH   5  16
TORSDOF 5
ENDMDL
MODEL 7
REMARK VINA RESULT:      -8.3      2.720      8.055
REMARK  Name = 
REMARK  6 active torsions:
REMARK  status: ('A' for Active; 'I' for Inactive)
REMARK    1  A    between atoms: C_1  and  C_2
REMARK    2  A    between atoms: C_7  and  C_8
REMARK    3  A    between atoms: C_12  and  N_13
REMARK    4  A    between atoms: C_14  and  C_16
REMARK    5  A    between atoms: C_21  and  O_22
REMARK    6  A    between atoms: O_22  and  C_23
REMARK                            x       y       z     vdW  Elec       q    Type
REMARK                         _______ _______ _______ _____ _____    ______ ____
ROOT
ATOM      1  C   UNL     1       3.763   4.509  19.357  0.00  0.00    +0.000 A 
ATOM      2  C   UNL     1       3.295   3.222  19.647  0.00  0.00    +0.000 A 
ATOM      3  C   UNL     1       2.124   3.053  20.374  0.00  0.00    +0.000 A 
ATOM      4  C   UNL     1       1.416   4.169  20.817  0.00  0.00    +0.000 A 
ATOM      5  C   UNL     1       1.865   5.466  20.550  0.00  0.00    +0.000 A 
ATOM      6  C   UNL     1       3.041   5.631  19.799  0.00  0.00    +0.000 A 
ENDROOT
BRANCH   1  13
ATOM      7  C   UNL     1       6.194   4.001  15.207  0.00  0.00    +0.000 C 
ATOM      8  C   UNL     1       6.256   4.364  16.665  0.00  0.00    +0.000 A 
ATOM      9  C   UNL     1       7.417   4.680  17.256  0.00  0.00    +0.000 A 
ATOM     10  C   UNL     1       7.392   5.002  18.686  0.00  0.00    +0.000 A 
ATOM     11  O   UNL     1       8.416   5.264  19.305  0.00  0.00    +0.000 OA
ATOM     12  N   UNL     1       6.163   4.972  19.275  0.00  0.00    +0.000 N 
ATOM     13  C   UNL     1       5.033   4.607  18.587  0.00  0.00    +0.000 A 
ATOM     14  N   UNL     1       5.054   4.312  17.325  0.00  0.00    +0.000 NA
ATOM     15  H   UNL     1       6.161   5.132  20.269  0.00  0.00    +0.000 HD
ENDBRANCH   1  13
BRANCH   5  16
ATOM     16  N   UNL     1       1.198   6.626  21.018  0.00  0.00    +0.000 N 
ATOM     17  C   UNL     1       1.322   7.910  20.499  0.00  0.00    +0.000 C 
ATOM     18  O   UNL     1       2.051   8.241  19.571  0.00  0.00    +0.000 OA
ATOM     19  H   UNL     1       0.549   6.485  21.781  0.00  0.00    +0.000 HD
BRANCH  17  20
ATOM     20  C   UNL     1       0.523   8.986  21.151  0.00  0.00    +0.000 A 
ATOM     21  C   UNL     1       0.169   8.824  22.506  0.00  0.00    +0.000 A 
ATOM     22  C   UNL     1      -0.397   9.876  23.230  0.00  0.00    +0.000 A 
ATOM     23  C   UNL     1      -0.599  11.105  22.618  0.00  0.00    +0.000 A 
ATOM     24  C   UNL     1      -0.267  11.273  21.275  0.00  0.00    +0.000 A 
ATOM     25  C   UNL     1       0.273  10.220  20.518  0.00  0.00    +0.000 A 
BRANCH  25  26
ATOM     26  O   UNL     1       0.557  10.606  19.237  0.00  0.00    +0.000 OA
BRANCH  26  27
ATOM     27  C   UNL     1      -0.381  10.340  18.200  0.00  0.00    +0.000 C 
ATOM     28  F   UNL     1       0.042   9.322  17.410  0.00  0.00    +0.000 F 
ATOM     29  F   UNL     1      -1.517   9.896  18.807  0.00  0.00    +0.000 F 
ENDBRANCH  26  27
ENDBRANCH  25  26
ENDBRANCH  17  20
ENDBRANCH   5  16
TORSDOF 5
ENDMDL
MODEL 8
REMARK VINA RESULT:      -8.3      4.084      5.876
REMARK  Name = 
REMARK  6 active torsions:
REMARK  status: ('A' for Active; 'I' for Inactive)
REMARK    1  A    between atoms: C_1  and  C_2
REMARK    2  A    between atoms: C_7  and  C_8
REMARK    3  A    between atoms: C_12  and  N_13
REMARK    4  A    between atoms: C_14  and  C_16
REMARK    5  A    between atoms: C_21  and  O_22
REMARK    6  A    between atoms: O_22  and  C_23
REMARK                            x       y       z     vdW  Elec       q    Type
REMARK                         _______ _______ _______ _____ _____    ______ ____
ROOT
ATOM      1  C   UNL     1      -1.295  10.760  19.050  0.00  0.00    +0.000 A 
ATOM      2  C   UNL     1      -1.163  11.607  20.158  0.00  0.00    +0.000 A 
ATOM      3  C   UNL     1      -0.095  11.450  21.031  0.00  0.00    +0.000 A 
ATOM      4  C   UNL     1       0.845  10.447  20.804  0.00  0.00    +0.000 A 
ATOM      5  C   UNL     1       0.733   9.582  19.712  0.00  0.00    +0.000 A 
ATOM      6  C   UNL     1      -0.340   9.755  18.821  0.00  0.00    +0.000 A 
ENDROOT
BRANCH   1  13
ATOM      7  C   UNL     1      -3.444  10.323  14.739  0.00  0.00    +0.000 C 
ATOM      8  C   UNL     1      -3.546  10.835  16.149  0.00  0.00    +0.000 A 
ATOM      9  C   UNL     1      -4.616  11.526  16.564  0.00  0.00    +0.000 A 
ATOM     10  C   UNL     1      -4.627  12.006  17.950  0.00  0.00    +0.000 A 
ATOM     11  O   UNL     1      -5.553  12.676  18.392  0.00  0.00    +0.000 OA
ATOM     12  N   UNL     1      -3.538  11.670  18.698  0.00  0.00    +0.000 N 
ATOM     13  C   UNL     1      -2.475  10.980  18.170  0.00  0.00    +0.000 A 
ATOM     14  N   UNL     1      -2.459  10.564  16.943  0.00  0.00    +0.000 NA
ATOM     15  H   UNL     1      -3.522  12.055  19.627  0.00  0.00    +0.000 HD
ENDBRANCH   1  13
BRANCH   5  16
ATOM     16  N   UNL     1       1.644   8.522  19.469  0.00  0.00    +0.000 N 
ATOM     17  C   UNL     1       2.326   8.282  18.282  0.00  0.00    +0.000 C 
ATOM     18  O   UNL     1       2.223   8.936  17.250  0.00  0.00    +0.000 OA
ATOM     19  H   UNL     1       1.829   7.911  20.253  0.00  0.00    +0.000 HD
BRANCH  17  20
ATOM     20  C   UNL     1       3.238   7.104  18.249  0.00  0.00    +0.000 A 
ATOM     21  C   UNL     1       4.321   7.128  17.347  0.00  0.00    +0.000 A 
ATOM     22  C   UNL     1       5.324   6.158  17.405  0.00  0.00    +0.000 A 
ATOM     23  C   UNL     1       5.270   5.165  18.373  0.00  0.00    +0.000 A 
ATOM     24  C   UNL     1       4.196   5.122  19.261  0.00  0.00    +0.000 A 
ATOM     25  C   UNL     1       3.159   6.068  19.200  0.00  0.00    +0.000 A 
BRANCH  25  26
ATOM     26  O   UNL     1       2.225   5.865  20.179  0.00  0.00    +0.000 OA
BRANCH  26  27
ATOM     27  C   UNL     1       1.902   4.537  20.575  0.00  0.00    +0.000 C 
ATOM     28  F   UNL     1       2.336   4.286  21.836  0.00  0.00    +0.000 F 
ATOM     29  F   UNL     1       0.543   4.466  20.626  0.00  0.00    +0.000 F 
ENDBRANCH  26  27
ENDBRANCH  25  26
ENDBRANCH  17  20
ENDBRANCH   5  16
TORSDOF 5
ENDMDL
MODEL 9
REMARK VINA RESULT:      -8.2      1.116      1.132
REMARK  Name = 
REMARK  6 active torsions:
REMARK  status: ('A' for Active; 'I' for Inactive)
REMARK    1  A    between atoms: C_1  and  C_2
REMARK    2  A    between atoms: C_7  and  C_8
REMARK    3  A    between atoms: C_12  and  N_13
REMARK    4  A    between atoms: C_14  and  C_16
REMARK    5  A    between atoms: C_21  and  O_22
REMARK    6  A    between atoms: O_22  and  C_23
REMARK                            x       y       z     vdW  Elec       q    Type
REMARK                         _______ _______ _______ _____ _____    ______ ____
ROOT
ATOM      1  C   UNL     1       1.871   6.998  20.178  0.00  0.00    +0.000 A 
ATOM      2  C   UNL     1       1.398   5.884  20.882  0.00  0.00    +0.000 A 
ATOM      3  C   UNL     1       1.867   4.614  20.575  0.00  0.00    +0.000 A 
ATOM      4  C   UNL     1       2.809   4.449  19.561  0.00  0.00    +0.000 A 
ATOM      5  C   UNL     1       3.292   5.543  18.835  0.00  0.00    +0.000 A 
ATOM      6  C   UNL     1       2.827   6.828  19.161  0.00  0.00    +0.000 A 
ENDROOT
BRANCH   1  13
ATOM      7  C   UNL     1       0.645  11.520  18.980  0.00  0.00    +0.000 C 
ATOM      8  C   UNL     1       0.729  10.486  20.068  0.00  0.00    +0.000 A 
ATOM      9  C   UNL     1       0.389  10.775  21.332  0.00  0.00    +0.000 A 
ATOM     10  C   UNL     1       0.519   9.714  22.336  0.00  0.00    +0.000 A 
ATOM     11  O   UNL     1       0.263   9.911  23.518  0.00  0.00    +0.000 OA
ATOM     12  N   UNL     1       0.956   8.511  21.868  0.00  0.00    +0.000 N 
ATOM     13  C   UNL     1       1.308   8.323  20.554  0.00  0.00    +0.000 A 
ATOM     14  N   UNL     1       1.203   9.262  19.667  0.00  0.00    +0.000 NA
ATOM     15  H   UNL     1       1.104   7.806  22.571  0.00  0.00    +0.000 HD
ENDBRANCH   1  13
BRANCH   5  16
ATOM     16  N   UNL     1       4.218   5.414  17.769  0.00  0.00    +0.000 N 
ATOM     17  C   UNL     1       4.527   4.242  17.087  0.00  0.00    +0.000 C 
ATOM     18  O   UNL     1       4.065   3.132  17.324  0.00  0.00    +0.000 OA
ATOM     19  H   UNL     1       4.663   6.269  17.464  0.00  0.00    +0.000 HD
BRANCH  17  20
ATOM     20  C   UNL     1       5.535   4.337  15.995  0.00  0.00    +0.000 A 
ATOM     21  C   UNL     1       5.273   3.659  14.787  0.00  0.00    +0.000 A 
ATOM     22  C   UNL     1       6.068   3.868  13.658  0.00  0.00    +0.000 A 
ATOM     23  C   UNL     1       7.121   4.771  13.714  0.00  0.00    +0.000 A 
ATOM     24  C   UNL     1       7.400   5.437  14.907  0.00  0.00    +0.000 A 
ATOM     25  C   UNL     1       6.634   5.216  16.063  0.00  0.00    +0.000 A 
BRANCH  25  26
ATOM     26  O   UNL     1       7.054   5.992  17.109  0.00  0.00    +0.000 OA
BRANCH  26  27
ATOM     27  C   UNL     1       7.757   5.391  18.190  0.00  0.00    +0.000 C 
ATOM     28  F   UNL     1       6.931   5.171  19.245  0.00  0.00    +0.000 F 
ATOM     29  F   UNL     1       8.153   4.161  17.762  0.00  0.00    +0.000 F 
ENDBRANCH  26  27
ENDBRANCH  25  26
ENDBRANCH  17  20
ENDBRANCH   5  16
TORSDOF 5
ENDMDL
