MODEL 1
REMARK VINA RESULT:      -8.6      0.000      0.000
REMARK  Name = 
REMARK  6 active torsions:
REMARK  status: ('A' for Active; 'I' for Inactive)
REMARK    1  A    between atoms: C_1  and  C_2
REMARK    2  A    between atoms: C_2  and  N_3
REMARK    3  A    between atoms: C_2  and  C_20
REMARK    4  A    between atoms: C_4  and  C_6
REMARK    5  A    between atoms: C_9  and  C_10
REMARK    6  A    between atoms: C_10  and  N_11
REMARK                            x       y       z     vdW  Elec       q    Type
REMARK                         _______ _______ _______ _____ _____    ______ ____
ROOT
ATOM      1  N   UNL     1      -0.132  10.616  19.048  0.00  0.00    +0.000 N 
ATOM      2  C   UNL     1       1.177  10.406  18.661  0.00  0.00    +0.000 C 
ATOM      3  O   UNL     1       1.892  11.285  18.189  0.00  0.00    +0.000 OA
ATOM      4  H   UNL     1      -0.699   9.842  19.361  0.00  0.00    +0.000 HD
ENDROOT
BRANCH   2   5
ATOM      5  C   UNL     1       1.716   9.027  18.830  0.00  0.00    +0.000 A 
ATOM      6  C   UNL     1       2.448   8.456  17.783  0.00  0.00    +0.000 A 
ATOM      7  C   UNL     1       3.005   7.176  17.917  0.00  0.00    +0.000 A 
ATOM      8  C   UNL     1       2.837   6.456  19.109  0.00  0.00    +0.000 A 
ATOM      9  C   UNL     1       2.124   7.044  20.164  0.00  0.00    +0.000 A 
ATOM     10  C   UNL     1       1.567   8.320  20.029  0.00  0.00    +0.000 A 
BRANCH   8  11
ATOM     11  C   UNL     1       3.460   5.088  19.279  0.00  0.00    +0.000 C 
BRANCH  11  12
ATOM     12  N   UNL     1       2.456   4.055  19.411  0.00  0.00    +0.000 N 
ATOM     13  C   UNL     1       1.855   3.447  18.349  0.00  0.00    +0.000 C 
ATOM     14  O   UNL     1       2.096   3.630  17.166  0.00  0.00    +0.000 OA
ATOM     15  C   UNL     1       0.808   2.500  18.859  0.00  0.00    +0.000 C 
ATOM     16  C   UNL     1       1.027   2.477  20.361  0.00  0.00    +0.000 C 
ATOM     17  C   UNL     1       2.027   3.568  20.608  0.00  0.00    +0.000 C 
ATOM     18  O   UNL     1       2.408   3.913  21.718  0.00  0.00    +0.000 OA
ENDBRANCH  11  12
ENDBRANCH   8  11
ENDBRANCH   2   5
BRANCH   1  20
ATOM     19  C   UNL     1      -0.472  12.644  20.388  0.00  0.00    +0.000 C 
ATOM     20  C   UNL     1      -0.724  11.948  19.049  0.00  0.00    +0.000 C 
BRANCH  20  21
ATOM     21  C   UNL     1      -2.207  11.904  18.717  0.00  0.00    +0.000 A 
ATOM     22  C   UNL     1      -2.689  11.467  17.479  0.00  0.00    +0.000 A 
ATOM     23  C   UNL     1      -4.063  11.451  17.219  0.00  0.00    +0.000 A 
ATOM     24  C   UNL     1      -4.994  11.860  18.190  0.00  0.00    +0.000 A 
ATOM     25  C   UNL     1      -4.530  12.267  19.441  0.00  0.00    +0.000 A 
ATOM     26  C   UNL     1      -3.145  12.300  19.686  0.00  0.00    +0.000 A 
ATOM     27  C   UNL     1      -5.465  12.743  20.516  0.00  0.00    +0.000 C 
ATOM     28  C   UNL     1      -6.922  12.329  20.360  0.00  0.00    +0.000 C 
ATOM     29  C   UNL     1      -7.454  12.169  18.943  0.00  0.00    +0.000 C 
ATOM     30  C   UNL     1      -6.449  11.911  17.823  0.00  0.00    +0.000 C 
ENDBRANCH  20  21
ENDBRANCH   1  20
TORSDOF 5
ENDMDL
MODEL 2
REMARK VINA RESULT:      -8.5      0.728      1.808
REMARK  Name = 
REMARK  6 active torsions:
REMARK  status: ('A' for Active; 'I' for Inactive)
REMARK    1  A    between atoms: C_1  and  C_2
REMARK    2  A    between atoms: C_2  and  N_3
REMARK    3  A    between atoms: C_2  and  C_20
REMARK    4  A    between atoms: C_4  and  C_6
REMARK    5  A    between atoms: C_9  and  C_10
REMARK    6  A    between atoms: C_10  and  N_11
REMARK                            x       y       z     vdW  Elec       q    Type
REMARK                         _______ _______ _______ _____ _____    ______ ____
ROOT
ATOM      1  N   UNL     1      -0.534  10.717  19.918  0.00  0.00    +0.000 N 
ATOM      2  C   UNL     1       0.690  10.675  19.280  0.00  0.00    +0.000 C 
ATOM      3  O   UNL     1       1.217  11.655  18.763  0.00  0.00    +0.000 OA
ATOM      4  H   UNL     1      -0.956   9.867  20.262  0.00  0.00    +0.000 HD
ENDROOT
BRANCH   2   5
ATOM      5  C   UNL     1       1.376   9.354  19.227  0.00  0.00    +0.000 A 
ATOM      6  C   UNL     1       1.367   8.542  20.367  0.00  0.00    +0.000 A 
ATOM      7  C   UNL     1       1.969   7.275  20.346  0.00  0.00    +0.000 A 
ATOM      8  C   UNL     1       2.582   6.806  19.175  0.00  0.00    +0.000 A 
ATOM      9  C   UNL     1       2.566   7.613  18.028  0.00  0.00    +0.000 A 
ATOM     10  C   UNL     1       1.968   8.877  18.050  0.00  0.00    +0.000 A 
BRANCH   8  11
ATOM     11  C   UNL     1       3.205   5.429  19.129  0.00  0.00    +0.000 C 
BRANCH  11  12
ATOM     12  N   UNL     1       2.232   4.392  19.397  0.00  0.00    +0.000 N 
ATOM     13  C   UNL     1       2.011   3.868  20.636  0.00  0.00    +0.000 C 
ATOM     14  O   UNL     1       2.537   4.211  21.683  0.00  0.00    +0.000 OA
ATOM     15  C   UNL     1       1.004   2.760  20.522  0.00  0.00    +0.000 C 
ATOM     16  C   UNL     1       0.510   2.852  19.090  0.00  0.00    +0.000 C 
ATOM     17  C   UNL     1       1.421   3.853  18.445  0.00  0.00    +0.000 C 
ATOM     18  O   UNL     1       1.389   4.148  17.258  0.00  0.00    +0.000 OA
ENDBRANCH  11  12
ENDBRANCH   8  11
ENDBRANCH   2   5
BRANCH   1  20
ATOM     19  C   UNL     1      -1.370  12.249  21.644  0.00  0.00    +0.000 C 
ATOM     20  C   UNL     1      -1.236  11.974  20.144  0.00  0.00    +0.000 C 
BRANCH  20  21
ATOM     21  C   UNL     1      -2.589  11.995  19.453  0.00  0.00    +0.000 A 
ATOM     22  C   UNL     1      -2.813  11.379  18.217  0.00  0.00    +0.000 A 
ATOM     23  C   UNL     1      -4.076  11.432  17.618  0.00  0.00    +0.000 A 
ATOM     24  C   UNL     1      -5.151  12.091  18.239  0.00  0.00    +0.000 A 
ATOM     25  C   UNL     1      -4.952  12.681  19.487  0.00  0.00    +0.000 A 
ATOM     26  C   UNL     1      -3.672  12.642  20.072  0.00  0.00    +0.000 A 
ATOM     27  C   UNL     1      -6.047  13.425  20.195  0.00  0.00    +0.000 C 
ATOM     28  C   UNL     1      -7.466  13.114  19.736  0.00  0.00    +0.000 C 
ATOM     29  C   UNL     1      -7.659  12.741  18.273  0.00  0.00    +0.000 C 
ATOM     30  C   UNL     1      -6.457  12.196  17.505  0.00  0.00    +0.000 C 
ENDBRANCH  20  21
ENDBRANCH   1  20
TORSDOF 5
ENDMDL
MODEL 3
REMARK VINA RESULT:      -8.5      2.099      2.892
REMARK  Name = 
REMARK  6 active torsions:
REMARK  status: ('A' for Active; 'I' for Inactive)
REMARK    1  A    between atoms: C_1  and  C_2
REMARK    2  A    between atoms: C_2  and  N_3
REMARK    3  A    between atoms: C_2  and  C_20
REMARK    4  A    between atoms: C_4  and  C_6
REMARK    5  A    between atoms: C_9  and  C_10
REMARK    6  A    between atoms: C_10  and  N_11
REMARK                            x       y       z     vdW  Elec       q    Type
REMARK                         _______ _______ _______ _____ _____    ______ ____
ROOT
ATOM      1  N   UNL     1       0.359   9.731  19.827  0.00  0.00    +0.000 N 
ATOM      2  C   UNL     1       1.425   9.675  18.951  0.00  0.00    +0.000 C 
ATOM      3  O   UNL     1       1.800  10.631  18.280  0.00  0.00    +0.000 OA
ATOM      4  H   UNL     1       0.045   8.895  20.299  0.00  0.00    +0.000 HD
ENDROOT
BRANCH   2   5
ATOM      5  C   UNL     1       2.129   8.366  18.831  0.00  0.00    +0.000 A 
ATOM      6  C   UNL     1       2.000   7.434  19.867  0.00  0.00    +0.000 A 
ATOM      7  C   UNL     1       2.616   6.177  19.774  0.00  0.00    +0.000 A 
ATOM      8  C   UNL     1       3.363   5.840  18.637  0.00  0.00    +0.000 A 
ATOM      9  C   UNL     1       3.467   6.769  17.591  0.00  0.00    +0.000 A 
ATOM     10  C   UNL     1       2.855   8.023  17.684  0.00  0.00    +0.000 A 
BRANCH   8  11
ATOM     11  C   UNL     1       4.004   4.475  18.511  0.00  0.00    +0.000 C 
BRANCH  11  12
ATOM     12  N   UNL     1       5.339   4.560  17.959  0.00  0.00    +0.000 N 
ATOM     13  C   UNL     1       5.628   4.330  16.647  0.00  0.00    +0.000 C 
ATOM     14  O   UNL     1       4.835   4.080  15.753  0.00  0.00    +0.000 OA
ATOM     15  C   UNL     1       7.115   4.417  16.454  0.00  0.00    +0.000 C 
ATOM     16  C   UNL     1       7.631   4.940  17.782  0.00  0.00    +0.000 C 
ATOM     17  C   UNL     1       6.437   4.903  18.689  0.00  0.00    +0.000 C 
ATOM     18  O   UNL     1       6.467   5.181  19.879  0.00  0.00    +0.000 OA
ENDBRANCH  11  12
ENDBRANCH   8  11
ENDBRANCH   2   5
BRANCH   1  20
ATOM     19  C   UNL     1      -0.573  11.116  21.627  0.00  0.00    +0.000 C 
ATOM     20  C   UNL     1      -0.323  10.985  20.123  0.00  0.00    +0.000 C 
BRANCH  20  21
ATOM     21  C   UNL     1      -1.613  11.124  19.331  0.00  0.00    +0.000 A 
ATOM     22  C   UNL     1      -1.826  10.466  18.115  0.00  0.00    +0.000 A 
ATOM     23  C   UNL     1      -3.029  10.632  17.421  0.00  0.00    +0.000 A 
ATOM     24  C   UNL     1      -4.055  11.449  17.926  0.00  0.00    +0.000 A 
ATOM     25  C   UNL     1      -3.871  12.086  19.153  0.00  0.00    +0.000 A 
ATOM     26  C   UNL     1      -2.649  11.930  19.834  0.00  0.00    +0.000 A 
ATOM     27  C   UNL     1      -4.913  12.994  19.739  0.00  0.00    +0.000 C 
ATOM     28  C   UNL     1      -6.324  12.827  19.191  0.00  0.00    +0.000 C 
ATOM     29  C   UNL     1      -6.462  12.392  17.739  0.00  0.00    +0.000 C 
ATOM     30  C   UNL     1      -5.285  11.664  17.092  0.00  0.00    +0.000 C 
ENDBRANCH  20  21
ENDBRANCH   1  20
TORSDOF 5
ENDMDL
MODEL 4
REMARK VINA RESULT:      -8.4      3.842     10.553
REMARK  Name = 
REMARK  6 active torsions:
REMARK  status: ('A' for Active; 'I' for Inactive)
REMARK    1  A    between atoms: C_1  and  C_2
REMARK    2  A    between atoms: C_2  and  N_3
REMARK    3  A    between atoms: C_2  and  C_20
REMARK    4  A    between atoms: C_4  and  C_6
REMARK    5  A    between atoms: C_9  and  C_10
REMARK    6  A    between atoms: C_10  and  N_11
REMARK                            x       y       z     vdW  Elec       q    Type
REMARK                         _______ _______ _______ _____ _____    ______ ____
ROOT
ATOM      1  N   UNL     1       3.949   6.221  18.141  0.00  0.00    +0.000 N 
ATOM      2  C   UNL     1       2.917   6.329  19.051  0.00  0.00    +0.000 C 
ATOM      3  O   UNL     1       2.551   5.406  19.771  0.00  0.00    +0.000 OA
ATOM      4  H   UNL     1       4.161   6.989  17.520  0.00  0.00    +0.000 HD
ENDROOT
BRANCH   2   5
ATOM      5  C   UNL     1       2.224   7.646  19.130  0.00  0.00    +0.000 A 
ATOM      6  C   UNL     1       2.119   8.423  17.971  0.00  0.00    +0.000 A 
ATOM      7  C   UNL     1       1.441   9.651  17.995  0.00  0.00    +0.000 A 
ATOM      8  C   UNL     1       0.856  10.110  19.184  0.00  0.00    +0.000 A 
ATOM      9  C   UNL     1       0.943   9.315  20.337  0.00  0.00    +0.000 A 
ATOM     10  C   UNL     1       1.621   8.091  20.313  0.00  0.00    +0.000 A 
BRANCH   8  11
ATOM     11  C   UNL     1       0.094  11.417  19.216  0.00  0.00    +0.000 C 
BRANCH  11  12
ATOM     12  N   UNL     1       0.894  12.489  19.767  0.00  0.00    +0.000 N 
ATOM     13  C   UNL     1       0.825  12.889  21.068  0.00  0.00    +0.000 C 
ATOM     14  O   UNL     1       0.146  12.393  21.954  0.00  0.00    +0.000 OA
ATOM     15  C   UNL     1       1.722  14.077  21.260  0.00  0.00    +0.000 C 
ATOM     16  C   UNL     1       2.485  14.182  19.952  0.00  0.00    +0.000 C 
ATOM     17  C   UNL     1       1.814  13.190  19.048  0.00  0.00    +0.000 C 
ATOM     18  O   UNL     1       2.099  13.031  17.870  0.00  0.00    +0.000 OA
ENDBRANCH  11  12
ENDBRANCH   8  11
ENDBRANCH   2   5
BRANCH   1  20
ATOM     19  C   UNL     1       5.708   4.942  19.280  0.00  0.00    +0.000 C 
ATOM     20  C   UNL     1       4.781   5.026  18.066  0.00  0.00    +0.000 C 
BRANCH  20  21
ATOM     21  C   UNL     1       5.563   4.967  16.765  0.00  0.00    +0.000 A 
ATOM     22  C   UNL     1       6.855   5.490  16.637  0.00  0.00    +0.000 A 
ATOM     23  C   UNL     1       7.531   5.417  15.415  0.00  0.00    +0.000 A 
ATOM     24  C   UNL     1       6.944   4.810  14.292  0.00  0.00    +0.000 A 
ATOM     25  C   UNL     1       5.670   4.254  14.412  0.00  0.00    +0.000 A 
ATOM     26  C   UNL     1       4.989   4.352  15.639  0.00  0.00    +0.000 A 
ATOM     27  C   UNL     1       4.972   3.616  13.246  0.00  0.00    +0.000 C 
ATOM     28  C   UNL     1       5.865   3.189  12.089  0.00  0.00    +0.000 C 
ATOM     29  C   UNL     1       7.116   4.016  11.831  0.00  0.00    +0.000 C 
ATOM     30  C   UNL     1       7.680   4.845  12.983  0.00  0.00    +0.000 C 
ENDBRANCH  20  21
ENDBRANCH   1  20
TORSDOF 5
ENDMDL
MODEL 5
REMARK VINA RESULT:      -8.4      3.073      5.297
REMARK  Name = 
REMARK  6 active torsions:
REMARK  status: ('A' for Active; 'I' for Inactive)
REMARK    1  A    between atoms: C_1  and  C_2
REMARK    2  A    between atoms: C_2  and  N_3
REMARK    3  A    between atoms: C_2  and  C_20
REMARK    4  A    between atoms: C_4  and  C_6
REMARK    5  A    between atoms: C_9  and  C_10
REMARK    6  A    between atoms: C_10  and  N_11
REMARK                            x       y       z     vdW  Elec       q    Type
REMARK                         _______ _______ _______ _____ _____    ______ ____
ROOT
ATOM      1  N   UNL     1       0.687   9.873  18.841  0.00  0.00    +0.000 N 
ATOM      2  C   UNL     1       1.182   9.086  19.862  0.00  0.00    +0.000 C 
ATOM      3  O   UNL     1       1.028   9.344  21.051  0.00  0.00    +0.000 OA
ATOM      4  H   UNL     1       0.906   9.655  17.880  0.00  0.00    +0.000 HD
ENDROOT
BRANCH   2   5
ATOM      5  C   UNL     1       1.949   7.871  19.464  0.00  0.00    +0.000 A 
ATOM      6  C   UNL     1       1.951   6.765  20.321  0.00  0.00    +0.000 A 
ATOM      7  C   UNL     1       2.628   5.589  19.965  0.00  0.00    +0.000 A 
ATOM      8  C   UNL     1       3.307   5.510  18.741  0.00  0.00    +0.000 A 
ATOM      9  C   UNL     1       3.280   6.613  17.875  0.00  0.00    +0.000 A 
ATOM     10  C   UNL     1       2.606   7.786  18.231  0.00  0.00    +0.000 A 
BRANCH   8  11
ATOM     11  C   UNL     1       4.013   4.236  18.331  0.00  0.00    +0.000 C 
BRANCH  11  12
ATOM     12  N   UNL     1       5.344   4.500  17.829  0.00  0.00    +0.000 N 
ATOM     13  C   UNL     1       6.388   4.875  18.622  0.00  0.00    +0.000 C 
ATOM     14  O   UNL     1       6.381   4.993  19.837  0.00  0.00    +0.000 OA
ATOM     15  C   UNL     1       7.583   5.149  17.755  0.00  0.00    +0.000 C 
ATOM     16  C   UNL     1       7.159   4.676  16.377  0.00  0.00    +0.000 C 
ATOM     17  C   UNL     1       5.696   4.376  16.519  0.00  0.00    +0.000 C 
ATOM     18  O   UNL     1       4.971   4.035  15.596  0.00  0.00    +0.000 OA
ENDBRANCH  11  12
ENDBRANCH   8  11
ENDBRANCH   2   5
BRANCH   1  20
ATOM     19  C   UNL     1      -1.458  10.918  18.265  0.00  0.00    +0.000 C 
ATOM     20  C   UNL     1      -0.184  11.011  19.107  0.00  0.00    +0.000 C 
BRANCH  20  21
ATOM     21  C   UNL     1       0.533  12.332  18.884  0.00  0.00    +0.000 A 
ATOM     22  C   UNL     1       1.900  12.409  18.597  0.00  0.00    +0.000 A 
ATOM     23  C   UNL     1       2.516  13.650  18.406  0.00  0.00    +0.000 A 
ATOM     24  C   UNL     1       1.783  14.847  18.485  0.00  0.00    +0.000 A 
ATOM     25  C   UNL     1       0.413  14.786  18.738  0.00  0.00    +0.000 A 
ATOM     26  C   UNL     1      -0.193  13.533  18.951  0.00  0.00    +0.000 A 
ATOM     27  C   UNL     1      -0.425  16.025  18.864  0.00  0.00    +0.000 C 
ATOM     28  C   UNL     1       0.164  17.290  18.256  0.00  0.00    +0.000 C 
ATOM     29  C   UNL     1       1.680  17.426  18.261  0.00  0.00    +0.000 C 
ATOM     30  C   UNL     1       2.515  16.153  18.366  0.00  0.00    +0.000 C 
ENDBRANCH  20  21
ENDBRANCH   1  20
TORSDOF 5
ENDMDL
MODEL 6
REMARK VINA RESULT:      -8.4      0.951      2.279
REMARK  Name = 
REMARK  6 active torsions:
REMARK  status: ('A' for Active; 'I' for Inactive)
REMARK    1  A    between atoms: C_1  and  C_2
REMARK    2  A    between atoms: C_2  and  N_3
REMARK    3  A    between atoms: C_2  and  C_20
REMARK    4  A    between atoms: C_4  and  C_6
REMARK    5  A    between atoms: C_9  and  C_10
REMARK    6  A    between atoms: C_10  and  N_11
REMARK                            x       y       z     vdW  Elec       q    Type
REMARK                         _______ _______ _______ _____ _____    ______ ____
ROOT
ATOM      1  N   UNL     1      -0.224  11.231  20.549  0.00  0.00    +0.000 N 
ATOM      2  C   UNL     1       0.319  10.791  19.358  0.00  0.00    +0.000 C 
ATOM      3  O   UNL     1       0.258  11.428  18.311  0.00  0.00    +0.000 OA
ATOM      4  H   UNL     1      -0.211  10.635  21.364  0.00  0.00    +0.000 HD
ENDROOT
BRANCH   2   5
ATOM      5  C   UNL     1       0.999   9.465  19.377  0.00  0.00    +0.000 A 
ATOM      6  C   UNL     1       1.620   9.009  18.208  0.00  0.00    +0.000 A 
ATOM      7  C   UNL     1       2.304   7.784  18.196  0.00  0.00    +0.000 A 
ATOM      8  C   UNL     1       2.376   7.006  19.360  0.00  0.00    +0.000 A 
ATOM      9  C   UNL     1       1.773   7.481  20.534  0.00  0.00    +0.000 A 
ATOM     10  C   UNL     1       1.090   8.701  20.546  0.00  0.00    +0.000 A 
BRANCH   8  11
ATOM     11  C   UNL     1       3.139   5.700  19.368  0.00  0.00    +0.000 C 
BRANCH  11  12
ATOM     12  N   UNL     1       2.258   4.568  19.561  0.00  0.00    +0.000 N 
ATOM     13  C   UNL     1       2.059   3.964  20.767  0.00  0.00    +0.000 C 
ATOM     14  O   UNL     1       2.529   4.300  21.842  0.00  0.00    +0.000 OA
ATOM     15  C   UNL     1       1.160   2.777  20.573  0.00  0.00    +0.000 C 
ATOM     16  C   UNL     1       0.690   2.897  19.135  0.00  0.00    +0.000 C 
ATOM     17  C   UNL     1       1.520   4.007  18.562  0.00  0.00    +0.000 C 
ATOM     18  O   UNL     1       1.487   4.357  17.392  0.00  0.00    +0.000 OA
ENDBRANCH  11  12
ENDBRANCH   8  11
ENDBRANCH   2   5
BRANCH   1  20
ATOM     19  C   UNL     1      -0.256  13.258  21.933  0.00  0.00    +0.000 C 
ATOM     20  C   UNL     1      -0.799  12.564  20.681  0.00  0.00    +0.000 C 
BRANCH  20  21
ATOM     21  C   UNL     1      -2.318  12.524  20.683  0.00  0.00    +0.000 A 
ATOM     22  C   UNL     1      -3.078  12.804  21.824  0.00  0.00    +0.000 A 
ATOM     23  C   UNL     1      -4.474  12.747  21.776  0.00  0.00    +0.000 A 
ATOM     24  C   UNL     1      -5.151  12.421  20.588  0.00  0.00    +0.000 A 
ATOM     25  C   UNL     1      -4.408  12.172  19.434  0.00  0.00    +0.000 A 
ATOM     26  C   UNL     1      -3.003  12.210  19.497  0.00  0.00    +0.000 A 
ATOM     27  C   UNL     1      -5.063  11.790  18.138  0.00  0.00    +0.000 C 
ATOM     28  C   UNL     1      -6.540  12.138  18.012  0.00  0.00    +0.000 C 
ATOM     29  C   UNL     1      -7.372  12.121  19.287  0.00  0.00    +0.000 C 
ATOM     30  C   UNL     1      -6.646  12.283  20.620  0.00  0.00    +0.000 C 
ENDBRANCH  20  21
ENDBRANCH   1  20
TORSDOF 5
ENDMDL
MODEL 7
REMARK VINA RESULT:      -8.4      3.881     10.510
REMARK  Name = 
REMARK  6 active torsions:
REMARK  status: ('A' for Active; 'I' for Inactive)
REMARK    1  A    between atoms: C_1  and  C_2
REMARK    2  A    between atoms: C_2  and  N_3
REMARK    3  A    between atoms: C_2  and  C_20
REMARK    4  A    between atoms: C_4  and  C_6
REMARK    5  A    between atoms: C_9  and  C_10
REMARK    6  A    between atoms: C_10  and  N_11
REMARK                            x       y       z     vdW  Elec       q    Type
REMARK                         _______ _______ _______ _____ _____    ______ ____
ROOT
ATOM      1  N   UNL     1       4.025   6.306  18.097  0.00  0.00    +0.000 N 
ATOM      2  C   UNL     1       2.937   6.370  18.943  0.00  0.00    +0.000 C 
ATOM      3  O   UNL     1       2.565   5.431  19.640  0.00  0.00    +0.000 OA
ATOM      4  H   UNL     1       4.243   7.084  17.490  0.00  0.00    +0.000 HD
ENDROOT
BRANCH   2   5
ATOM      5  C   UNL     1       2.189   7.659  18.982  0.00  0.00    +0.000 A 
ATOM      6  C   UNL     1       1.660   8.095  20.203  0.00  0.00    +0.000 A 
ATOM      7  C   UNL     1       0.984   9.321  20.289  0.00  0.00    +0.000 A 
ATOM      8  C   UNL     1       0.836  10.126  19.151  0.00  0.00    +0.000 A 
ATOM      9  C   UNL     1       1.389   9.695  17.936  0.00  0.00    +0.000 A 
ATOM     10  C   UNL     1       2.062   8.472  17.850  0.00  0.00    +0.000 A 
BRANCH   8  11
ATOM     11  C   UNL     1       0.137  11.465  19.238  0.00  0.00    +0.000 C 
BRANCH  11  12
ATOM     12  N   UNL     1       1.005  12.487  19.781  0.00  0.00    +0.000 N 
ATOM     13  C   UNL     1       1.945  13.146  19.046  0.00  0.00    +0.000 C 
ATOM     14  O   UNL     1       2.160  13.024  17.850  0.00  0.00    +0.000 OA
ATOM     15  C   UNL     1       2.715  14.064  19.952  0.00  0.00    +0.000 C 
ATOM     16  C   UNL     1       1.957  14.010  21.266  0.00  0.00    +0.000 C 
ATOM     17  C   UNL     1       0.954  12.911  21.074  0.00  0.00    +0.000 C 
ATOM     18  O   UNL     1       0.197  12.511  21.947  0.00  0.00    +0.000 OA
ENDBRANCH  11  12
ENDBRANCH   8  11
ENDBRANCH   2   5
BRANCH   1  20
ATOM     19  C   UNL     1       5.868   5.176  19.260  0.00  0.00    +0.000 C 
ATOM     20  C   UNL     1       4.906   5.145  18.070  0.00  0.00    +0.000 C 
BRANCH  20  21
ATOM     21  C   UNL     1       5.656   5.038  16.753  0.00  0.00    +0.000 A 
ATOM     22  C   UNL     1       6.958   5.522  16.585  0.00  0.00    +0.000 A 
ATOM     23  C   UNL     1       7.604   5.405  15.350  0.00  0.00    +0.000 A 
ATOM     24  C   UNL     1       6.973   4.795  14.252  0.00  0.00    +0.000 A 
ATOM     25  C   UNL     1       5.687   4.278  14.412  0.00  0.00    +0.000 A 
ATOM     26  C   UNL     1       5.038   4.420  15.653  0.00  0.00    +0.000 A 
ATOM     27  C   UNL     1       4.944   3.638  13.276  0.00  0.00    +0.000 C 
ATOM     28  C   UNL     1       5.797   3.163  12.107  0.00  0.00    +0.000 C 
ATOM     29  C   UNL     1       7.064   3.949  11.804  0.00  0.00    +0.000 C 
ATOM     30  C   UNL     1       7.679   4.783  12.927  0.00  0.00    +0.000 C 
ENDBRANCH  20  21
ENDBRANCH   1  20
TORSDOF 5
ENDMDL
MODEL 8
REMARK VINA RESULT:      -8.4      2.949      4.638
REMARK  Name = 
REMARK  6 active torsions:
REMARK  status: ('A' for Active; 'I' for Inactive)
REMARK    1  A    between atoms: C_1  and  C_2
REMARK    2  A    between atoms: C_2  and  N_3
REMARK    3  A    between atoms: C_2  and  C_20
REMARK    4  A    between atoms: C_4  and  C_6
REMARK    5  A    between atoms: C_9  and  C_10
REMARK    6  A    between atoms: C_10  and  N_11
REMARK                            x       y       z     vdW  Elec       q    Type
REMARK                         _______ _______ _______ _____ _____    ______ ____
ROOT
ATOM      1  N   UNL     1       0.727  11.031  19.434  0.00  0.00    +0.000 N 
ATOM      2  C   UNL     1       0.851   9.884  20.192  0.00  0.00    +0.000 C 
ATOM      3  O   UNL     1       0.432   9.783  21.340  0.00  0.00    +0.000 OA
ATOM      4  H   UNL     1       1.155  11.085  18.521  0.00  0.00    +0.000 HD
ENDROOT
BRANCH   2   5
ATOM      5  C   UNL     1       1.545   8.728  19.555  0.00  0.00    +0.000 A 
ATOM      6  C   UNL     1       1.936   8.832  18.215  0.00  0.00    +0.000 A 
ATOM      7  C   UNL     1       2.625   7.781  17.590  0.00  0.00    +0.000 A 
ATOM      8  C   UNL     1       2.934   6.617  18.308  0.00  0.00    +0.000 A 
ATOM      9  C   UNL     1       2.562   6.529  19.657  0.00  0.00    +0.000 A 
ATOM     10  C   UNL     1       1.873   7.576  20.279  0.00  0.00    +0.000 A 
BRANCH   8  11
ATOM     11  C   UNL     1       3.706   5.491  17.655  0.00  0.00    +0.000 C 
BRANCH  11  12
ATOM     12  N   UNL     1       3.271   4.197  18.134  0.00  0.00    +0.000 N 
ATOM     13  C   UNL     1       4.035   3.390  18.924  0.00  0.00    +0.000 C 
ATOM     14  O   UNL     1       5.139   3.641  19.380  0.00  0.00    +0.000 OA
ATOM     15  C   UNL     1       3.304   2.097  19.148  0.00  0.00    +0.000 C 
ATOM     16  C   UNL     1       1.925   2.343  18.564  0.00  0.00    +0.000 C 
ATOM     17  C   UNL     1       2.046   3.665  17.865  0.00  0.00    +0.000 C 
ATOM     18  O   UNL     1       1.155   4.177  17.202  0.00  0.00    +0.000 OA
ENDBRANCH  11  12
ENDBRANCH   8  11
ENDBRANCH   2   5
BRANCH   1  20
ATOM     19  C   UNL     1      -1.525  12.001  19.562  0.00  0.00    +0.000 C 
ATOM     20  C   UNL     1      -0.043  12.177  19.902  0.00  0.00    +0.000 C 
BRANCH  20  21
ATOM     21  C   UNL     1       0.502  13.484  19.350  0.00  0.00    +0.000 A 
ATOM     22  C   UNL     1       1.839  13.642  18.971  0.00  0.00    +0.000 A 
ATOM     23  C   UNL     1       2.294  14.868  18.475  0.00  0.00    +0.000 A 
ATOM     24  C   UNL     1       1.427  15.964  18.331  0.00  0.00    +0.000 A 
ATOM     25  C   UNL     1       0.083  15.812  18.673  0.00  0.00    +0.000 A 
ATOM     26  C   UNL     1      -0.361  14.582  19.193  0.00  0.00    +0.000 A 
ATOM     27  C   UNL     1      -0.893  16.948  18.572  0.00  0.00    +0.000 C 
ATOM     28  C   UNL     1      -0.481  18.100  17.665  0.00  0.00    +0.000 C 
ATOM     29  C   UNL     1       1.006  18.398  17.549  0.00  0.00    +0.000 C 
ATOM     30  C   UNL     1       1.992  17.281  17.882  0.00  0.00    +0.000 C 
ENDBRANCH  20  21
ENDBRANCH   1  20
TORSDOF 5
ENDMDL
MODEL 9
REMARK VINA RESULT:      -8.3      3.062      5.089
REMARK  Name = 
REMARK  6 active torsions:
REMARK  status: ('A' for Active; 'I' for Inactive)
REMARK    1  A    between atoms: C_1  and  C_2
REMARK    2  A    between atoms: C_2  and  N_3
REMARK    3  A    between atoms: C_2  and  C_20
REMARK    4  A    between atoms: C_4  and  C_6
REMARK    5  A    between atoms: C_9  and  C_10
REMARK    6  A    between atoms: C_10  and  N_11
REMARK                            x       y       z     vdW  Elec       q    Type
REMARK                         _______ _______ _______ _____ _____    ______ ____
ROOT
ATOM      1  N   UNL     1       0.640   9.706  18.949  0.00  0.00    +0.000 N 
ATOM      2  C   UNL     1       1.206   8.958  19.962  0.00  0.00    +0.000 C 
ATOM      3  O   UNL     1       1.173   9.285  21.144  0.00  0.00    +0.000 OA
ATOM      4  H   UNL     1       0.761   9.430  17.986  0.00  0.00    +0.000 HD
ENDROOT
BRANCH   2   5
ATOM      5  C   UNL     1       1.896   7.698  19.564  0.00  0.00    +0.000 A 
ATOM      6  C   UNL     1       2.584   7.663  18.346  0.00  0.00    +0.000 A 
ATOM      7  C   UNL     1       3.278   6.509  17.952  0.00  0.00    +0.000 A 
ATOM      8  C   UNL     1       3.293   5.378  18.782  0.00  0.00    +0.000 A 
ATOM      9  C   UNL     1       2.622   5.429  20.013  0.00  0.00    +0.000 A 
ATOM     10  C   UNL     1       1.929   6.579  20.404  0.00  0.00    +0.000 A 
BRANCH   8  11
ATOM     11  C   UNL     1       4.065   4.139  18.385  0.00  0.00    +0.000 C 
BRANCH  11  12
ATOM     12  N   UNL     1       5.375   4.468  17.867  0.00  0.00    +0.000 N 
ATOM     13  C   UNL     1       5.709   4.378  16.549  0.00  0.00    +0.000 C 
ATOM     14  O   UNL     1       4.973   4.071  15.624  0.00  0.00    +0.000 OA
ATOM     15  C   UNL     1       7.166   4.708  16.393  0.00  0.00    +0.000 C 
ATOM     16  C   UNL     1       7.582   5.211  17.763  0.00  0.00    +0.000 C 
ATOM     17  C   UNL     1       6.399   4.925  18.641  0.00  0.00    +0.000 C 
ATOM     18  O   UNL     1       6.374   5.121  19.847  0.00  0.00    +0.000 OA
ENDBRANCH  11  12
ENDBRANCH   8  11
ENDBRANCH   2   5
BRANCH   1  20
ATOM     19  C   UNL     1      -1.485  10.831  18.452  0.00  0.00    +0.000 C 
ATOM     20  C   UNL     1      -0.168  10.886  19.230  0.00  0.00    +0.000 C 
BRANCH  20  21
ATOM     21  C   UNL     1       0.592  12.170  18.944  0.00  0.00    +0.000 A 
ATOM     22  C   UNL     1       1.946  12.181  18.590  0.00  0.00    +0.000 A 
ATOM     23  C   UNL     1       2.603  13.391  18.342  0.00  0.00    +0.000 A 
ATOM     24  C   UNL     1       1.927  14.619  18.429  0.00  0.00    +0.000 A 
ATOM     25  C   UNL     1       0.569  14.623  18.749  0.00  0.00    +0.000 A 
ATOM     26  C   UNL     1      -0.078  13.403  19.018  0.00  0.00    +0.000 A 
ATOM     27  C   UNL     1      -0.209  15.899  18.887  0.00  0.00    +0.000 C 
ATOM     28  C   UNL     1       0.403  17.126  18.222  0.00  0.00    +0.000 C 
ATOM     29  C   UNL     1       1.922  17.196  18.152  0.00  0.00    +0.000 C 
ATOM     30  C   UNL     1       2.707  15.890  18.245  0.00  0.00    +0.000 C 
ENDBRANCH  20  21
ENDBRANCH   1  20
TORSDOF 5
ENDMDL
