MODEL 1
REMARK VINA RESULT:      -8.6      0.000      0.000
REMARK  Name = 
REMARK  3 active torsions:
REMARK  status: ('A' for Active; 'I' for Inactive)
REMARK    1  A    between atoms: C_4  and  C_5
REMARK    2  A    between atoms: C_5  and  C_6
REMARK    3  A    between atoms: C_18  and  C_19
REMARK                            x       y       z     vdW  Elec       q    Type
REMARK                         _______ _______ _______ _____ _____    ______ ____
ROOT
ATOM      1  O   UNL     1       1.169  10.284  17.966  0.00  0.00    +0.000 OA
ATOM      2  C   UNL     1       1.158   9.705  19.037  0.00  0.00    +0.000 A 
ATOM      3  N   UNL     1       1.704   8.460  19.170  0.00  0.00    +0.000 N 
ATOM      4  C   UNL     1       1.812   7.815  20.388  0.00  0.00    +0.000 A 
ATOM      5  N   UNL     1       1.306   8.217  21.520  0.00  0.00    +0.000 NA
ATOM      6  C   UNL     1       0.659   9.450  21.431  0.00  0.00    +0.000 A 
ATOM      7  C   UNL     1      -0.005  10.085  22.501  0.00  0.00    +0.000 A 
ATOM      8  C   UNL     1      -0.578  11.285  22.100  0.00  0.00    +0.000 A 
ATOM      9  S   UNL     1      -0.151  11.657  20.465  0.00  0.00    +0.000 S 
ATOM     10  C   UNL     1       0.613  10.176  20.272  0.00  0.00    +0.000 A 
ATOM     11  H   UNL     1       2.159   8.098  18.349  0.00  0.00    +0.000 HD
ENDROOT
BRANCH   8  12
ATOM     12  C   UNL     1      -1.436  12.211  22.850  0.00  0.00    +0.000 A 
ATOM     13  C   UNL     1      -2.718  11.824  23.266  0.00  0.00    +0.000 A 
ATOM     14  C   UNL     1      -3.543  12.721  23.946  0.00  0.00    +0.000 A 
ATOM     15  C   UNL     1      -3.088  14.007  24.214  0.00  0.00    +0.000 A 
ATOM     16  F   UNL     1      -3.884  14.867  24.861  0.00  0.00    +0.000 F 
ATOM     17  C   UNL     1      -1.825  14.415  23.813  0.00  0.00    +0.000 A 
ATOM     18  C   UNL     1      -1.005  13.522  23.130  0.00  0.00    +0.000 A 
ENDBRANCH   8  12
BRANCH   4  19
ATOM     19  C   UNL     1       2.692   6.609  20.333  0.00  0.00    +0.000 C 
BRANCH  19  20
ATOM     20  C   UNL     1       1.941   5.451  19.715  0.00  0.00    +0.000 A 
ATOM     21  C   UNL     1       1.076   4.677  20.517  0.00  0.00    +0.000 A 
ATOM     22  C   UNL     1       0.815   3.358  20.169  0.00  0.00    +0.000 A 
ATOM     23  C   UNL     1       1.428   2.904  19.024  0.00  0.00    +0.000 A 
ATOM     24  C   UNL     1       1.961   3.746  18.057  0.00  0.00    +0.000 A 
ATOM     25  C   UNL     1       2.280   5.033  18.414  0.00  0.00    +0.000 A 
ATOM     26  C   UNL     1       2.568   2.887  17.007  0.00  0.00    +0.000 C 
ATOM     27  C   UNL     1       3.122   1.911  18.029  0.00  0.00    +0.000 C 
ATOM     28  O   UNL     1       1.984   1.631  18.911  0.00  0.00    +0.000 OA
ENDBRANCH  19  20
ENDBRANCH   4  19
TORSDOF 3
ENDMDL
MODEL 2
REMARK VINA RESULT:      -8.3      0.948      1.150
REMARK  Name = 
REMARK  3 active torsions:
REMARK  status: ('A' for Active; 'I' for Inactive)
REMARK    1  A    between atoms: C_4  and  C_5
REMARK    2  A    between atoms: C_5  and  C_6
REMARK    3  A    between atoms: C_18  and  C_19
REMARK                            x       y       z     vdW  Elec       q    Type
REMARK                         _______ _______ _______ _____ _____    ______ ____
ROOT
ATOM      1  O   UNL     1       1.721  10.102  17.497  0.00  0.00    +0.000 OA
ATOM      2  C   UNL     1       1.504   9.549  18.560  0.00  0.00    +0.000 A 
ATOM      3  N   UNL     1       2.015   8.310  18.826  0.00  0.00    +0.000 N 
ATOM      4  C   UNL     1       1.886   7.694  20.056  0.00  0.00    +0.000 A 
ATOM      5  N   UNL     1       1.171   8.120  21.060  0.00  0.00    +0.000 NA
ATOM      6  C   UNL     1       0.552   9.347  20.818  0.00  0.00    +0.000 A 
ATOM      7  C   UNL     1      -0.306  10.003  21.724  0.00  0.00    +0.000 A 
ATOM      8  C   UNL     1      -0.792  11.191  21.192  0.00  0.00    +0.000 A 
ATOM      9  S   UNL     1      -0.058  11.527  19.662  0.00  0.00    +0.000 S 
ATOM     10  C   UNL     1       0.731  10.046  19.655  0.00  0.00    +0.000 A 
ATOM     11  H   UNL     1       2.620   7.931  18.117  0.00  0.00    +0.000 HD
ENDROOT
BRANCH   8  12
ATOM     12  C   UNL     1      -1.779  12.130  21.740  0.00  0.00    +0.000 A 
ATOM     13  C   UNL     1      -2.199  13.243  20.997  0.00  0.00    +0.000 A 
ATOM     14  C   UNL     1      -3.109  14.152  21.537  0.00  0.00    +0.000 A 
ATOM     15  C   UNL     1      -3.604  13.951  22.820  0.00  0.00    +0.000 A 
ATOM     16  F   UNL     1      -4.473  14.828  23.338  0.00  0.00    +0.000 F 
ATOM     17  C   UNL     1      -3.205  12.859  23.575  0.00  0.00    +0.000 A 
ATOM     18  C   UNL     1      -2.293  11.955  23.039  0.00  0.00    +0.000 A 
ENDBRANCH   8  12
BRANCH   4  19
ATOM     19  C   UNL     1       2.761   6.492  20.201  0.00  0.00    +0.000 C 
BRANCH  19  20
ATOM     20  C   UNL     1       2.051   5.270  19.662  0.00  0.00    +0.000 A 
ATOM     21  C   UNL     1       1.222   4.515  20.517  0.00  0.00    +0.000 A 
ATOM     22  C   UNL     1       1.009   3.167  20.252  0.00  0.00    +0.000 A 
ATOM     23  C   UNL     1       1.632   2.668  19.131  0.00  0.00    +0.000 A 
ATOM     24  C   UNL     1       2.126   3.469  18.111  0.00  0.00    +0.000 A 
ATOM     25  C   UNL     1       2.397   4.786  18.385  0.00  0.00    +0.000 A 
ATOM     26  C   UNL     1       2.757   2.571  17.109  0.00  0.00    +0.000 C 
ATOM     27  C   UNL     1       3.357   1.681  18.183  0.00  0.00    +0.000 C 
ATOM     28  O   UNL     1       2.236   1.412  19.091  0.00  0.00    +0.000 OA
ENDBRANCH  19  20
ENDBRANCH   4  19
TORSDOF 3
ENDMDL
MODEL 3
REMARK VINA RESULT:      -8.3      4.838      7.277
REMARK  Name = 
REMARK  3 active torsions:
REMARK  status: ('A' for Active; 'I' for Inactive)
REMARK    1  A    between atoms: C_4  and  C_5
REMARK    2  A    between atoms: C_5  and  C_6
REMARK    3  A    between atoms: C_18  and  C_19
REMARK                            x       y       z     vdW  Elec       q    Type
REMARK                         _______ _______ _______ _____ _____    ______ ____
ROOT
ATOM      1  O   UNL     1       3.858   2.704  17.892  0.00  0.00    +0.000 OA
ATOM      2  C   UNL     1       4.356   3.730  17.463  0.00  0.00    +0.000 A 
ATOM      3  N   UNL     1       5.515   3.700  16.740  0.00  0.00    +0.000 N 
ATOM      4  C   UNL     1       6.054   4.824  16.142  0.00  0.00    +0.000 A 
ATOM      5  N   UNL     1       5.635   6.050  16.288  0.00  0.00    +0.000 NA
ATOM      6  C   UNL     1       4.497   6.155  17.089  0.00  0.00    +0.000 A 
ATOM      7  C   UNL     1       3.871   7.370  17.435  0.00  0.00    +0.000 A 
ATOM      8  C   UNL     1       2.779   7.159  18.267  0.00  0.00    +0.000 A 
ATOM      9  S   UNL     1       2.477   5.468  18.469  0.00  0.00    +0.000 S 
ATOM     10  C   UNL     1       3.866   5.063  17.620  0.00  0.00    +0.000 A 
ATOM     11  H   UNL     1       5.877   2.784  16.543  0.00  0.00    +0.000 HD
ENDROOT
BRANCH   8  12
ATOM     12  C   UNL     1       1.910   8.132  18.941  0.00  0.00    +0.000 A 
ATOM     13  C   UNL     1       1.368   9.217  18.237  0.00  0.00    +0.000 A 
ATOM     14  C   UNL     1       0.572  10.160  18.891  0.00  0.00    +0.000 A 
ATOM     15  C   UNL     1       0.316  10.019  20.249  0.00  0.00    +0.000 A 
ATOM     16  F   UNL     1      -0.442  10.927  20.875  0.00  0.00    +0.000 F 
ATOM     17  C   UNL     1       0.840   8.956  20.968  0.00  0.00    +0.000 A 
ATOM     18  C   UNL     1       1.638   8.019  20.317  0.00  0.00    +0.000 A 
ENDBRANCH   8  12
BRANCH   4  19
ATOM     19  C   UNL     1       7.147   4.503  15.177  0.00  0.00    +0.000 C 
BRANCH  19  20
ATOM     20  C   UNL     1       6.565   4.252  13.804  0.00  0.00    +0.000 A 
ATOM     21  C   UNL     1       5.165   4.216  13.638  0.00  0.00    +0.000 A 
ATOM     22  C   UNL     1       4.616   3.486  12.592  0.00  0.00    +0.000 A 
ATOM     23  C   UNL     1       5.514   2.850  11.765  0.00  0.00    +0.000 A 
ATOM     24  C   UNL     1       6.861   3.180  11.702  0.00  0.00    +0.000 A 
ATOM     25  C   UNL     1       7.422   3.847  12.762  0.00  0.00    +0.000 A 
ATOM     26  C   UNL     1       7.501   2.249  10.735  0.00  0.00    +0.000 C 
ATOM     27  C   UNL     1       6.691   1.066  11.234  0.00  0.00    +0.000 C 
ATOM     28  O   UNL     1       5.311   1.564  11.265  0.00  0.00    +0.000 OA
ENDBRANCH  19  20
ENDBRANCH   4  19
TORSDOF 3
ENDMDL
MODEL 4
REMARK VINA RESULT:      -8.2      2.882      3.666
REMARK  Name = 
REMARK  3 active torsions:
REMARK  status: ('A' for Active; 'I' for Inactive)
REMARK    1  A    between atoms: C_4  and  C_5
REMARK    2  A    between atoms: C_5  and  C_6
REMARK    3  A    between atoms: C_18  and  C_19
REMARK                            x       y       z     vdW  Elec       q    Type
REMARK                         _______ _______ _______ _____ _____    ______ ____
ROOT
ATOM      1  O   UNL     1       2.940   8.151  17.074  0.00  0.00    +0.000 OA
ATOM      2  C   UNL     1       2.641   7.604  18.121  0.00  0.00    +0.000 A 
ATOM      3  N   UNL     1       3.002   6.310  18.367  0.00  0.00    +0.000 N 
ATOM      4  C   UNL     1       2.780   5.688  19.581  0.00  0.00    +0.000 A 
ATOM      5  N   UNL     1       2.098   6.172  20.581  0.00  0.00    +0.000 NA
ATOM      6  C   UNL     1       1.628   7.467  20.357  0.00  0.00    +0.000 A 
ATOM      7  C   UNL     1       0.833   8.198  21.262  0.00  0.00    +0.000 A 
ATOM      8  C   UNL     1       0.495   9.444  20.749  0.00  0.00    +0.000 A 
ATOM      9  S   UNL     1       1.293   9.725  19.240  0.00  0.00    +0.000 S 
ATOM     10  C   UNL     1       1.908   8.164  19.213  0.00  0.00    +0.000 A 
ATOM     11  H   UNL     1       3.574   5.879  17.660  0.00  0.00    +0.000 HD
ENDROOT
BRANCH   8  12
ATOM     12  C   UNL     1      -0.389  10.478  21.301  0.00  0.00    +0.000 A 
ATOM     13  C   UNL     1      -0.714  10.490  22.665  0.00  0.00    +0.000 A 
ATOM     14  C   UNL     1      -1.585  11.454  23.177  0.00  0.00    +0.000 A 
ATOM     15  C   UNL     1      -2.130  12.409  22.327  0.00  0.00    +0.000 A 
ATOM     16  F   UNL     1      -2.969  13.328  22.820  0.00  0.00    +0.000 F 
ATOM     17  C   UNL     1      -1.825  12.418  20.975  0.00  0.00    +0.000 A 
ATOM     18  C   UNL     1      -0.961  11.454  20.463  0.00  0.00    +0.000 A 
ENDBRANCH   8  12
BRANCH   4  19
ATOM     19  C   UNL     1       3.509   4.391  19.713  0.00  0.00    +0.000 C 
BRANCH  19  20
ATOM     20  C   UNL     1       4.774   4.424  18.885  0.00  0.00    +0.000 A 
ATOM     21  C   UNL     1       5.848   5.243  19.288  0.00  0.00    +0.000 A 
ATOM     22  C   UNL     1       6.747   5.712  18.339  0.00  0.00    +0.000 A 
ATOM     23  C   UNL     1       6.519   5.311  17.043  0.00  0.00    +0.000 A 
ATOM     24  C   UNL     1       5.711   4.233  16.707  0.00  0.00    +0.000 A 
ATOM     25  C   UNL     1       4.777   3.807  17.618  0.00  0.00    +0.000 A 
ATOM     26  C   UNL     1       5.681   4.147  15.224  0.00  0.00    +0.000 C 
ATOM     27  C   UNL     1       5.607   5.655  15.069  0.00  0.00    +0.000 C 
ATOM     28  O   UNL     1       6.670   6.158  15.946  0.00  0.00    +0.000 OA
ENDBRANCH  19  20
ENDBRANCH   4  19
TORSDOF 3
ENDMDL
MODEL 5
REMARK VINA RESULT:      -8.2      3.521      4.751
REMARK  Name = 
REMARK  3 active torsions:
REMARK  status: ('A' for Active; 'I' for Inactive)
REMARK    1  A    between atoms: C_4  and  C_5
REMARK    2  A    between atoms: C_5  and  C_6
REMARK    3  A    between atoms: C_18  and  C_19
REMARK                            x       y       z     vdW  Elec       q    Type
REMARK                         _______ _______ _______ _____ _____    ______ ____
ROOT
ATOM      1  O   UNL     1       3.073   5.260  20.156  0.00  0.00    +0.000 OA
ATOM      2  C   UNL     1       2.976   6.211  19.401  0.00  0.00    +0.000 A 
ATOM      3  N   UNL     1       3.689   6.260  18.236  0.00  0.00    +0.000 N 
ATOM      4  C   UNL     1       3.527   7.265  17.301  0.00  0.00    +0.000 A 
ATOM      5  N   UNL     1       2.808   8.342  17.444  0.00  0.00    +0.000 NA
ATOM      6  C   UNL     1       2.118   8.391  18.657  0.00  0.00    +0.000 A 
ATOM      7  C   UNL     1       1.305   9.465  19.072  0.00  0.00    +0.000 A 
ATOM      8  C   UNL     1       0.775   9.239  20.337  0.00  0.00    +0.000 A 
ATOM      9  S   UNL     1       1.176   7.653  20.899  0.00  0.00    +0.000 S 
ATOM     10  C   UNL     1       2.164   7.374  19.572  0.00  0.00    +0.000 A 
ATOM     11  H   UNL     1       4.234   5.441  18.029  0.00  0.00    +0.000 HD
ENDROOT
BRANCH   8  12
ATOM     12  C   UNL     1      -0.033  10.122  21.187  0.00  0.00    +0.000 A 
ATOM     13  C   UNL     1      -0.320   9.774  22.515  0.00  0.00    +0.000 A 
ATOM     14  C   UNL     1      -1.119  10.600  23.307  0.00  0.00    +0.000 A 
ATOM     15  C   UNL     1      -1.632  11.777  22.775  0.00  0.00    +0.000 A 
ATOM     16  F   UNL     1      -2.403  12.563  23.535  0.00  0.00    +0.000 F 
ATOM     17  C   UNL     1      -1.364  12.144  21.466  0.00  0.00    +0.000 A 
ATOM     18  C   UNL     1      -0.572  11.318  20.674  0.00  0.00    +0.000 A 
ENDBRANCH   8  12
BRANCH   4  19
ATOM     19  C   UNL     1       4.188   6.959  15.997  0.00  0.00    +0.000 C 
BRANCH  19  20
ATOM     20  C   UNL     1       5.590   6.445  16.237  0.00  0.00    +0.000 A 
ATOM     21  C   UNL     1       5.947   5.160  15.781  0.00  0.00    +0.000 A 
ATOM     22  C   UNL     1       6.966   4.463  16.418  0.00  0.00    +0.000 A 
ATOM     23  C   UNL     1       7.575   5.113  17.467  0.00  0.00    +0.000 A 
ATOM     24  C   UNL     1       7.485   6.483  17.673  0.00  0.00    +0.000 A 
ATOM     25  C   UNL     1       6.444   7.165  17.096  0.00  0.00    +0.000 A 
ATOM     26  C   UNL     1       8.233   6.794  18.919  0.00  0.00    +0.000 C 
ATOM     27  C   UNL     1       7.717   5.550  19.621  0.00  0.00    +0.000 C 
ATOM     28  O   UNL     1       7.941   4.473  18.650  0.00  0.00    +0.000 OA
ENDBRANCH  19  20
ENDBRANCH   4  19
TORSDOF 3
ENDMDL
MODEL 6
REMARK VINA RESULT:      -8.0      2.351      2.832
REMARK  Name = 
REMARK  3 active torsions:
REMARK  status: ('A' for Active; 'I' for Inactive)
REMARK    1  A    between atoms: C_4  and  C_5
REMARK    2  A    between atoms: C_5  and  C_6
REMARK    3  A    between atoms: C_18  and  C_19
REMARK                            x       y       z     vdW  Elec       q    Type
REMARK                         _______ _______ _______ _____ _____    ______ ____
ROOT
ATOM      1  O   UNL     1       1.947   9.603  17.346  0.00  0.00    +0.000 OA
ATOM      2  C   UNL     1       1.807   9.009  18.400  0.00  0.00    +0.000 A 
ATOM      3  N   UNL     1       2.181   7.700  18.525  0.00  0.00    +0.000 N 
ATOM      4  C   UNL     1       2.142   7.022  19.728  0.00  0.00    +0.000 A 
ATOM      5  N   UNL     1       1.636   7.462  20.846  0.00  0.00    +0.000 NA
ATOM      6  C   UNL     1       1.158   8.771  20.759  0.00  0.00    +0.000 A 
ATOM      7  C   UNL     1       0.528   9.464  21.813  0.00  0.00    +0.000 A 
ATOM      8  C   UNL     1       0.135  10.737  21.419  0.00  0.00    +0.000 A 
ATOM      9  S   UNL     1       0.689  11.084  19.817  0.00  0.00    +0.000 S 
ATOM     10  C   UNL     1       1.265   9.521  19.620  0.00  0.00    +0.000 A 
ATOM     11  H   UNL     1       2.626   7.300  17.717  0.00  0.00    +0.000 HD
ENDROOT
BRANCH   8  12
ATOM     12  C   UNL     1      -0.633  11.751  22.151  0.00  0.00    +0.000 A 
ATOM     13  C   UNL     1      -1.746  11.388  22.923  0.00  0.00    +0.000 A 
ATOM     14  C   UNL     1      -2.495  12.361  23.588  0.00  0.00    +0.000 A 
ATOM     15  C   UNL     1      -2.131  13.699  23.485  0.00  0.00    +0.000 A 
ATOM     16  F   UNL     1      -2.854  14.630  24.118  0.00  0.00    +0.000 F 
ATOM     17  C   UNL     1      -1.035  14.083  22.728  0.00  0.00    +0.000 A 
ATOM     18  C   UNL     1      -0.292  13.114  22.061  0.00  0.00    +0.000 A 
ENDBRANCH   8  12
BRANCH   4  19
ATOM     19  C   UNL     1       2.861   5.713  19.682  0.00  0.00    +0.000 C 
BRANCH  19  20
ATOM     20  C   UNL     1       3.634   5.594  18.388  0.00  0.00    +0.000 A 
ATOM     21  C   UNL     1       3.320   4.559  17.483  0.00  0.00    +0.000 A 
ATOM     22  C   UNL     1       4.293   4.093  16.609  0.00  0.00    +0.000 A 
ATOM     23  C   UNL     1       5.520   4.711  16.689  0.00  0.00    +0.000 A 
ATOM     24  C   UNL     1       5.717   5.944  17.295  0.00  0.00    +0.000 A 
ATOM     25  C   UNL     1       4.789   6.380  18.207  0.00  0.00    +0.000 A 
ATOM     26  C   UNL     1       7.170   6.250  17.217  0.00  0.00    +0.000 C 
ATOM     27  C   UNL     1       7.559   4.813  17.516  0.00  0.00    +0.000 C 
ATOM     28  O   UNL     1       6.728   4.020  16.602  0.00  0.00    +0.000 OA
ENDBRANCH  19  20
ENDBRANCH   4  19
TORSDOF 3
ENDMDL
MODEL 7
REMARK VINA RESULT:      -8.0      3.888      5.094
REMARK  Name = 
REMARK  3 active torsions:
REMARK  status: ('A' for Active; 'I' for Inactive)
REMARK    1  A    between atoms: C_4  and  C_5
REMARK    2  A    between atoms: C_5  and  C_6
REMARK    3  A    between atoms: C_18  and  C_19
REMARK                            x       y       z     vdW  Elec       q    Type
REMARK                         _______ _______ _______ _____ _____    ______ ____
ROOT
ATOM      1  O   UNL     1       1.183   7.483  21.608  0.00  0.00    +0.000 OA
ATOM      2  C   UNL     1       1.575   7.653  20.467  0.00  0.00    +0.000 A 
ATOM      3  N   UNL     1       2.151   6.634  19.763  0.00  0.00    +0.000 N 
ATOM      4  C   UNL     1       2.508   6.752  18.432  0.00  0.00    +0.000 A 
ATOM      5  N   UNL     1       2.481   7.843  17.721  0.00  0.00    +0.000 NA
ATOM      6  C   UNL     1       1.978   8.945  18.416  0.00  0.00    +0.000 A 
ATOM      7  C   UNL     1       1.882  10.248  17.887  0.00  0.00    +0.000 A 
ATOM      8  C   UNL     1       1.371  11.138  18.823  0.00  0.00    +0.000 A 
ATOM      9  S   UNL     1       0.890  10.309  20.264  0.00  0.00    +0.000 S 
ATOM     10  C   UNL     1       1.516   8.858  19.701  0.00  0.00    +0.000 A 
ATOM     11  H   UNL     1       2.166   5.742  20.227  0.00  0.00    +0.000 HD
ENDROOT
BRANCH   8  12
ATOM     12  C   UNL     1       1.197  12.593  18.738  0.00  0.00    +0.000 A 
ATOM     13  C   UNL     1       2.307  13.443  18.621  0.00  0.00    +0.000 A 
ATOM     14  C   UNL     1       2.138  14.828  18.577  0.00  0.00    +0.000 A 
ATOM     15  C   UNL     1       0.859  15.367  18.648  0.00  0.00    +0.000 A 
ATOM     16  F   UNL     1       0.700  16.696  18.612  0.00  0.00    +0.000 F 
ATOM     17  C   UNL     1      -0.254  14.550  18.764  0.00  0.00    +0.000 A 
ATOM     18  C   UNL     1      -0.086  13.169  18.813  0.00  0.00    +0.000 A 
ENDBRANCH   8  12
BRANCH   4  19
ATOM     19  C   UNL     1       2.845   5.440  17.801  0.00  0.00    +0.000 C 
BRANCH  19  20
ATOM     20  C   UNL     1       4.227   5.502  17.190  0.00  0.00    +0.000 A 
ATOM     21  C   UNL     1       4.644   4.483  16.309  0.00  0.00    +0.000 A 
ATOM     22  C   UNL     1       5.998   4.207  16.170  0.00  0.00    +0.000 A 
ATOM     23  C   UNL     1       6.851   4.988  16.916  0.00  0.00    +0.000 A 
ATOM     24  C   UNL     1       6.482   6.202  17.478  0.00  0.00    +0.000 A 
ATOM     25  C   UNL     1       5.147   6.453  17.675  0.00  0.00    +0.000 A 
ATOM     26  C   UNL     1       7.653   6.715  18.236  0.00  0.00    +0.000 C 
ATOM     27  C   UNL     1       8.007   5.334  18.758  0.00  0.00    +0.000 C 
ATOM     28  O   UNL     1       7.976   4.481  17.565  0.00  0.00    +0.000 OA
ENDBRANCH  19  20
ENDBRANCH   4  19
TORSDOF 3
ENDMDL
MODEL 8
REMARK VINA RESULT:      -8.0      4.859      9.299
REMARK  Name = 
REMARK  3 active torsions:
REMARK  status: ('A' for Active; 'I' for Inactive)
REMARK    1  A    between atoms: C_4  and  C_5
REMARK    2  A    between atoms: C_5  and  C_6
REMARK    3  A    between atoms: C_18  and  C_19
REMARK                            x       y       z     vdW  Elec       q    Type
REMARK                         _______ _______ _______ _____ _____    ______ ____
ROOT
ATOM      1  O   UNL     1       0.432   8.104  21.667  0.00  0.00    +0.000 OA
ATOM      2  C   UNL     1       0.763   8.739  20.682  0.00  0.00    +0.000 A 
ATOM      3  N   UNL     1       0.256   9.986  20.446  0.00  0.00    +0.000 N 
ATOM      4  C   UNL     1       0.686  10.784  19.402  0.00  0.00    +0.000 A 
ATOM      5  N   UNL     1       1.498  10.431  18.446  0.00  0.00    +0.000 NA
ATOM      6  C   UNL     1       1.987   9.130  18.586  0.00  0.00    +0.000 A 
ATOM      7  C   UNL     1       2.848   8.496  17.667  0.00  0.00    +0.000 A 
ATOM      8  C   UNL     1       3.137   7.195  18.060  0.00  0.00    +0.000 A 
ATOM      9  S   UNL     1       2.462   6.857  19.617  0.00  0.00    +0.000 S 
ATOM     10  C   UNL     1       1.672   8.336  19.655  0.00  0.00    +0.000 A 
ATOM     11  H   UNL     1      -0.344  10.351  21.165  0.00  0.00    +0.000 HD
ENDROOT
BRANCH   8  12
ATOM     12  C   UNL     1       3.900   6.152  17.364  0.00  0.00    +0.000 A 
ATOM     13  C   UNL     1       4.906   6.491  16.446  0.00  0.00    +0.000 A 
ATOM     14  C   UNL     1       5.603   5.496  15.759  0.00  0.00    +0.000 A 
ATOM     15  C   UNL     1       5.298   4.159  15.989  0.00  0.00    +0.000 A 
ATOM     16  F   UNL     1       5.964   3.207  15.324  0.00  0.00    +0.000 F 
ATOM     17  C   UNL     1       4.309   3.798  16.890  0.00  0.00    +0.000 A 
ATOM     18  C   UNL     1       3.610   4.790  17.571  0.00  0.00    +0.000 A 
ENDBRANCH   8  12
BRANCH   4  19
ATOM     19  C   UNL     1       0.210  12.195  19.513  0.00  0.00    +0.000 C 
BRANCH  19  20
ATOM     20  C   UNL     1      -1.194  12.311  18.962  0.00  0.00    +0.000 A 
ATOM     21  C   UNL     1      -2.262  12.604  19.834  0.00  0.00    +0.000 A 
ATOM     22  C   UNL     1      -3.548  12.196  19.507  0.00  0.00    +0.000 A 
ATOM     23  C   UNL     1      -3.682  11.531  18.309  0.00  0.00    +0.000 A 
ATOM     24  C   UNL     1      -2.728  11.570  17.302  0.00  0.00    +0.000 A 
ATOM     25  C   UNL     1      -1.441  11.913  17.633  0.00  0.00    +0.000 A 
ATOM     26  C   UNL     1      -3.213  10.701  16.198  0.00  0.00    +0.000 C 
ATOM     27  C   UNL     1      -3.737   9.652  17.162  0.00  0.00    +0.000 C 
ATOM     28  O   UNL     1      -4.511  10.422  18.142  0.00  0.00    +0.000 OA
ENDBRANCH  19  20
ENDBRANCH   4  19
TORSDOF 3
ENDMDL
MODEL 9
REMARK VINA RESULT:      -7.9      2.191      2.675
REMARK  Name = 
REMARK  3 active torsions:
REMARK  status: ('A' for Active; 'I' for Inactive)
REMARK    1  A    between atoms: C_4  and  C_5
REMARK    2  A    between atoms: C_5  and  C_6
REMARK    3  A    between atoms: C_18  and  C_19
REMARK                            x       y       z     vdW  Elec       q    Type
REMARK                         _______ _______ _______ _____ _____    ______ ____
ROOT
ATOM      1  O   UNL     1       2.039   9.765  17.250  0.00  0.00    +0.000 OA
ATOM      2  C   UNL     1       1.836   9.155  18.284  0.00  0.00    +0.000 A 
ATOM      3  N   UNL     1       2.349   7.903  18.474  0.00  0.00    +0.000 N 
ATOM      4  C   UNL     1       2.236   7.221  19.671  0.00  0.00    +0.000 A 
ATOM      5  N   UNL     1       1.535   7.591  20.706  0.00  0.00    +0.000 NA
ATOM      6  C   UNL     1       0.915   8.831  20.540  0.00  0.00    +0.000 A 
ATOM      7  C   UNL     1       0.070   9.436  21.492  0.00  0.00    +0.000 A 
ATOM      8  C   UNL     1      -0.422  10.651  21.032  0.00  0.00    +0.000 A 
ATOM      9  S   UNL     1       0.291  11.070  19.513  0.00  0.00    +0.000 S 
ATOM     10  C   UNL     1       1.078   9.592  19.414  0.00  0.00    +0.000 A 
ATOM     11  H   UNL     1       2.944   7.563  17.738  0.00  0.00    +0.000 HD
ENDROOT
BRANCH   8  12
ATOM     12  C   UNL     1      -1.400  11.560  21.644  0.00  0.00    +0.000 A 
ATOM     13  C   UNL     1      -2.022  12.561  20.883  0.00  0.00    +0.000 A 
ATOM     14  C   UNL     1      -2.924  13.445  21.479  0.00  0.00    +0.000 A 
ATOM     15  C   UNL     1      -3.208  13.329  22.834  0.00  0.00    +0.000 A 
ATOM     16  F   UNL     1      -4.068  14.182  23.403  0.00  0.00    +0.000 F 
ATOM     17  C   UNL     1      -2.607  12.348  23.607  0.00  0.00    +0.000 A 
ATOM     18  C   UNL     1      -1.704  11.470  23.016  0.00  0.00    +0.000 A 
ENDBRANCH   8  12
BRANCH   4  19
ATOM     19  C   UNL     1       3.111   6.012  19.738  0.00  0.00    +0.000 C 
BRANCH  19  20
ATOM     20  C   UNL     1       3.454   5.546  18.340  0.00  0.00    +0.000 A 
ATOM     21  C   UNL     1       2.925   4.328  17.866  0.00  0.00    +0.000 A 
ATOM     22  C   UNL     1       3.604   3.623  16.879  0.00  0.00    +0.000 A 
ATOM     23  C   UNL     1       4.765   4.200  16.418  0.00  0.00    +0.000 A 
ATOM     24  C   UNL     1       5.081   5.538  16.607  0.00  0.00    +0.000 A 
ATOM     25  C   UNL     1       4.459   6.221  17.621  0.00  0.00    +0.000 A 
ATOM     26  C   UNL     1       6.423   5.766  16.009  0.00  0.00    +0.000 C 
ATOM     27  C   UNL     1       6.952   4.438  16.522  0.00  0.00    +0.000 C 
ATOM     28  O   UNL     1       5.919   3.469  16.139  0.00  0.00    +0.000 OA
ENDBRANCH  19  20
ENDBRANCH   4  19
TORSDOF 3
ENDMDL
