MODEL 1
REMARK VINA RESULT:      -9.0      0.000      0.000
REMARK  Name = 
REMARK  5 active torsions:
REMARK  status: ('A' for Active; 'I' for Inactive)
REMARK    1  A    between atoms: C_1  and  C_2
REMARK    2  A    between atoms: C_2  and  N_3
REMARK    3  A    between atoms: C_2  and  C_16
REMARK    4  A    between atoms: C_4  and  C_6
REMARK    5  A    between atoms: C_20  and  N_21
REMARK                            x       y       z     vdW  Elec       q    Type
REMARK                         _______ _______ _______ _____ _____    ______ ____
ROOT
ATOM      1  N   UNL     1       6.999   6.820  17.060  0.00  0.00    +0.000 N 
ATOM      2  C   UNL     1       7.783   7.078  18.162  0.00  0.00    +0.000 C 
ATOM      3  O   UNL     1       8.072   6.216  18.987  0.00  0.00    +0.000 OA
ATOM      4  H   UNL     1       6.806   7.562  16.408  0.00  0.00    +0.000 HD
ENDROOT
BRANCH   2   5
ATOM      5  C   UNL     1       8.242   8.444  18.289  0.00  0.00    +0.000 A 
ATOM      6  C   UNL     1       8.077   9.558  17.484  0.00  0.00    +0.000 A 
ATOM      7  C   UNL     1       8.741  10.660  18.090  0.00  0.00    +0.000 A 
ATOM      8  C   UNL     1       8.903  12.012  17.743  0.00  0.00    +0.000 A 
ATOM      9  C   UNL     1       9.637  12.838  18.595  0.00  0.00    +0.000 A 
ATOM     10  F   UNL     1       9.793  14.129  18.274  0.00  0.00    +0.000 F 
ATOM     11  C   UNL     1      10.208  12.356  19.766  0.00  0.00    +0.000 A 
ATOM     12  C   UNL     1      10.061  11.013  20.130  0.00  0.00    +0.000 A 
ATOM     13  C   UNL     1       9.318  10.192  19.269  0.00  0.00    +0.000 A 
ATOM     14  N   UNL     1       9.009   8.852  19.359  0.00  0.00    +0.000 N 
ATOM     15  H   UNL     1       9.294   8.236  20.112  0.00  0.00    +0.000 HD
ENDBRANCH   2   5
BRANCH   1  17
ATOM     16  C   UNL     1       6.826   5.111  15.292  0.00  0.00    +0.000 C 
ATOM     17  C   UNL     1       6.536   5.484  16.751  0.00  0.00    +0.000 C 
BRANCH  17  18
ATOM     18  C   UNL     1       5.050   5.311  17.014  0.00  0.00    +0.000 A 
ATOM     19  C   UNL     1       4.396   4.090  16.811  0.00  0.00    +0.000 A 
ATOM     20  C   UNL     1       3.086   3.919  17.249  0.00  0.00    +0.000 A 
ATOM     21  C   UNL     1       2.422   4.956  17.913  0.00  0.00    +0.000 A 
ATOM     22  C   UNL     1       3.039   6.193  18.126  0.00  0.00    +0.000 A 
ATOM     23  C   UNL     1       4.341   6.363  17.628  0.00  0.00    +0.000 A 
BRANCH  22  24
ATOM     24  N   UNL     1       2.415   7.228  18.878  0.00  0.00    +0.000 N 
ATOM     25  C   UNL     1       2.173   7.122  20.298  0.00  0.00    +0.000 C 
ATOM     26  C   UNL     1       1.112   8.163  20.580  0.00  0.00    +0.000 C 
ATOM     27  C   UNL     1       1.386   9.238  19.547  0.00  0.00    +0.000 C 
ATOM     28  C   UNL     1       1.978   8.469  18.389  0.00  0.00    +0.000 C 
ATOM     29  O   UNL     1       2.064   8.936  17.264  0.00  0.00    +0.000 OA
ENDBRANCH  22  24
ENDBRANCH  17  18
ENDBRANCH   1  17
TORSDOF 4
ENDMDL
MODEL 2
REMARK VINA RESULT:      -8.7      0.901      1.206
REMARK  Name = 
REMARK  5 active torsions:
REMARK  status: ('A' for Active; 'I' for Inactive)
REMARK    1  A    between atoms: C_1  and  C_2
REMARK    2  A    between atoms: C_2  and  N_3
REMARK    3  A    between atoms: C_2  and  C_16
REMARK    4  A    between atoms: C_4  and  C_6
REMARK    5  A    between atoms: C_20  and  N_21
REMARK                            x       y       z     vdW  Elec       q    Type
REMARK                         _______ _______ _______ _____ _____    ______ ____
ROOT
ATOM      1  N   UNL     1       6.835   7.087  17.153  0.00  0.00    +0.000 N 
ATOM      2  C   UNL     1       7.758   7.290  18.153  0.00  0.00    +0.000 C 
ATOM      3  O   UNL     1       8.149   6.389  18.889  0.00  0.00    +0.000 OA
ATOM      4  H   UNL     1       6.563   7.860  16.568  0.00  0.00    +0.000 HD
ENDROOT
BRANCH   2   5
ATOM      5  C   UNL     1       8.239   8.648  18.283  0.00  0.00    +0.000 A 
ATOM      6  C   UNL     1       8.085   9.770  17.486  0.00  0.00    +0.000 A 
ATOM      7  C   UNL     1       8.771  10.858  18.094  0.00  0.00    +0.000 A 
ATOM      8  C   UNL     1       8.950  12.209  17.753  0.00  0.00    +0.000 A 
ATOM      9  C   UNL     1       9.703  13.019  18.604  0.00  0.00    +0.000 A 
ATOM     10  F   UNL     1       9.876  14.309  18.289  0.00  0.00    +0.000 F 
ATOM     11  C   UNL     1      10.275  12.522  19.768  0.00  0.00    +0.000 A 
ATOM     12  C   UNL     1      10.111  11.179  20.125  0.00  0.00    +0.000 A 
ATOM     13  C   UNL     1       9.349  10.374  19.265  0.00  0.00    +0.000 A 
ATOM     14  N   UNL     1       9.021   9.039  19.350  0.00  0.00    +0.000 N 
ATOM     15  H   UNL     1       9.302   8.414  20.097  0.00  0.00    +0.000 HD
ENDBRANCH   2   5
BRANCH   1  17
ATOM     16  C   UNL     1       6.587   5.392  15.379  0.00  0.00    +0.000 C 
ATOM     17  C   UNL     1       6.326   5.767  16.842  0.00  0.00    +0.000 C 
BRANCH  17  18
ATOM     18  C   UNL     1       4.838   5.640  17.123  0.00  0.00    +0.000 A 
ATOM     19  C   UNL     1       4.198   4.397  17.184  0.00  0.00    +0.000 A 
ATOM     20  C   UNL     1       2.884   4.311  17.637  0.00  0.00    +0.000 A 
ATOM     21  C   UNL     1       2.204   5.460  18.053  0.00  0.00    +0.000 A 
ATOM     22  C   UNL     1       2.808   6.720  17.998  0.00  0.00    +0.000 A 
ATOM     23  C   UNL     1       4.114   6.792  17.487  0.00  0.00    +0.000 A 
BRANCH  22  24
ATOM     24  N   UNL     1       2.167   7.887  18.501  0.00  0.00    +0.000 N 
ATOM     25  C   UNL     1       1.886   9.039  17.675  0.00  0.00    +0.000 C 
ATOM     26  C   UNL     1       1.667  10.167  18.661  0.00  0.00    +0.000 C 
ATOM     27  C   UNL     1       1.094   9.468  19.877  0.00  0.00    +0.000 C 
ATOM     28  C   UNL     1       1.705   8.088  19.811  0.00  0.00    +0.000 C 
ATOM     29  O   UNL     1       1.715   7.326  20.764  0.00  0.00    +0.000 OA
ENDBRANCH  22  24
ENDBRANCH  17  18
ENDBRANCH   1  17
TORSDOF 4
ENDMDL
MODEL 3
REMARK VINA RESULT:      -8.3      1.949      2.866
REMARK  Name = 
REMARK  5 active torsions:
REMARK  status: ('A' for Active; 'I' for Inactive)
REMARK    1  A    between atoms: C_1  and  C_2
REMARK    2  A    between atoms: C_2  and  N_3
REMARK    3  A    between atoms: C_2  and  C_16
REMARK    4  A    between atoms: C_4  and  C_6
REMARK    5  A    between atoms: C_20  and  N_21
REMARK                            x       y       z     vdW  Elec       q    Type
REMARK                         _______ _______ _______ _____ _____    ______ ____
ROOT
ATOM      1  N   UNL     1       6.687   7.881  17.424  0.00  0.00    +0.000 N 
ATOM      2  C   UNL     1       7.818   7.858  18.208  0.00  0.00    +0.000 C 
ATOM      3  O   UNL     1       8.213   6.841  18.772  0.00  0.00    +0.000 OA
ATOM      4  H   UNL     1       6.418   8.740  16.972  0.00  0.00    +0.000 HD
ENDROOT
BRANCH   2   5
ATOM      5  C   UNL     1       8.513   9.120  18.329  0.00  0.00    +0.000 A 
ATOM      6  C   UNL     1       8.669  10.183  17.456  0.00  0.00    +0.000 A 
ATOM      7  C   UNL     1       9.453  11.185  18.093  0.00  0.00    +0.000 A 
ATOM      8  C   UNL     1       9.915  12.454  17.706  0.00  0.00    +0.000 A 
ATOM      9  C   UNL     1      10.683  13.190  18.609  0.00  0.00    +0.000 A 
ATOM     10  F   UNL     1      11.124  14.402  18.249  0.00  0.00    +0.000 F 
ATOM     11  C   UNL     1      10.998  12.699  19.869  0.00  0.00    +0.000 A 
ATOM     12  C   UNL     1      10.550  11.437  20.275  0.00  0.00    +0.000 A 
ATOM     13  C   UNL     1       9.776  10.706  19.361  0.00  0.00    +0.000 A 
ATOM     14  N   UNL     1       9.205   9.458  19.474  0.00  0.00    +0.000 N 
ATOM     15  H   UNL     1       9.268   8.857  20.287  0.00  0.00    +0.000 HD
ENDBRANCH   2   5
BRANCH   1  17
ATOM     16  C   UNL     1       5.887   6.388  15.632  0.00  0.00    +0.000 C 
ATOM     17  C   UNL     1       5.933   6.679  17.137  0.00  0.00    +0.000 C 
BRANCH  17  18
ATOM     18  C   UNL     1       4.511   6.747  17.667  0.00  0.00    +0.000 A 
ATOM     19  C   UNL     1       3.689   7.859  17.448  0.00  0.00    +0.000 A 
ATOM     20  C   UNL     1       2.337   7.802  17.776  0.00  0.00    +0.000 A 
ATOM     21  C   UNL     1       1.787   6.630  18.306  0.00  0.00    +0.000 A 
ATOM     22  C   UNL     1       2.579   5.502  18.547  0.00  0.00    +0.000 A 
ATOM     23  C   UNL     1       3.951   5.599  18.260  0.00  0.00    +0.000 A 
BRANCH  22  24
ATOM     24  N   UNL     1       2.024   4.273  18.999  0.00  0.00    +0.000 N 
ATOM     25  C   UNL     1       1.472   4.106  20.324  0.00  0.00    +0.000 C 
ATOM     26  C   UNL     1       1.450   2.609  20.540  0.00  0.00    +0.000 C 
ATOM     27  C   UNL     1       1.253   2.052  19.144  0.00  0.00    +0.000 C 
ATOM     28  C   UNL     1       1.906   3.087  18.258  0.00  0.00    +0.000 C 
ATOM     29  O   UNL     1       2.207   2.862  17.096  0.00  0.00    +0.000 OA
ENDBRANCH  22  24
ENDBRANCH  17  18
ENDBRANCH   1  17
TORSDOF 4
ENDMDL
MODEL 4
REMARK VINA RESULT:      -8.3      1.963      2.942
REMARK  Name = 
REMARK  5 active torsions:
REMARK  status: ('A' for Active; 'I' for Inactive)
REMARK    1  A    between atoms: C_1  and  C_2
REMARK    2  A    between atoms: C_2  and  N_3
REMARK    3  A    between atoms: C_2  and  C_16
REMARK    4  A    between atoms: C_4  and  C_6
REMARK    5  A    between atoms: C_20  and  N_21
REMARK                            x       y       z     vdW  Elec       q    Type
REMARK                         _______ _______ _______ _____ _____    ______ ____
ROOT
ATOM      1  N   UNL     1       6.737   7.896  17.411  0.00  0.00    +0.000 N 
ATOM      2  C   UNL     1       7.856   7.896  18.212  0.00  0.00    +0.000 C 
ATOM      3  O   UNL     1       8.261   6.888  18.785  0.00  0.00    +0.000 OA
ATOM      4  H   UNL     1       6.459   8.748  16.953  0.00  0.00    +0.000 HD
ENDROOT
BRANCH   2   5
ATOM      5  C   UNL     1       8.527   9.171  18.339  0.00  0.00    +0.000 A 
ATOM      6  C   UNL     1       8.662  10.240  17.470  0.00  0.00    +0.000 A 
ATOM      7  C   UNL     1       9.426  11.255  18.111  0.00  0.00    +0.000 A 
ATOM      8  C   UNL     1       9.863  12.534  17.729  0.00  0.00    +0.000 A 
ATOM      9  C   UNL     1      10.616  13.282  18.636  0.00  0.00    +0.000 A 
ATOM     10  F   UNL     1      11.034  14.504  18.281  0.00  0.00    +0.000 F 
ATOM     11  C   UNL     1      10.939  12.792  19.894  0.00  0.00    +0.000 A 
ATOM     12  C   UNL     1      10.516  11.520  20.295  0.00  0.00    +0.000 A 
ATOM     13  C   UNL     1       9.757  10.778  19.378  0.00  0.00    +0.000 A 
ATOM     14  N   UNL     1       9.210   9.518  19.485  0.00  0.00    +0.000 N 
ATOM     15  H   UNL     1       9.285   8.915  20.296  0.00  0.00    +0.000 HD
ENDBRANCH   2   5
BRANCH   1  17
ATOM     16  C   UNL     1       5.944   6.412  15.610  0.00  0.00    +0.000 C 
ATOM     17  C   UNL     1       6.009   6.680  17.118  0.00  0.00    +0.000 C 
BRANCH  17  18
ATOM     18  C   UNL     1       4.595   6.703  17.673  0.00  0.00    +0.000 A 
ATOM     19  C   UNL     1       3.736   7.789  17.473  0.00  0.00    +0.000 A 
ATOM     20  C   UNL     1       2.392   7.690  17.824  0.00  0.00    +0.000 A 
ATOM     21  C   UNL     1       1.888   6.499  18.359  0.00  0.00    +0.000 A 
ATOM     22  C   UNL     1       2.718   5.396  18.582  0.00  0.00    +0.000 A 
ATOM     23  C   UNL     1       4.081   5.535  18.272  0.00  0.00    +0.000 A 
BRANCH  22  24
ATOM     24  N   UNL     1       2.208   4.148  19.039  0.00  0.00    +0.000 N 
ATOM     25  C   UNL     1       1.859   3.073  18.139  0.00  0.00    +0.000 C 
ATOM     26  C   UNL     1       0.950   2.178  18.954  0.00  0.00    +0.000 C 
ATOM     27  C   UNL     1       1.450   2.361  20.372  0.00  0.00    +0.000 C 
ATOM     28  C   UNL     1       1.995   3.770  20.373  0.00  0.00    +0.000 C 
ATOM     29  O   UNL     1       2.225   4.386  21.402  0.00  0.00    +0.000 OA
ENDBRANCH  22  24
ENDBRANCH  17  18
ENDBRANCH   1  17
TORSDOF 4
ENDMDL
MODEL 5
REMARK VINA RESULT:      -8.2      4.829      7.502
REMARK  Name = 
REMARK  5 active torsions:
REMARK  status: ('A' for Active; 'I' for Inactive)
REMARK    1  A    between atoms: C_1  and  C_2
REMARK    2  A    between atoms: C_2  and  N_3
REMARK    3  A    between atoms: C_2  and  C_16
REMARK    4  A    between atoms: C_4  and  C_6
REMARK    5  A    between atoms: C_20  and  N_21
REMARK                            x       y       z     vdW  Elec       q    Type
REMARK                         _______ _______ _______ _____ _____    ______ ____
ROOT
ATOM      1  N   UNL     1       2.873   5.188  18.761  0.00  0.00    +0.000 N 
ATOM      2  C   UNL     1       2.831   6.495  18.328  0.00  0.00    +0.000 C 
ATOM      3  O   UNL     1       3.331   6.859  17.268  0.00  0.00    +0.000 OA
ATOM      4  H   UNL     1       2.433   4.943  19.632  0.00  0.00    +0.000 HD
ENDROOT
BRANCH   2   5
ATOM      5  C   UNL     1       2.158   7.418  19.215  0.00  0.00    +0.000 A 
ATOM      6  C   UNL     1       1.793   7.329  20.547  0.00  0.00    +0.000 A 
ATOM      7  C   UNL     1       1.152   8.541  20.927  0.00  0.00    +0.000 A 
ATOM      8  C   UNL     1       0.593   9.015  22.125  0.00  0.00    +0.000 A 
ATOM      9  C   UNL     1       0.032  10.293  22.143  0.00  0.00    +0.000 A 
ATOM     10  F   UNL     1      -0.500  10.753  23.282  0.00  0.00    +0.000 F 
ATOM     11  C   UNL     1       0.015  11.097  21.011  0.00  0.00    +0.000 A 
ATOM     12  C   UNL     1       0.565  10.646  19.806  0.00  0.00    +0.000 A 
ATOM     13  C   UNL     1       1.129   9.361  19.800  0.00  0.00    +0.000 A 
ATOM     14  N   UNL     1       1.733   8.657  18.782  0.00  0.00    +0.000 N 
ATOM     15  H   UNL     1       1.863   8.993  17.834  0.00  0.00    +0.000 HD
ENDBRANCH   2   5
BRANCH   1  17
ATOM     16  C   UNL     1       3.479   2.799  18.699  0.00  0.00    +0.000 C 
ATOM     17  C   UNL     1       3.436   4.133  17.945  0.00  0.00    +0.000 C 
BRANCH  17  18
ATOM     18  C   UNL     1       4.835   4.464  17.454  0.00  0.00    +0.000 A 
ATOM     19  C   UNL     1       5.921   4.580  18.330  0.00  0.00    +0.000 A 
ATOM     20  C   UNL     1       7.215   4.687  17.826  0.00  0.00    +0.000 A 
ATOM     21  C   UNL     1       7.440   4.659  16.445  0.00  0.00    +0.000 A 
ATOM     22  C   UNL     1       6.379   4.555  15.540  0.00  0.00    +0.000 A 
ATOM     23  C   UNL     1       5.078   4.502  16.067  0.00  0.00    +0.000 A 
BRANCH  22  24
ATOM     24  N   UNL     1       6.592   4.433  14.138  0.00  0.00    +0.000 N 
ATOM     25  C   UNL     1       5.724   3.657  13.282  0.00  0.00    +0.000 C 
ATOM     26  C   UNL     1       6.547   3.405  12.037  0.00  0.00    +0.000 C 
ATOM     27  C   UNL     1       7.441   4.626  11.949  0.00  0.00    +0.000 C 
ATOM     28  C   UNL     1       7.617   5.036  13.393  0.00  0.00    +0.000 C 
ATOM     29  O   UNL     1       8.497   5.800  13.757  0.00  0.00    +0.000 OA
ENDBRANCH  22  24
ENDBRANCH  17  18
ENDBRANCH   1  17
TORSDOF 4
ENDMDL
MODEL 6
REMARK VINA RESULT:      -8.1      0.831      1.282
REMARK  Name = 
REMARK  5 active torsions:
REMARK  status: ('A' for Active; 'I' for Inactive)
REMARK    1  A    between atoms: C_1  and  C_2
REMARK    2  A    between atoms: C_2  and  N_3
REMARK    3  A    between atoms: C_2  and  C_16
REMARK    4  A    between atoms: C_4  and  C_6
REMARK    5  A    between atoms: C_20  and  N_21
REMARK                            x       y       z     vdW  Elec       q    Type
REMARK                         _______ _______ _______ _____ _____    ______ ____
ROOT
ATOM      1  N   UNL     1       6.598   7.063  16.931  0.00  0.00    +0.000 N 
ATOM      2  C   UNL     1       7.554   7.190  17.913  0.00  0.00    +0.000 C 
ATOM      3  O   UNL     1       7.948   6.239  18.583  0.00  0.00    +0.000 OA
ATOM      4  H   UNL     1       6.324   7.875  16.403  0.00  0.00    +0.000 HD
ENDROOT
BRANCH   2   5
ATOM      5  C   UNL     1       8.065   8.529  18.110  0.00  0.00    +0.000 A 
ATOM      6  C   UNL     1       9.043   9.037  18.948  0.00  0.00    +0.000 A 
ATOM      7  C   UNL     1       9.148  10.439  18.729  0.00  0.00    +0.000 A 
ATOM      8  C   UNL     1       9.954  11.453  19.272  0.00  0.00    +0.000 A 
ATOM      9  C   UNL     1       9.787  12.759  18.812  0.00  0.00    +0.000 A 
ATOM     10  F   UNL     1      10.554  13.731  19.321  0.00  0.00    +0.000 F 
ATOM     11  C   UNL     1       8.848  13.075  17.838  0.00  0.00    +0.000 A 
ATOM     12  C   UNL     1       8.033  12.081  17.285  0.00  0.00    +0.000 A 
ATOM     13  C   UNL     1       8.211  10.770  17.752  0.00  0.00    +0.000 A 
ATOM     14  N   UNL     1       7.567   9.604  17.404  0.00  0.00    +0.000 N 
ATOM     15  H   UNL     1       6.828   9.526  16.714  0.00  0.00    +0.000 HD
ENDBRANCH   2   5
BRANCH   1  17
ATOM     16  C   UNL     1       6.120   5.552  15.043  0.00  0.00    +0.000 C 
ATOM     17  C   UNL     1       6.055   5.774  16.558  0.00  0.00    +0.000 C 
BRANCH  17  18
ATOM     18  C   UNL     1       4.619   5.596  17.019  0.00  0.00    +0.000 A 
ATOM     19  C   UNL     1       3.992   4.344  17.029  0.00  0.00    +0.000 A 
ATOM     20  C   UNL     1       2.750   4.191  17.640  0.00  0.00    +0.000 A 
ATOM     21  C   UNL     1       2.131   5.279  18.265  0.00  0.00    +0.000 A 
ATOM     22  C   UNL     1       2.723   6.547  18.267  0.00  0.00    +0.000 A 
ATOM     23  C   UNL     1       3.949   6.692  17.598  0.00  0.00    +0.000 A 
BRANCH  22  24
ATOM     24  N   UNL     1       2.155   7.644  18.973  0.00  0.00    +0.000 N 
ATOM     25  C   UNL     1       1.889   7.603  20.393  0.00  0.00    +0.000 C 
ATOM     26  C   UNL     1       0.890   8.717  20.624  0.00  0.00    +0.000 C 
ATOM     27  C   UNL     1       1.243   9.735  19.559  0.00  0.00    +0.000 C 
ATOM     28  C   UNL     1       1.801   8.891  18.437  0.00  0.00    +0.000 C 
ATOM     29  O   UNL     1       1.929   9.312  17.297  0.00  0.00    +0.000 OA
ENDBRANCH  22  24
ENDBRANCH  17  18
ENDBRANCH   1  17
TORSDOF 4
ENDMDL
MODEL 7
REMARK VINA RESULT:      -8.1      4.758      7.371
REMARK  Name = 
REMARK  5 active torsions:
REMARK  status: ('A' for Active; 'I' for Inactive)
REMARK    1  A    between atoms: C_1  and  C_2
REMARK    2  A    between atoms: C_2  and  N_3
REMARK    3  A    between atoms: C_2  and  C_16
REMARK    4  A    between atoms: C_4  and  C_6
REMARK    5  A    between atoms: C_20  and  N_21
REMARK                            x       y       z     vdW  Elec       q    Type
REMARK                         _______ _______ _______ _____ _____    ______ ____
ROOT
ATOM      1  N   UNL     1       2.848   5.346  18.711  0.00  0.00    +0.000 N 
ATOM      2  C   UNL     1       2.889   6.631  18.221  0.00  0.00    +0.000 C 
ATOM      3  O   UNL     1       3.475   6.927  17.183  0.00  0.00    +0.000 OA
ATOM      4  H   UNL     1       2.339   5.157  19.559  0.00  0.00    +0.000 HD
ENDROOT
BRANCH   2   5
ATOM      5  C   UNL     1       2.196   7.619  19.017  0.00  0.00    +0.000 A 
ATOM      6  C   UNL     1       1.562   8.804  18.683  0.00  0.00    +0.000 A 
ATOM      7  C   UNL     1       1.036   9.389  19.869  0.00  0.00    +0.000 A 
ATOM      8  C   UNL     1       0.306  10.559  20.137  0.00  0.00    +0.000 A 
ATOM      9  C   UNL     1      -0.058  10.832  21.457  0.00  0.00    +0.000 A 
ATOM     10  F   UNL     1      -0.757  11.944  21.721  0.00  0.00    +0.000 F 
ATOM     11  C   UNL     1       0.284   9.981  22.499  0.00  0.00    +0.000 A 
ATOM     12  C   UNL     1       1.012   8.811  22.255  0.00  0.00    +0.000 A 
ATOM     13  C   UNL     1       1.370   8.544  20.925  0.00  0.00    +0.000 A 
ATOM     14  N   UNL     1       2.076   7.491  20.385  0.00  0.00    +0.000 N 
ATOM     15  H   UNL     1       2.456   6.712  20.910  0.00  0.00    +0.000 HD
ENDBRANCH   2   5
BRANCH   1  17
ATOM     16  C   UNL     1       3.455   2.959  18.835  0.00  0.00    +0.000 C 
ATOM     17  C   UNL     1       3.420   4.233  17.982  0.00  0.00    +0.000 C 
BRANCH  17  18
ATOM     18  C   UNL     1       4.825   4.529  17.485  0.00  0.00    +0.000 A 
ATOM     19  C   UNL     1       5.915   4.632  18.356  0.00  0.00    +0.000 A 
ATOM     20  C   UNL     1       7.210   4.706  17.848  0.00  0.00    +0.000 A 
ATOM     21  C   UNL     1       7.430   4.657  16.468  0.00  0.00    +0.000 A 
ATOM     22  C   UNL     1       6.365   4.564  15.566  0.00  0.00    +0.000 A 
ATOM     23  C   UNL     1       5.065   4.545  16.096  0.00  0.00    +0.000 A 
BRANCH  22  24
ATOM     24  N   UNL     1       6.572   4.420  14.165  0.00  0.00    +0.000 N 
ATOM     25  C   UNL     1       5.709   3.620  13.327  0.00  0.00    +0.000 C 
ATOM     26  C   UNL     1       6.528   3.357  12.082  0.00  0.00    +0.000 C 
ATOM     27  C   UNL     1       7.407   4.586  11.969  0.00  0.00    +0.000 C 
ATOM     28  C   UNL     1       7.586   5.022  13.404  0.00  0.00    +0.000 C 
ATOM     29  O   UNL     1       8.460   5.802  13.751  0.00  0.00    +0.000 OA
ENDBRANCH  22  24
ENDBRANCH  17  18
ENDBRANCH   1  17
TORSDOF 4
ENDMDL
MODEL 8
REMARK VINA RESULT:      -8.0      4.947      6.618
REMARK  Name = 
REMARK  5 active torsions:
REMARK  status: ('A' for Active; 'I' for Inactive)
REMARK    1  A    between atoms: C_1  and  C_2
REMARK    2  A    between atoms: C_2  and  N_3
REMARK    3  A    between atoms: C_2  and  C_16
REMARK    4  A    between atoms: C_4  and  C_6
REMARK    5  A    between atoms: C_20  and  N_21
REMARK                            x       y       z     vdW  Elec       q    Type
REMARK                         _______ _______ _______ _____ _____    ______ ____
ROOT
ATOM      1  N   UNL     1       3.672   5.767  17.816  0.00  0.00    +0.000 N 
ATOM      2  C   UNL     1       5.017   5.866  17.541  0.00  0.00    +0.000 C 
ATOM      3  O   UNL     1       5.816   6.390  18.312  0.00  0.00    +0.000 OA
ATOM      4  H   UNL     1       3.066   5.313  17.153  0.00  0.00    +0.000 HD
ENDROOT
BRANCH   2   5
ATOM      5  C   UNL     1       5.431   5.312  16.270  0.00  0.00    +0.000 A 
ATOM      6  C   UNL     1       4.929   4.277  15.500  0.00  0.00    +0.000 A 
ATOM      7  C   UNL     1       5.724   4.155  14.326  0.00  0.00    +0.000 A 
ATOM      8  C   UNL     1       5.685   3.308  13.206  0.00  0.00    +0.000 A 
ATOM      9  C   UNL     1       6.649   3.472  12.210  0.00  0.00    +0.000 A 
ATOM     10  F   UNL     1       6.617   2.671  11.137  0.00  0.00    +0.000 F 
ATOM     11  C   UNL     1       7.636   4.444  12.303  0.00  0.00    +0.000 A 
ATOM     12  C   UNL     1       7.695   5.298  13.410  0.00  0.00    +0.000 A 
ATOM     13  C   UNL     1       6.719   5.127  14.405  0.00  0.00    +0.000 A 
ATOM     14  N   UNL     1       6.525   5.803  15.589  0.00  0.00    +0.000 N 
ATOM     15  H   UNL     1       7.097   6.569  15.926  0.00  0.00    +0.000 HD
ENDBRANCH   2   5
BRANCH   1  17
ATOM     16  C   UNL     1       2.112   5.182  19.632  0.00  0.00    +0.000 C 
ATOM     17  C   UNL     1       3.120   6.198  19.083  0.00  0.00    +0.000 C 
BRANCH  17  18
ATOM     18  C   UNL     1       2.446   7.556  18.989  0.00  0.00    +0.000 A 
ATOM     19  C   UNL     1       2.203   8.181  17.761  0.00  0.00    +0.000 A 
ATOM     20  C   UNL     1       1.411   9.325  17.706  0.00  0.00    +0.000 A 
ATOM     21  C   UNL     1       0.837   9.845  18.871  0.00  0.00    +0.000 A 
ATOM     22  C   UNL     1       1.066   9.253  20.118  0.00  0.00    +0.000 A 
ATOM     23  C   UNL     1       1.911   8.132  20.159  0.00  0.00    +0.000 A 
BRANCH  22  24
ATOM     24  N   UNL     1       0.420   9.710  21.300  0.00  0.00    +0.000 N 
ATOM     25  C   UNL     1       0.743   9.199  22.613  0.00  0.00    +0.000 C 
ATOM     26  C   UNL     1      -0.449   9.570  23.468  0.00  0.00    +0.000 C 
ATOM     27  C   UNL     1      -0.954  10.851  22.835  0.00  0.00    +0.000 C 
ATOM     28  C   UNL     1      -0.571  10.700  21.382  0.00  0.00    +0.000 C 
ATOM     29  O   UNL     1      -1.055  11.390  20.498  0.00  0.00    +0.000 OA
ENDBRANCH  22  24
ENDBRANCH  17  18
ENDBRANCH   1  17
TORSDOF 4
ENDMDL
MODEL 9
REMARK VINA RESULT:      -7.9      1.184      1.757
REMARK  Name = 
REMARK  5 active torsions:
REMARK  status: ('A' for Active; 'I' for Inactive)
REMARK    1  A    between atoms: C_1  and  C_2
REMARK    2  A    between atoms: C_2  and  N_3
REMARK    3  A    between atoms: C_2  and  C_16
REMARK    4  A    between atoms: C_4  and  C_6
REMARK    5  A    between atoms: C_20  and  N_21
REMARK                            x       y       z     vdW  Elec       q    Type
REMARK                         _______ _______ _______ _____ _____    ______ ____
ROOT
ATOM      1  N   UNL     1       6.758   7.316  17.020  0.00  0.00    +0.000 N 
ATOM      2  C   UNL     1       7.711   7.457  18.003  0.00  0.00    +0.000 C 
ATOM      3  O   UNL     1       8.112   6.513  18.678  0.00  0.00    +0.000 OA
ATOM      4  H   UNL     1       6.477   8.122  16.486  0.00  0.00    +0.000 HD
ENDROOT
BRANCH   2   5
ATOM      5  C   UNL     1       8.209   8.801  18.193  0.00  0.00    +0.000 A 
ATOM      6  C   UNL     1       9.177   9.324  19.033  0.00  0.00    +0.000 A 
ATOM      7  C   UNL     1       9.272  10.725  18.804  0.00  0.00    +0.000 A 
ATOM      8  C   UNL     1      10.066  11.749  19.345  0.00  0.00    +0.000 A 
ATOM      9  C   UNL     1       9.891  13.051  18.873  0.00  0.00    +0.000 A 
ATOM     10  F   UNL     1      10.647  14.033  19.380  0.00  0.00    +0.000 F 
ATOM     11  C   UNL     1       8.956  13.352  17.891  0.00  0.00    +0.000 A 
ATOM     12  C   UNL     1       8.153  12.347  17.340  0.00  0.00    +0.000 A 
ATOM     13  C   UNL     1       8.339  11.041  17.819  0.00  0.00    +0.000 A 
ATOM     14  N   UNL     1       7.707   9.867  17.475  0.00  0.00    +0.000 N 
ATOM     15  H   UNL     1       6.974   9.778  16.781  0.00  0.00    +0.000 HD
ENDBRANCH   2   5
BRANCH   1  17
ATOM     16  C   UNL     1       6.320   5.779  15.142  0.00  0.00    +0.000 C 
ATOM     17  C   UNL     1       6.227   6.020  16.653  0.00  0.00    +0.000 C 
BRANCH  17  18
ATOM     18  C   UNL     1       4.783   5.840  17.091  0.00  0.00    +0.000 A 
ATOM     19  C   UNL     1       4.228   4.576  17.321  0.00  0.00    +0.000 A 
ATOM     20  C   UNL     1       2.971   4.464  17.908  0.00  0.00    +0.000 A 
ATOM     21  C   UNL     1       2.263   5.609  18.289  0.00  0.00    +0.000 A 
ATOM     22  C   UNL     1       2.782   6.889  18.066  0.00  0.00    +0.000 A 
ATOM     23  C   UNL     1       4.027   6.982  17.424  0.00  0.00    +0.000 A 
BRANCH  22  24
ATOM     24  N   UNL     1       2.121   8.061  18.528  0.00  0.00    +0.000 N 
ATOM     25  C   UNL     1       1.845   9.190  17.669  0.00  0.00    +0.000 C 
ATOM     26  C   UNL     1       1.597  10.340  18.622  0.00  0.00    +0.000 C 
ATOM     27  C   UNL     1       1.008   9.666  19.844  0.00  0.00    +0.000 C 
ATOM     28  C   UNL     1       1.633   8.291  19.823  0.00  0.00    +0.000 C 
ATOM     29  O   UNL     1       1.632   7.552  20.796  0.00  0.00    +0.000 OA
ENDBRANCH  22  24
ENDBRANCH  17  18
ENDBRANCH   1  17
TORSDOF 4
ENDMDL
