MODEL 1
REMARK VINA RESULT:      -9.0      0.000      0.000
REMARK  Name = 
REMARK  3 active torsions:
REMARK  status: ('A' for Active; 'I' for Inactive)
REMARK    1  A    between atoms: C_2  and  C_11
REMARK    2  A    between atoms: N_3  and  C_4
REMARK    3  A    between atoms: N_13  and  C_14
REMARK                            x       y       z     vdW  Elec       q    Type
REMARK                         _______ _______ _______ _____ _____    ______ ____
ROOT
ATOM      1  C   UNL     1       2.899   5.895  18.608  0.00  0.00    +0.000 A 
ATOM      2  N   UNL     1       3.852   5.847  17.722  0.00  0.00    +0.000 NA
ATOM      3  N   UNL     1       4.367   4.612  17.356  0.00  0.00    +0.000 N 
ATOM      4  C   UNL     1       3.941   3.399  17.918  0.00  0.00    +0.000 A 
ATOM      5  O   UNL     1       4.334   2.273  17.618  0.00  0.00    +0.000 OA
ATOM      6  C   UNL     1       2.961   3.491  19.014  0.00  0.00    +0.000 A 
ATOM      7  C   UNL     1       2.596   2.329  19.715  0.00  0.00    +0.000 A 
ATOM      8  C   UNL     1       1.675   2.399  20.756  0.00  0.00    +0.000 A 
ATOM      9  C   UNL     1       1.108   3.625  21.090  0.00  0.00    +0.000 A 
ATOM     10  C   UNL     1       1.479   4.782  20.399  0.00  0.00    +0.000 A 
ATOM     11  C   UNL     1       2.414   4.719  19.356  0.00  0.00    +0.000 A 
ENDROOT
BRANCH   3  12
ATOM     12  C   UNL     1       5.307   4.665  16.272  0.00  0.00    +0.000 A 
ATOM     13  C   UNL     1       4.964   4.253  14.974  0.00  0.00    +0.000 A 
ATOM     14  C   UNL     1       5.892   4.301  13.927  0.00  0.00    +0.000 A 
ATOM     15  C   UNL     1       7.182   4.753  14.162  0.00  0.00    +0.000 A 
ATOM     16  C   UNL     1       7.545   5.174  15.439  0.00  0.00    +0.000 A 
ATOM     17  C   UNL     1       6.610   5.144  16.481  0.00  0.00    +0.000 A 
ENDBRANCH   3  12
BRANCH   1  19
ATOM     18  O   UNL     1       2.145   8.011  17.871  0.00  0.00    +0.000 OA
ATOM     19  C   UNL     1       2.246   7.259  18.830  0.00  0.00    +0.000 C 
ATOM     20  N   UNL     1       1.873   7.503  20.137  0.00  0.00    +0.000 N 
ATOM     21  H   UNL     1       2.167   6.808  20.814  0.00  0.00    +0.000 HD
BRANCH  20  22
ATOM     22  C   UNL     1       1.261   8.681  20.627  0.00  0.00    +0.000 A 
ATOM     23  C   UNL     1       1.124   9.850  19.866  0.00  0.00    +0.000 A 
ATOM     24  C   UNL     1       0.532  11.000  20.404  0.00  0.00    +0.000 A 
ATOM     25  C   UNL     1       0.061  10.991  21.711  0.00  0.00    +0.000 A 
ATOM     26  C   UNL     1       0.180   9.827  22.461  0.00  0.00    +0.000 A 
ATOM     27  F   UNL     1      -0.279   9.814  23.721  0.00  0.00    +0.000 F 
ATOM     28  C   UNL     1       0.768   8.677  21.934  0.00  0.00    +0.000 A 
ENDBRANCH  20  22
ENDBRANCH   1  19
TORSDOF 3
ENDMDL
MODEL 2
REMARK VINA RESULT:      -8.9      3.382      7.635
REMARK  Name = 
REMARK  3 active torsions:
REMARK  status: ('A' for Active; 'I' for Inactive)
REMARK    1  A    between atoms: C_2  and  C_11
REMARK    2  A    between atoms: N_3  and  C_4
REMARK    3  A    between atoms: N_13  and  C_14
REMARK                            x       y       z     vdW  Elec       q    Type
REMARK                         _______ _______ _______ _____ _____    ______ ____
ROOT
ATOM      1  C   UNL     1       4.157   5.561  17.932  0.00  0.00    +0.000 A 
ATOM      2  N   UNL     1       3.494   6.682  17.951  0.00  0.00    +0.000 NA
ATOM      3  N   UNL     1       2.588   6.908  18.977  0.00  0.00    +0.000 N 
ATOM      4  C   UNL     1       2.314   5.974  19.987  0.00  0.00    +0.000 A 
ATOM      5  O   UNL     1       1.547   6.124  20.937  0.00  0.00    +0.000 OA
ATOM      6  C   UNL     1       2.972   4.662  19.865  0.00  0.00    +0.000 A 
ATOM      7  C   UNL     1       2.636   3.633  20.760  0.00  0.00    +0.000 A 
ATOM      8  C   UNL     1       3.246   2.386  20.657  0.00  0.00    +0.000 A 
ATOM      9  C   UNL     1       4.200   2.169  19.668  0.00  0.00    +0.000 A 
ATOM     10  C   UNL     1       4.528   3.190  18.770  0.00  0.00    +0.000 A 
ATOM     11  C   UNL     1       3.909   4.445  18.864  0.00  0.00    +0.000 A 
ENDROOT
BRANCH   3  12
ATOM     12  C   UNL     1       2.025   8.229  18.982  0.00  0.00    +0.000 A 
ATOM     13  C   UNL     1       1.322   8.731  20.089  0.00  0.00    +0.000 A 
ATOM     14  C   UNL     1       0.770  10.016  20.079  0.00  0.00    +0.000 A 
ATOM     15  C   UNL     1       0.903  10.821  18.957  0.00  0.00    +0.000 A 
ATOM     16  C   UNL     1       1.601  10.349  17.848  0.00  0.00    +0.000 A 
ATOM     17  C   UNL     1       2.170   9.070  17.867  0.00  0.00    +0.000 A 
ENDBRANCH   3  12
BRANCH   1  19
ATOM     18  O   UNL     1       6.357   5.943  17.156  0.00  0.00    +0.000 OA
ATOM     19  C   UNL     1       5.271   5.449  16.892  0.00  0.00    +0.000 C 
ATOM     20  N   UNL     1       4.894   4.818  15.722  0.00  0.00    +0.000 N 
ATOM     21  H   UNL     1       3.906   4.600  15.640  0.00  0.00    +0.000 HD
BRANCH  20  22
ATOM     22  C   UNL     1       5.714   4.588  14.592  0.00  0.00    +0.000 A 
ATOM     23  C   UNL     1       6.947   5.225  14.395  0.00  0.00    +0.000 A 
ATOM     24  C   UNL     1       7.712   4.982  13.247  0.00  0.00    +0.000 A 
ATOM     25  C   UNL     1       7.255   4.091  12.285  0.00  0.00    +0.000 A 
ATOM     26  C   UNL     1       6.042   3.445  12.487  0.00  0.00    +0.000 A 
ATOM     27  F   UNL     1       5.601   2.580  11.562  0.00  0.00    +0.000 F 
ATOM     28  C   UNL     1       5.272   3.680  13.627  0.00  0.00    +0.000 A 
ENDBRANCH  20  22
ENDBRANCH   1  19
TORSDOF 3
ENDMDL
MODEL 3
REMARK VINA RESULT:      -8.7      3.233      7.540
REMARK  Name = 
REMARK  3 active torsions:
REMARK  status: ('A' for Active; 'I' for Inactive)
REMARK    1  A    between atoms: C_2  and  C_11
REMARK    2  A    between atoms: N_3  and  C_4
REMARK    3  A    between atoms: N_13  and  C_14
REMARK                            x       y       z     vdW  Elec       q    Type
REMARK                         _______ _______ _______ _____ _____    ______ ____
ROOT
ATOM      1  C   UNL     1       4.168   5.285  17.956  0.00  0.00    +0.000 A 
ATOM      2  N   UNL     1       3.524   6.417  17.942  0.00  0.00    +0.000 NA
ATOM      3  N   UNL     1       2.636   6.696  18.970  0.00  0.00    +0.000 N 
ATOM      4  C   UNL     1       2.360   5.805  20.018  0.00  0.00    +0.000 A 
ATOM      5  O   UNL     1       1.609   6.003  20.972  0.00  0.00    +0.000 OA
ATOM      6  C   UNL     1       2.995   4.479  19.937  0.00  0.00    +0.000 A 
ATOM      7  C   UNL     1       2.654   3.489  20.874  0.00  0.00    +0.000 A 
ATOM      8  C   UNL     1       3.242   2.229  20.810  0.00  0.00    +0.000 A 
ATOM      9  C   UNL     1       4.179   1.960  19.817  0.00  0.00    +0.000 A 
ATOM     10  C   UNL     1       4.511   2.941  18.878  0.00  0.00    +0.000 A 
ATOM     11  C   UNL     1       3.914   4.209  18.933  0.00  0.00    +0.000 A 
ENDROOT
BRANCH   3  12
ATOM     12  C   UNL     1       2.094   8.026  18.934  0.00  0.00    +0.000 A 
ATOM     13  C   UNL     1       1.436   8.589  20.039  0.00  0.00    +0.000 A 
ATOM     14  C   UNL     1       0.905   9.882  19.987  0.00  0.00    +0.000 A 
ATOM     15  C   UNL     1       1.013  10.633  18.826  0.00  0.00    +0.000 A 
ATOM     16  C   UNL     1       1.667  10.100  17.718  0.00  0.00    +0.000 A 
ATOM     17  C   UNL     1       2.216   8.813  17.777  0.00  0.00    +0.000 A 
ENDBRANCH   3  12
BRANCH   1  19
ATOM     18  O   UNL     1       6.418   5.350  17.237  0.00  0.00    +0.000 OA
ATOM     19  C   UNL     1       5.265   5.115  16.906  0.00  0.00    +0.000 C 
ATOM     20  N   UNL     1       4.804   4.745  15.658  0.00  0.00    +0.000 N 
ATOM     21  H   UNL     1       3.796   4.732  15.549  0.00  0.00    +0.000 HD
BRANCH  20  22
ATOM     22  C   UNL     1       5.593   4.529  14.504  0.00  0.00    +0.000 A 
ATOM     23  C   UNL     1       5.236   3.638  13.483  0.00  0.00    +0.000 A 
ATOM     24  C   UNL     1       6.063   3.441  12.370  0.00  0.00    +0.000 A 
ATOM     25  C   UNL     1       7.257   4.142  12.261  0.00  0.00    +0.000 A 
ATOM     26  C   UNL     1       7.605   5.040  13.263  0.00  0.00    +0.000 A 
ATOM     27  F   UNL     1       8.754   5.722  13.157  0.00  0.00    +0.000 F 
ATOM     28  C   UNL     1       6.788   5.243  14.376  0.00  0.00    +0.000 A 
ENDBRANCH  20  22
ENDBRANCH   1  19
TORSDOF 3
ENDMDL
MODEL 4
REMARK VINA RESULT:      -8.7      0.922      1.301
REMARK  Name = 
REMARK  3 active torsions:
REMARK  status: ('A' for Active; 'I' for Inactive)
REMARK    1  A    between atoms: C_2  and  C_11
REMARK    2  A    between atoms: N_3  and  C_4
REMARK    3  A    between atoms: N_13  and  C_14
REMARK                            x       y       z     vdW  Elec       q    Type
REMARK                         _______ _______ _______ _____ _____    ______ ____
ROOT
ATOM      1  C   UNL     1       2.915   5.888  18.676  0.00  0.00    +0.000 A 
ATOM      2  N   UNL     1       3.862   5.839  17.783  0.00  0.00    +0.000 NA
ATOM      3  N   UNL     1       4.357   4.602  17.398  0.00  0.00    +0.000 N 
ATOM      4  C   UNL     1       3.918   3.388  17.947  0.00  0.00    +0.000 A 
ATOM      5  O   UNL     1       4.294   2.260  17.629  0.00  0.00    +0.000 OA
ATOM      6  C   UNL     1       2.948   3.478  19.051  0.00  0.00    +0.000 A 
ATOM      7  C   UNL     1       2.572   2.313  19.740  0.00  0.00    +0.000 A 
ATOM      8  C   UNL     1       1.659   2.381  20.788  0.00  0.00    +0.000 A 
ATOM      9  C   UNL     1       1.112   3.610  21.142  0.00  0.00    +0.000 A 
ATOM     10  C   UNL     1       1.493   4.771  20.463  0.00  0.00    +0.000 A 
ATOM     11  C   UNL     1       2.420   4.709  19.413  0.00  0.00    +0.000 A 
ENDROOT
BRANCH   3  12
ATOM     12  C   UNL     1       5.289   4.657  16.307  0.00  0.00    +0.000 A 
ATOM     13  C   UNL     1       4.929   4.278  15.004  0.00  0.00    +0.000 A 
ATOM     14  C   UNL     1       5.849   4.327  13.951  0.00  0.00    +0.000 A 
ATOM     15  C   UNL     1       7.150   4.747  14.184  0.00  0.00    +0.000 A 
ATOM     16  C   UNL     1       7.532   5.134  15.467  0.00  0.00    +0.000 A 
ATOM     17  C   UNL     1       6.604   5.103  16.516  0.00  0.00    +0.000 A 
ENDBRANCH   3  12
BRANCH   1  19
ATOM     18  O   UNL     1       2.231   8.042  17.985  0.00  0.00    +0.000 OA
ATOM     19  C   UNL     1       2.282   7.257  18.921  0.00  0.00    +0.000 C 
ATOM     20  N   UNL     1       1.868   7.467  20.221  0.00  0.00    +0.000 N 
ATOM     21  H   UNL     1       2.124   6.744  20.885  0.00  0.00    +0.000 HD
BRANCH  20  22
ATOM     22  C   UNL     1       1.263   8.641  20.729  0.00  0.00    +0.000 A 
ATOM     23  C   UNL     1       0.880   8.792  22.068  0.00  0.00    +0.000 A 
ATOM     24  C   UNL     1       0.262   9.966  22.518  0.00  0.00    +0.000 A 
ATOM     25  C   UNL     1       0.027  11.009  21.631  0.00  0.00    +0.000 A 
ATOM     26  C   UNL     1       0.422  10.868  20.306  0.00  0.00    +0.000 A 
ATOM     27  F   UNL     1       0.200  11.876  19.450  0.00  0.00    +0.000 F 
ATOM     28  C   UNL     1       1.038   9.703  19.849  0.00  0.00    +0.000 A 
ENDBRANCH  20  22
ENDBRANCH   1  19
TORSDOF 3
ENDMDL
MODEL 5
REMARK VINA RESULT:      -8.6      1.829      1.936
REMARK  Name = 
REMARK  3 active torsions:
REMARK  status: ('A' for Active; 'I' for Inactive)
REMARK    1  A    between atoms: C_2  and  C_11
REMARK    2  A    between atoms: N_3  and  C_4
REMARK    3  A    between atoms: N_13  and  C_14
REMARK                            x       y       z     vdW  Elec       q    Type
REMARK                         _______ _______ _______ _____ _____    ______ ____
ROOT
ATOM      1  C   UNL     1       2.937   5.937  18.838  0.00  0.00    +0.000 A 
ATOM      2  N   UNL     1       3.890   5.912  17.952  0.00  0.00    +0.000 NA
ATOM      3  N   UNL     1       4.290   4.691  17.430  0.00  0.00    +0.000 N 
ATOM      4  C   UNL     1       3.746   3.462  17.833  0.00  0.00    +0.000 A 
ATOM      5  O   UNL     1       4.034   2.351  17.391  0.00  0.00    +0.000 OA
ATOM      6  C   UNL     1       2.769   3.506  18.935  0.00  0.00    +0.000 A 
ATOM      7  C   UNL     1       2.290   2.304  19.483  0.00  0.00    +0.000 A 
ATOM      8  C   UNL     1       1.370   2.328  20.527  0.00  0.00    +0.000 A 
ATOM      9  C   UNL     1       0.918   3.549  21.016  0.00  0.00    +0.000 A 
ATOM     10  C   UNL     1       1.402   4.745  20.477  0.00  0.00    +0.000 A 
ATOM     11  C   UNL     1       2.337   4.727  19.432  0.00  0.00    +0.000 A 
ENDROOT
BRANCH   3  12
ATOM     12  C   UNL     1       5.240   4.792  16.358  0.00  0.00    +0.000 A 
ATOM     13  C   UNL     1       4.913   4.431  15.041  0.00  0.00    +0.000 A 
ATOM     14  C   UNL     1       5.851   4.526  14.007  0.00  0.00    +0.000 A 
ATOM     15  C   UNL     1       7.136   4.975  14.273  0.00  0.00    +0.000 A 
ATOM     16  C   UNL     1       7.484   5.346  15.570  0.00  0.00    +0.000 A 
ATOM     17  C   UNL     1       6.538   5.269  16.600  0.00  0.00    +0.000 A 
ENDBRANCH   3  12
BRANCH   1  19
ATOM     18  O   UNL     1       2.270   7.558  20.424  0.00  0.00    +0.000 OA
ATOM     19  C   UNL     1       2.413   7.317  19.234  0.00  0.00    +0.000 C 
ATOM     20  N   UNL     1       2.114   8.139  18.165  0.00  0.00    +0.000 N 
ATOM     21  H   UNL     1       2.171   7.705  17.249  0.00  0.00    +0.000 HD
BRANCH  20  22
ATOM     22  C   UNL     1       1.605   9.457  18.238  0.00  0.00    +0.000 A 
ATOM     23  C   UNL     1       2.407  10.599  18.105  0.00  0.00    +0.000 A 
ATOM     24  C   UNL     1       1.859  11.884  18.210  0.00  0.00    +0.000 A 
ATOM     25  C   UNL     1       0.499  12.042  18.440  0.00  0.00    +0.000 A 
ATOM     26  C   UNL     1      -0.301  10.911  18.554  0.00  0.00    +0.000 A 
ATOM     27  F   UNL     1      -1.615  11.061  18.771  0.00  0.00    +0.000 F 
ATOM     28  C   UNL     1       0.235   9.627  18.452  0.00  0.00    +0.000 A 
ENDBRANCH  20  22
ENDBRANCH   1  19
TORSDOF 3
ENDMDL
MODEL 6
REMARK VINA RESULT:      -8.5      3.981      6.935
REMARK  Name = 
REMARK  3 active torsions:
REMARK  status: ('A' for Active; 'I' for Inactive)
REMARK    1  A    between atoms: C_2  and  C_11
REMARK    2  A    between atoms: N_3  and  C_4
REMARK    3  A    between atoms: N_13  and  C_14
REMARK                            x       y       z     vdW  Elec       q    Type
REMARK                         _______ _______ _______ _____ _____    ______ ____
ROOT
ATOM      1  C   UNL     1       6.289   5.888  17.674  0.00  0.00    +0.000 A 
ATOM      2  N   UNL     1       5.337   5.616  18.519  0.00  0.00    +0.000 NA
ATOM      3  N   UNL     1       4.426   4.618  18.206  0.00  0.00    +0.000 N 
ATOM      4  C   UNL     1       4.448   3.901  17.000  0.00  0.00    +0.000 A 
ATOM      5  O   UNL     1       3.691   2.988  16.674  0.00  0.00    +0.000 OA
ATOM      6  C   UNL     1       5.448   4.322  16.004  0.00  0.00    +0.000 A 
ATOM      7  C   UNL     1       5.436   3.744  14.724  0.00  0.00    +0.000 A 
ATOM      8  C   UNL     1       6.371   4.133  13.769  0.00  0.00    +0.000 A 
ATOM      9  C   UNL     1       7.327   5.090  14.095  0.00  0.00    +0.000 A 
ATOM     10  C   UNL     1       7.333   5.673  15.366  0.00  0.00    +0.000 A 
ATOM     11  C   UNL     1       6.386   5.292  16.328  0.00  0.00    +0.000 A 
ENDROOT
BRANCH   3  12
ATOM     12  C   UNL     1       3.512   4.302  19.268  0.00  0.00    +0.000 A 
ATOM     13  C   UNL     1       3.640   3.129  20.030  0.00  0.00    +0.000 A 
ATOM     14  C   UNL     1       2.738   2.828  21.057  0.00  0.00    +0.000 A 
ATOM     15  C   UNL     1       1.686   3.689  21.333  0.00  0.00    +0.000 A 
ATOM     16  C   UNL     1       1.541   4.861  20.594  0.00  0.00    +0.000 A 
ATOM     17  C   UNL     1       2.456   5.171  19.581  0.00  0.00    +0.000 A 
ENDBRANCH   3  12
BRANCH   1  19
ATOM     18  O   UNL     1       8.267   6.418  18.854  0.00  0.00    +0.000 OA
ATOM     19  C   UNL     1       7.367   6.859  18.154  0.00  0.00    +0.000 C 
ATOM     20  N   UNL     1       7.166   8.168  17.763  0.00  0.00    +0.000 N 
ATOM     21  H   UNL     1       6.284   8.358  17.300  0.00  0.00    +0.000 HD
BRANCH  20  22
ATOM     22  C   UNL     1       7.996   9.272  18.074  0.00  0.00    +0.000 A 
ATOM     23  C   UNL     1       9.008   9.224  19.042  0.00  0.00    +0.000 A 
ATOM     24  C   UNL     1       9.787  10.352  19.332  0.00  0.00    +0.000 A 
ATOM     25  C   UNL     1       9.569  11.540  18.647  0.00  0.00    +0.000 A 
ATOM     26  C   UNL     1       8.578  11.584  17.674  0.00  0.00    +0.000 A 
ATOM     27  F   UNL     1       8.369  12.729  17.008  0.00  0.00    +0.000 F 
ATOM     28  C   UNL     1       7.796  10.467  17.379  0.00  0.00    +0.000 A 
ENDBRANCH  20  22
ENDBRANCH   1  19
TORSDOF 3
ENDMDL
MODEL 7
REMARK VINA RESULT:      -8.5      2.052      2.254
REMARK  Name = 
REMARK  3 active torsions:
REMARK  status: ('A' for Active; 'I' for Inactive)
REMARK    1  A    between atoms: C_2  and  C_11
REMARK    2  A    between atoms: N_3  and  C_4
REMARK    3  A    between atoms: N_13  and  C_14
REMARK                            x       y       z     vdW  Elec       q    Type
REMARK                         _______ _______ _______ _____ _____    ______ ____
ROOT
ATOM      1  C   UNL     1       2.920   5.912  18.865  0.00  0.00    +0.000 A 
ATOM      2  N   UNL     1       3.876   5.891  17.981  0.00  0.00    +0.000 NA
ATOM      3  N   UNL     1       4.280   4.671  17.459  0.00  0.00    +0.000 N 
ATOM      4  C   UNL     1       3.739   3.441  17.859  0.00  0.00    +0.000 A 
ATOM      5  O   UNL     1       4.031   2.331  17.416  0.00  0.00    +0.000 OA
ATOM      6  C   UNL     1       2.759   3.480  18.958  0.00  0.00    +0.000 A 
ATOM      7  C   UNL     1       2.282   2.277  19.503  0.00  0.00    +0.000 A 
ATOM      8  C   UNL     1       1.358   2.296  20.545  0.00  0.00    +0.000 A 
ATOM      9  C   UNL     1       0.901   3.516  21.034  0.00  0.00    +0.000 A 
ATOM     10  C   UNL     1       1.384   4.714  20.498  0.00  0.00    +0.000 A 
ATOM     11  C   UNL     1       2.322   4.700  19.456  0.00  0.00    +0.000 A 
ENDROOT
BRANCH   3  12
ATOM     12  C   UNL     1       5.234   4.777  16.390  0.00  0.00    +0.000 A 
ATOM     13  C   UNL     1       4.900   4.455  15.065  0.00  0.00    +0.000 A 
ATOM     14  C   UNL     1       5.840   4.554  14.033  0.00  0.00    +0.000 A 
ATOM     15  C   UNL     1       7.135   4.967  14.310  0.00  0.00    +0.000 A 
ATOM     16  C   UNL     1       7.490   5.297  15.616  0.00  0.00    +0.000 A 
ATOM     17  C   UNL     1       6.543   5.217  16.644  0.00  0.00    +0.000 A 
ENDBRANCH   3  12
BRANCH   1  19
ATOM     18  O   UNL     1       2.257   7.534  20.452  0.00  0.00    +0.000 OA
ATOM     19  C   UNL     1       2.392   7.290  19.262  0.00  0.00    +0.000 C 
ATOM     20  N   UNL     1       2.079   8.107  18.192  0.00  0.00    +0.000 N 
ATOM     21  H   UNL     1       2.131   7.671  17.278  0.00  0.00    +0.000 HD
BRANCH  20  22
ATOM     22  C   UNL     1       1.563   9.422  18.266  0.00  0.00    +0.000 A 
ATOM     23  C   UNL     1       0.213   9.705  18.517  0.00  0.00    +0.000 A 
ATOM     24  C   UNL     1      -0.255  11.025  18.556  0.00  0.00    +0.000 A 
ATOM     25  C   UNL     1       0.626  12.080  18.353  0.00  0.00    +0.000 A 
ATOM     26  C   UNL     1       1.967  11.802  18.122  0.00  0.00    +0.000 A 
ATOM     27  F   UNL     1       2.820  12.818  17.930  0.00  0.00    +0.000 F 
ATOM     28  C   UNL     1       2.443  10.490  18.080  0.00  0.00    +0.000 A 
ENDBRANCH  20  22
ENDBRANCH   1  19
TORSDOF 3
ENDMDL
MODEL 8
REMARK VINA RESULT:      -8.5      3.563      8.199
REMARK  Name = 
REMARK  3 active torsions:
REMARK  status: ('A' for Active; 'I' for Inactive)
REMARK    1  A    between atoms: C_2  and  C_11
REMARK    2  A    between atoms: N_3  and  C_4
REMARK    3  A    between atoms: N_13  and  C_14
REMARK                            x       y       z     vdW  Elec       q    Type
REMARK                         _______ _______ _______ _____ _____    ______ ____
ROOT
ATOM      1  C   UNL     1       1.232  10.231  19.181  0.00  0.00    +0.000 A 
ATOM      2  N   UNL     1       1.545  11.413  18.733  0.00  0.00    +0.000 NA
ATOM      3  N   UNL     1       1.395  12.510  19.569  0.00  0.00    +0.000 N 
ATOM      4  C   UNL     1       0.885  12.424  20.873  0.00  0.00    +0.000 A 
ATOM      5  O   UNL     1       0.755  13.349  21.673  0.00  0.00    +0.000 OA
ATOM      6  C   UNL     1       0.410  11.099  21.307  0.00  0.00    +0.000 A 
ATOM      7  C   UNL     1      -0.240  10.969  22.546  0.00  0.00    +0.000 A 
ATOM      8  C   UNL     1      -0.699   9.725  22.969  0.00  0.00    +0.000 A 
ATOM      9  C   UNL     1      -0.499   8.609  22.163  0.00  0.00    +0.000 A 
ATOM     10  C   UNL     1       0.138   8.740  20.926  0.00  0.00    +0.000 A 
ATOM     11  C   UNL     1       0.594   9.993  20.490  0.00  0.00    +0.000 A 
ENDROOT
BRANCH   3  12
ATOM     12  C   UNL     1       1.906  13.737  19.025  0.00  0.00    +0.000 A 
ATOM     13  C   UNL     1       1.138  14.912  18.999  0.00  0.00    +0.000 A 
ATOM     14  C   UNL     1       1.644  16.099  18.458  0.00  0.00    +0.000 A 
ATOM     15  C   UNL     1       2.924  16.130  17.925  0.00  0.00    +0.000 A 
ATOM     16  C   UNL     1       3.708  14.979  17.944  0.00  0.00    +0.000 A 
ATOM     17  C   UNL     1       3.208  13.797  18.504  0.00  0.00    +0.000 A 
ENDBRANCH   3  12
BRANCH   1  19
ATOM     18  O   UNL     1       1.073   8.980  17.182  0.00  0.00    +0.000 OA
ATOM     19  C   UNL     1       1.594   9.047  18.286  0.00  0.00    +0.000 C 
ATOM     20  N   UNL     1       2.462   8.142  18.865  0.00  0.00    +0.000 N 
ATOM     21  H   UNL     1       2.675   8.304  19.844  0.00  0.00    +0.000 HD
BRANCH  20  22
ATOM     22  C   UNL     1       2.954   6.956  18.272  0.00  0.00    +0.000 A 
ATOM     23  C   UNL     1       4.128   6.907  17.509  0.00  0.00    +0.000 A 
ATOM     24  C   UNL     1       4.561   5.711  16.921  0.00  0.00    +0.000 A 
ATOM     25  C   UNL     1       3.826   4.546  17.098  0.00  0.00    +0.000 A 
ATOM     26  C   UNL     1       2.671   4.588  17.868  0.00  0.00    +0.000 A 
ATOM     27  F   UNL     1       1.963   3.463  18.044  0.00  0.00    +0.000 F 
ATOM     28  C   UNL     1       2.231   5.774  18.457  0.00  0.00    +0.000 A 
ENDBRANCH  20  22
ENDBRANCH   1  19
TORSDOF 3
ENDMDL
MODEL 9
REMARK VINA RESULT:      -8.5      3.728      8.338
REMARK  Name = 
REMARK  3 active torsions:
REMARK  status: ('A' for Active; 'I' for Inactive)
REMARK    1  A    between atoms: C_2  and  C_11
REMARK    2  A    between atoms: N_3  and  C_4
REMARK    3  A    between atoms: N_13  and  C_14
REMARK                            x       y       z     vdW  Elec       q    Type
REMARK                         _______ _______ _______ _____ _____    ______ ____
ROOT
ATOM      1  C   UNL     1       1.217  10.246  19.181  0.00  0.00    +0.000 A 
ATOM      2  N   UNL     1       1.531  11.424  18.724  0.00  0.00    +0.000 NA
ATOM      3  N   UNL     1       1.385  12.526  19.554  0.00  0.00    +0.000 N 
ATOM      4  C   UNL     1       0.879  12.450  20.860  0.00  0.00    +0.000 A 
ATOM      5  O   UNL     1       0.752  13.380  21.654  0.00  0.00    +0.000 OA
ATOM      6  C   UNL     1       0.403  11.128  21.304  0.00  0.00    +0.000 A 
ATOM      7  C   UNL     1      -0.244  11.006  22.545  0.00  0.00    +0.000 A 
ATOM      8  C   UNL     1      -0.703   9.766  22.978  0.00  0.00    +0.000 A 
ATOM      9  C   UNL     1      -0.507   8.644  22.178  0.00  0.00    +0.000 A 
ATOM     10  C   UNL     1       0.127   8.767  20.939  0.00  0.00    +0.000 A 
ATOM     11  C   UNL     1       0.583  10.016  20.493  0.00  0.00    +0.000 A 
ENDROOT
BRANCH   3  12
ATOM     12  C   UNL     1       1.896  13.749  19.001  0.00  0.00    +0.000 A 
ATOM     13  C   UNL     1       3.191  13.835  18.464  0.00  0.00    +0.000 A 
ATOM     14  C   UNL     1       3.680  15.035  17.937  0.00  0.00    +0.000 A 
ATOM     15  C   UNL     1       2.888  16.174  17.946  0.00  0.00    +0.000 A 
ATOM     16  C   UNL     1       1.598  16.113  18.467  0.00  0.00    +0.000 A 
ATOM     17  C   UNL     1       1.101  14.906  18.977  0.00  0.00    +0.000 A 
ENDBRANCH   3  12
BRANCH   1  19
ATOM     18  O   UNL     1       1.058   8.986  17.187  0.00  0.00    +0.000 OA
ATOM     19  C   UNL     1       1.576   9.055  18.292  0.00  0.00    +0.000 C 
ATOM     20  N   UNL     1       2.437   8.148  18.878  0.00  0.00    +0.000 N 
ATOM     21  H   UNL     1       2.648   8.313  19.857  0.00  0.00    +0.000 HD
BRANCH  20  22
ATOM     22  C   UNL     1       2.923   6.956  18.292  0.00  0.00    +0.000 A 
ATOM     23  C   UNL     1       2.339   5.700  18.506  0.00  0.00    +0.000 A 
ATOM     24  C   UNL     1       2.872   4.544  17.922  0.00  0.00    +0.000 A 
ATOM     25  C   UNL     1       3.995   4.632  17.109  0.00  0.00    +0.000 A 
ATOM     26  C   UNL     1       4.565   5.879  16.881  0.00  0.00    +0.000 A 
ATOM     27  F   UNL     1       5.646   5.967  16.092  0.00  0.00    +0.000 F 
ATOM     28  C   UNL     1       4.042   7.036  17.459  0.00  0.00    +0.000 A 
ENDBRANCH  20  22
ENDBRANCH   1  19
TORSDOF 3
ENDMDL
