MODEL 1
REMARK VINA RESULT:      -8.8      0.000      0.000
REMARK  Name = 
REMARK  4 active torsions:
REMARK  status: ('A' for Active; 'I' for Inactive)
REMARK    1  A    between atoms: C_2  and  C_14
REMARK    2  A    between atoms: N_3  and  C_4
REMARK    3  A    between atoms: C_17  and  S_18
REMARK    4  A    between atoms: S_18  and  N_21
REMARK                            x       y       z     vdW  Elec       q    Type
REMARK                         _______ _______ _______ _____ _____    ______ ____
ROOT
ATOM      1  C   UNL     1       1.644   7.929  19.997  0.00  0.00    +0.000 A 
ATOM      2  C   UNL     1       2.180   7.810  18.707  0.00  0.00    +0.000 A 
ATOM      3  C   UNL     1       2.595   6.574  18.227  0.00  0.00    +0.000 A 
ATOM      4  C   UNL     1       2.461   5.444  19.045  0.00  0.00    +0.000 A 
ATOM      5  C   UNL     1       1.904   5.557  20.328  0.00  0.00    +0.000 A 
ATOM      6  C   UNL     1       1.507   6.804  20.815  0.00  0.00    +0.000 A 
ENDROOT
BRANCH   1   8
ATOM      7  O   UNL     1       1.178   9.521  21.591  0.00  0.00    +0.000 OA
ATOM      8  C   UNL     1       1.155   9.263  20.394  0.00  0.00    +0.000 C 
ATOM      9  N   UNL     1       0.653  10.059  19.384  0.00  0.00    +0.000 N 
ATOM     10  H   UNL     1       0.444   9.652  18.478  0.00  0.00    +0.000 HD
BRANCH   9  11
ATOM     11  C   UNL     1       0.091  11.344  19.590  0.00  0.00    +0.000 A 
ATOM     12  C   UNL     1      -1.207  11.500  20.099  0.00  0.00    +0.000 A 
ATOM     13  C   UNL     1      -1.782  12.754  20.218  0.00  0.00    +0.000 A 
ATOM     14  C   UNL     1      -1.054  13.871  19.838  0.00  0.00    +0.000 A 
ATOM     15  C   UNL     1       0.254  13.734  19.346  0.00  0.00    +0.000 A 
ATOM     16  C   UNL     1       0.975  14.859  18.934  0.00  0.00    +0.000 A 
ATOM     17  C   UNL     1       2.259  14.712  18.430  0.00  0.00    +0.000 A 
ATOM     18  C   UNL     1       2.788  13.437  18.365  0.00  0.00    +0.000 A 
ATOM     19  N   UNL     1       2.125  12.321  18.750  0.00  0.00    +0.000 NA
ATOM     20  C   UNL     1       0.862  12.463  19.230  0.00  0.00    +0.000 A 
ENDBRANCH   9  11
ENDBRANCH   1   8
BRANCH   4  21
ATOM     21  S   UNL     1       2.863   3.826  18.397  0.00  0.00    +0.000 S 
ATOM     22  O   UNL     1       2.851   2.900  19.520  0.00  0.00    +0.000 OA
ATOM     23  O   UNL     1       2.016   3.603  17.242  0.00  0.00    +0.000 OA
BRANCH  21  24
ATOM     24  N   UNL     1       4.488   4.005  17.869  0.00  0.00    +0.000 NA
ATOM     25  C   UNL     1       4.665   4.414  16.457  0.00  0.00    +0.000 C 
ATOM     26  C   UNL     1       5.929   3.845  15.815  0.00  0.00    +0.000 C 
ATOM     27  C   UNL     1       7.199   4.625  16.131  0.00  0.00    +0.000 C 
ATOM     28  C   UNL     1       7.586   4.591  17.599  0.00  0.00    +0.000 C 
ATOM     29  C   UNL     1       6.589   5.340  18.472  0.00  0.00    +0.000 C 
ATOM     30  C   UNL     1       5.417   4.486  18.921  0.00  0.00    +0.000 C 
ENDBRANCH  21  24
ENDBRANCH   4  21
TORSDOF 4
ENDMDL
MODEL 2
REMARK VINA RESULT:      -8.7      1.140      1.505
REMARK  Name = 
REMARK  4 active torsions:
REMARK  status: ('A' for Active; 'I' for Inactive)
REMARK    1  A    between atoms: C_2  and  C_14
REMARK    2  A    between atoms: N_3  and  C_4
REMARK    3  A    between atoms: C_17  and  S_18
REMARK    4  A    between atoms: S_18  and  N_21
REMARK                            x       y       z     vdW  Elec       q    Type
REMARK                         _______ _______ _______ _____ _____    ______ ____
ROOT
ATOM      1  C   UNL     1       1.698   7.396  20.277  0.00  0.00    +0.000 A 
ATOM      2  C   UNL     1       1.472   6.162  20.901  0.00  0.00    +0.000 A 
ATOM      3  C   UNL     1       1.781   4.975  20.250  0.00  0.00    +0.000 A 
ATOM      4  C   UNL     1       2.333   5.026  18.963  0.00  0.00    +0.000 A 
ATOM      5  C   UNL     1       2.583   6.260  18.345  0.00  0.00    +0.000 A 
ATOM      6  C   UNL     1       2.252   7.451  18.994  0.00  0.00    +0.000 A 
ENDROOT
BRANCH   1   8
ATOM      7  O   UNL     1       1.866   8.630  22.211  0.00  0.00    +0.000 OA
ATOM      8  C   UNL     1       1.417   8.607  21.072  0.00  0.00    +0.000 C 
ATOM      9  N   UNL     1       0.618   9.562  20.476  0.00  0.00    +0.000 N 
ATOM     10  H   UNL     1       0.093   9.329  19.639  0.00  0.00    +0.000 HD
BRANCH   9  11
ATOM     11  C   UNL     1       0.201  10.758  21.112  0.00  0.00    +0.000 A 
ATOM     12  C   UNL     1      -0.638  10.733  22.236  0.00  0.00    +0.000 A 
ATOM     13  C   UNL     1      -1.110  11.907  22.800  0.00  0.00    +0.000 A 
ATOM     14  C   UNL     1      -0.735  13.122  22.249  0.00  0.00    +0.000 A 
ATOM     15  C   UNL     1       0.121  13.164  21.137  0.00  0.00    +0.000 A 
ATOM     16  C   UNL     1       0.473  14.390  20.564  0.00  0.00    +0.000 A 
ATOM     17  C   UNL     1       1.303  14.422  19.452  0.00  0.00    +0.000 A 
ATOM     18  C   UNL     1       1.765  13.219  18.954  0.00  0.00    +0.000 A 
ATOM     19  N   UNL     1       1.447  12.010  19.476  0.00  0.00    +0.000 NA
ATOM     20  C   UNL     1       0.624  11.979  20.555  0.00  0.00    +0.000 A 
ENDBRANCH   9  11
ENDBRANCH   1   8
BRANCH   4  21
ATOM     21  S   UNL     1       2.863   3.516  18.164  0.00  0.00    +0.000 S 
ATOM     22  O   UNL     1       2.857   2.471  19.177  0.00  0.00    +0.000 OA
ATOM     23  O   UNL     1       2.085   3.376  16.949  0.00  0.00    +0.000 OA
BRANCH  21  24
ATOM     24  N   UNL     1       4.496   3.844  17.744  0.00  0.00    +0.000 NA
ATOM     25  C   UNL     1       4.717   4.369  16.377  0.00  0.00    +0.000 C 
ATOM     26  C   UNL     1       6.051   3.936  15.769  0.00  0.00    +0.000 C 
ATOM     27  C   UNL     1       7.243   4.774  16.213  0.00  0.00    +0.000 C 
ATOM     28  C   UNL     1       7.555   4.656  17.695  0.00  0.00    +0.000 C 
ATOM     29  C   UNL     1       6.462   5.267  18.560  0.00  0.00    +0.000 C 
ATOM     30  C   UNL     1       5.333   4.304  18.879  0.00  0.00    +0.000 C 
ENDBRANCH  21  24
ENDBRANCH   4  21
TORSDOF 4
ENDMDL
MODEL 3
REMARK VINA RESULT:      -8.5      1.425      2.237
REMARK  Name = 
REMARK  4 active torsions:
REMARK  status: ('A' for Active; 'I' for Inactive)
REMARK    1  A    between atoms: C_2  and  C_14
REMARK    2  A    between atoms: N_3  and  C_4
REMARK    3  A    between atoms: C_17  and  S_18
REMARK    4  A    between atoms: S_18  and  N_21
REMARK                            x       y       z     vdW  Elec       q    Type
REMARK                         _______ _______ _______ _____ _____    ______ ____
ROOT
ATOM      1  C   UNL     1       1.680   7.309  20.128  0.00  0.00    +0.000 A 
ATOM      2  C   UNL     1       2.236   7.334  18.842  0.00  0.00    +0.000 A 
ATOM      3  C   UNL     1       2.701   6.165  18.252  0.00  0.00    +0.000 A 
ATOM      4  C   UNL     1       2.597   4.957  18.955  0.00  0.00    +0.000 A 
ATOM      5  C   UNL     1       2.020   4.926  20.233  0.00  0.00    +0.000 A 
ATOM      6  C   UNL     1       1.573   6.105  20.831  0.00  0.00    +0.000 A 
ENDROOT
BRANCH   1   8
ATOM      7  O   UNL     1       0.816   8.599  21.826  0.00  0.00    +0.000 OA
ATOM      8  C   UNL     1       1.138   8.580  20.644  0.00  0.00    +0.000 C 
ATOM      9  N   UNL     1       0.981   9.599  19.726  0.00  0.00    +0.000 N 
ATOM     10  H   UNL     1       1.035   9.396  18.733  0.00  0.00    +0.000 HD
BRANCH   9  11
ATOM     11  C   UNL     1       0.424  10.866  20.033  0.00  0.00    +0.000 A 
ATOM     12  C   UNL     1       1.101  11.782  20.852  0.00  0.00    +0.000 A 
ATOM     13  C   UNL     1       0.515  12.982  21.216  0.00  0.00    +0.000 A 
ATOM     14  C   UNL     1      -0.756  13.285  20.750  0.00  0.00    +0.000 A 
ATOM     15  C   UNL     1      -1.437  12.389  19.912  0.00  0.00    +0.000 A 
ATOM     16  C   UNL     1      -2.731  12.682  19.469  0.00  0.00    +0.000 A 
ATOM     17  C   UNL     1      -3.406  11.780  18.658  0.00  0.00    +0.000 A 
ATOM     18  C   UNL     1      -2.755  10.613  18.305  0.00  0.00    +0.000 A 
ATOM     19  N   UNL     1      -1.505  10.289  18.713  0.00  0.00    +0.000 NA
ATOM     20  C   UNL     1      -0.851  11.164  19.519  0.00  0.00    +0.000 A 
ENDBRANCH   9  11
ENDBRANCH   1   8
BRANCH   4  21
ATOM     21  S   UNL     1       3.066   3.425  18.160  0.00  0.00    +0.000 S 
ATOM     22  O   UNL     1       3.154   2.412  19.201  0.00  0.00    +0.000 OA
ATOM     23  O   UNL     1       2.187   3.245  17.021  0.00  0.00    +0.000 OA
BRANCH  21  24
ATOM     24  N   UNL     1       4.655   3.745  17.591  0.00  0.00    +0.000 NA
ATOM     25  C   UNL     1       4.753   4.235  16.196  0.00  0.00    +0.000 C 
ATOM     26  C   UNL     1       6.031   3.789  15.486  0.00  0.00    +0.000 C 
ATOM     27  C   UNL     1       7.253   4.642  15.802  0.00  0.00    +0.000 C 
ATOM     28  C   UNL     1       7.694   4.563  17.254  0.00  0.00    +0.000 C 
ATOM     29  C   UNL     1       6.678   5.194  18.195  0.00  0.00    +0.000 C 
ATOM     30  C   UNL     1       5.585   4.238  18.636  0.00  0.00    +0.000 C 
ENDBRANCH  21  24
ENDBRANCH   4  21
TORSDOF 4
ENDMDL
MODEL 4
REMARK VINA RESULT:      -8.5      1.113      1.493
REMARK  Name = 
REMARK  4 active torsions:
REMARK  status: ('A' for Active; 'I' for Inactive)
REMARK    1  A    between atoms: C_2  and  C_14
REMARK    2  A    between atoms: N_3  and  C_4
REMARK    3  A    between atoms: C_17  and  S_18
REMARK    4  A    between atoms: S_18  and  N_21
REMARK                            x       y       z     vdW  Elec       q    Type
REMARK                         _______ _______ _______ _____ _____    ______ ____
ROOT
ATOM      1  C   UNL     1       1.715   7.469  20.568  0.00  0.00    +0.000 A 
ATOM      2  C   UNL     1       2.202   7.610  19.261  0.00  0.00    +0.000 A 
ATOM      3  C   UNL     1       2.564   6.493  18.519  0.00  0.00    +0.000 A 
ATOM      4  C   UNL     1       2.424   5.220  19.088  0.00  0.00    +0.000 A 
ATOM      5  C   UNL     1       1.914   5.075  20.387  0.00  0.00    +0.000 A 
ATOM      6  C   UNL     1       1.571   6.201  21.138  0.00  0.00    +0.000 A 
ENDROOT
BRANCH   1   8
ATOM      7  O   UNL     1       1.817   8.952  22.323  0.00  0.00    +0.000 OA
ATOM      8  C   UNL     1       1.278   8.701  21.253  0.00  0.00    +0.000 C 
ATOM      9  N   UNL     1       0.256   9.409  20.653  0.00  0.00    +0.000 N 
ATOM     10  H   UNL     1      -0.288   8.978  19.912  0.00  0.00    +0.000 HD
BRANCH   9  11
ATOM     11  C   UNL     1      -0.325  10.582  21.197  0.00  0.00    +0.000 A 
ATOM     12  C   UNL     1      -0.944  10.572  22.456  0.00  0.00    +0.000 A 
ATOM     13  C   UNL     1      -1.584  11.699  22.945  0.00  0.00    +0.000 A 
ATOM     14  C   UNL     1      -1.599  12.855  22.180  0.00  0.00    +0.000 A 
ATOM     15  C   UNL     1      -0.966  12.886  20.928  0.00  0.00    +0.000 A 
ATOM     16  C   UNL     1      -1.009  14.044  20.144  0.00  0.00    +0.000 A 
ATOM     17  C   UNL     1      -0.399  14.060  18.898  0.00  0.00    +0.000 A 
ATOM     18  C   UNL     1       0.249  12.913  18.479  0.00  0.00    +0.000 A 
ATOM     19  N   UNL     1       0.314  11.771  19.204  0.00  0.00    +0.000 NA
ATOM     20  C   UNL     1      -0.297  11.751  20.417  0.00  0.00    +0.000 A 
ENDBRANCH   9  11
ENDBRANCH   1   8
BRANCH   4  21
ATOM     21  S   UNL     1       2.755   3.765  18.102  0.00  0.00    +0.000 S 
ATOM     22  O   UNL     1       2.660   2.616  18.990  0.00  0.00    +0.000 OA
ATOM     23  O   UNL     1       1.932   3.855  16.913  0.00  0.00    +0.000 OA
BRANCH  21  24
ATOM     24  N   UNL     1       4.402   3.959  17.655  0.00  0.00    +0.000 NA
ATOM     25  C   UNL     1       4.643   4.429  16.270  0.00  0.00    +0.000 C 
ATOM     26  C   UNL     1       5.933   3.882  15.660  0.00  0.00    +0.000 C 
ATOM     27  C   UNL     1       7.189   4.641  16.065  0.00  0.00    +0.000 C 
ATOM     28  C   UNL     1       7.512   4.541  17.546  0.00  0.00    +0.000 C 
ATOM     29  C   UNL     1       6.479   5.255  18.407  0.00  0.00    +0.000 C 
ATOM     30  C   UNL     1       5.286   4.388  18.766  0.00  0.00    +0.000 C 
ENDBRANCH  21  24
ENDBRANCH   4  21
TORSDOF 4
ENDMDL
MODEL 5
REMARK VINA RESULT:      -8.4      1.340      2.024
REMARK  Name = 
REMARK  4 active torsions:
REMARK  status: ('A' for Active; 'I' for Inactive)
REMARK    1  A    between atoms: C_2  and  C_14
REMARK    2  A    between atoms: N_3  and  C_4
REMARK    3  A    between atoms: C_17  and  S_18
REMARK    4  A    between atoms: S_18  and  N_21
REMARK                            x       y       z     vdW  Elec       q    Type
REMARK                         _______ _______ _______ _____ _____    ______ ____
ROOT
ATOM      1  C   UNL     1       1.517   7.893  20.498  0.00  0.00    +0.000 A 
ATOM      2  C   UNL     1       1.345   6.650  21.123  0.00  0.00    +0.000 A 
ATOM      3  C   UNL     1       1.651   5.474  20.449  0.00  0.00    +0.000 A 
ATOM      4  C   UNL     1       2.145   5.547  19.139  0.00  0.00    +0.000 A 
ATOM      5  C   UNL     1       2.340   6.790  18.521  0.00  0.00    +0.000 A 
ATOM      6  C   UNL     1       2.011   7.969  19.193  0.00  0.00    +0.000 A 
ENDROOT
BRANCH   1   8
ATOM      7  O   UNL     1       1.833   9.170  22.385  0.00  0.00    +0.000 OA
ATOM      8  C   UNL     1       1.245   9.092  21.314  0.00  0.00    +0.000 C 
ATOM      9  N   UNL     1       0.301   9.970  20.821  0.00  0.00    +0.000 N 
ATOM     10  H   UNL     1      -0.307   9.682  20.061  0.00  0.00    +0.000 HD
BRANCH   9  11
ATOM     11  C   UNL     1      -0.125  11.142  21.497  0.00  0.00    +0.000 A 
ATOM     12  C   UNL     1      -1.125  11.094  22.479  0.00  0.00    +0.000 A 
ATOM     13  C   UNL     1      -1.596  12.252  23.075  0.00  0.00    +0.000 A 
ATOM     14  C   UNL     1      -1.059  13.474  22.699  0.00  0.00    +0.000 A 
ATOM     15  C   UNL     1      -0.042  13.536  21.733  0.00  0.00    +0.000 A 
ATOM     16  C   UNL     1       0.476  14.772  21.332  0.00  0.00    +0.000 A 
ATOM     17  C   UNL     1       1.466  14.825  20.361  0.00  0.00    +0.000 A 
ATOM     18  C   UNL     1       1.915  13.632  19.827  0.00  0.00    +0.000 A 
ATOM     19  N   UNL     1       1.439  12.415  20.183  0.00  0.00    +0.000 NA
ATOM     20  C   UNL     1       0.461  12.364  21.123  0.00  0.00    +0.000 A 
ENDBRANCH   9  11
ENDBRANCH   1   8
BRANCH   4  21
ATOM     21  S   UNL     1       2.671   4.054  18.306  0.00  0.00    +0.000 S 
ATOM     22  O   UNL     1       2.734   3.003  19.310  0.00  0.00    +0.000 OA
ATOM     23  O   UNL     1       1.843   3.905  17.126  0.00  0.00    +0.000 OA
BRANCH  21  24
ATOM     24  N   UNL     1       4.276   4.421  17.816  0.00  0.00    +0.000 NA
ATOM     25  C   UNL     1       5.332   4.162  18.822  0.00  0.00    +0.000 C 
ATOM     26  C   UNL     1       6.510   5.131  18.729  0.00  0.00    +0.000 C 
ATOM     27  C   UNL     1       7.533   4.774  17.659  0.00  0.00    +0.000 C 
ATOM     28  C   UNL     1       6.989   4.853  16.243  0.00  0.00    +0.000 C 
ATOM     29  C   UNL     1       5.937   3.786  15.974  0.00  0.00    +0.000 C 
ATOM     30  C   UNL     1       4.534   4.204  16.372  0.00  0.00    +0.000 C 
ENDBRANCH  21  24
ENDBRANCH   4  21
TORSDOF 4
ENDMDL
MODEL 6
REMARK VINA RESULT:      -8.3      0.481      1.230
REMARK  Name = 
REMARK  4 active torsions:
REMARK  status: ('A' for Active; 'I' for Inactive)
REMARK    1  A    between atoms: C_2  and  C_14
REMARK    2  A    between atoms: N_3  and  C_4
REMARK    3  A    between atoms: C_17  and  S_18
REMARK    4  A    between atoms: S_18  and  N_21
REMARK                            x       y       z     vdW  Elec       q    Type
REMARK                         _______ _______ _______ _____ _____    ______ ____
ROOT
ATOM      1  C   UNL     1       1.535   8.360  20.168  0.00  0.00    +0.000 A 
ATOM      2  C   UNL     1       2.063   8.271  18.873  0.00  0.00    +0.000 A 
ATOM      3  C   UNL     1       2.479   7.047  18.364  0.00  0.00    +0.000 A 
ATOM      4  C   UNL     1       2.352   5.899  19.158  0.00  0.00    +0.000 A 
ATOM      5  C   UNL     1       1.802   5.982  20.445  0.00  0.00    +0.000 A 
ATOM      6  C   UNL     1       1.405   7.217  20.962  0.00  0.00    +0.000 A 
ENDROOT
BRANCH   1   8
ATOM      7  O   UNL     1       1.154   9.950  21.787  0.00  0.00    +0.000 OA
ATOM      8  C   UNL     1       1.044   9.684  20.597  0.00  0.00    +0.000 C 
ATOM      9  N   UNL     1       0.444  10.461  19.627  0.00  0.00    +0.000 N 
ATOM     10  H   UNL     1       0.175  10.044  18.741  0.00  0.00    +0.000 HD
BRANCH   9  11
ATOM     11  C   UNL     1      -0.133  11.733  19.871  0.00  0.00    +0.000 A 
ATOM     12  C   UNL     1      -1.414  11.858  20.427  0.00  0.00    +0.000 A 
ATOM     13  C   UNL     1      -2.007  13.100  20.585  0.00  0.00    +0.000 A 
ATOM     14  C   UNL     1      -1.312  14.235  20.196  0.00  0.00    +0.000 A 
ATOM     15  C   UNL     1      -0.020  14.128  19.657  0.00  0.00    +0.000 A 
ATOM     16  C   UNL     1       0.666  15.272  19.236  0.00  0.00    +0.000 A 
ATOM     17  C   UNL     1       1.934  15.155  18.685  0.00  0.00    +0.000 A 
ATOM     18  C   UNL     1       2.483  13.891  18.583  0.00  0.00    +0.000 A 
ATOM     19  N   UNL     1       1.853  12.757  18.975  0.00  0.00    +0.000 NA
ATOM     20  C   UNL     1       0.606  12.871  19.501  0.00  0.00    +0.000 A 
ENDBRANCH   9  11
ENDBRANCH   1   8
BRANCH   4  21
ATOM     21  S   UNL     1       2.755   4.297  18.472  0.00  0.00    +0.000 S 
ATOM     22  O   UNL     1       2.840   3.364  19.585  0.00  0.00    +0.000 OA
ATOM     23  O   UNL     1       1.843   4.059  17.371  0.00  0.00    +0.000 OA
BRANCH  21  24
ATOM     24  N   UNL     1       4.338   4.524  17.843  0.00  0.00    +0.000 NA
ATOM     25  C   UNL     1       5.450   4.239  18.780  0.00  0.00    +0.000 C 
ATOM     26  C   UNL     1       6.679   5.117  18.546  0.00  0.00    +0.000 C 
ATOM     27  C   UNL     1       7.588   4.634  17.424  0.00  0.00    +0.000 C 
ATOM     28  C   UNL     1       6.941   4.681  16.050  0.00  0.00    +0.000 C 
ATOM     29  C   UNL     1       5.802   3.680  15.919  0.00  0.00    +0.000 C 
ATOM     30  C   UNL     1       4.465   4.217  16.398  0.00  0.00    +0.000 C 
ENDBRANCH  21  24
ENDBRANCH   4  21
TORSDOF 4
ENDMDL
MODEL 7
REMARK VINA RESULT:      -8.3      3.014      9.449
REMARK  Name = 
REMARK  4 active torsions:
REMARK  status: ('A' for Active; 'I' for Inactive)
REMARK    1  A    between atoms: C_2  and  C_14
REMARK    2  A    between atoms: N_3  and  C_4
REMARK    3  A    between atoms: C_17  and  S_18
REMARK    4  A    between atoms: S_18  and  N_21
REMARK                            x       y       z     vdW  Elec       q    Type
REMARK                         _______ _______ _______ _____ _____    ______ ____
ROOT
ATOM      1  C   UNL     1       1.523   8.411  19.860  0.00  0.00    +0.000 A 
ATOM      2  C   UNL     1       1.456   9.315  18.791  0.00  0.00    +0.000 A 
ATOM      3  C   UNL     1       1.031  10.622  18.998  0.00  0.00    +0.000 A 
ATOM      4  C   UNL     1       0.680  11.028  20.292  0.00  0.00    +0.000 A 
ATOM      5  C   UNL     1       0.768  10.132  21.367  0.00  0.00    +0.000 A 
ATOM      6  C   UNL     1       1.176   8.814  21.153  0.00  0.00    +0.000 A 
ENDROOT
BRANCH   1   8
ATOM      7  O   UNL     1       2.212   6.317  20.519  0.00  0.00    +0.000 OA
ATOM      8  C   UNL     1       2.062   7.070  19.565  0.00  0.00    +0.000 C 
ATOM      9  N   UNL     1       2.410   6.822  18.252  0.00  0.00    +0.000 N 
ATOM     10  H   UNL     1       2.486   7.594  17.597  0.00  0.00    +0.000 HD
BRANCH   9  11
ATOM     11  C   UNL     1       2.993   5.612  17.798  0.00  0.00    +0.000 A 
ATOM     12  C   UNL     1       2.262   4.416  17.769  0.00  0.00    +0.000 A 
ATOM     13  C   UNL     1       2.861   3.221  17.406  0.00  0.00    +0.000 A 
ATOM     14  C   UNL     1       4.202   3.216  17.054  0.00  0.00    +0.000 A 
ATOM     15  C   UNL     1       4.942   4.409  17.058  0.00  0.00    +0.000 A 
ATOM     16  C   UNL     1       6.303   4.396  16.733  0.00  0.00    +0.000 A 
ATOM     17  C   UNL     1       7.032   5.576  16.760  0.00  0.00    +0.000 A 
ATOM     18  C   UNL     1       6.370   6.740  17.101  0.00  0.00    +0.000 A 
ATOM     19  N   UNL     1       5.055   6.797  17.425  0.00  0.00    +0.000 NA
ATOM     20  C   UNL     1       4.345   5.639  17.413  0.00  0.00    +0.000 A 
ENDBRANCH   9  11
ENDBRANCH   1   8
BRANCH   4  21
ATOM     21  S   UNL     1       0.261  12.739  20.602  0.00  0.00    +0.000 S 
ATOM     22  O   UNL     1       1.168  13.222  21.632  0.00  0.00    +0.000 OA
ATOM     23  O   UNL     1       0.178  13.402  19.316  0.00  0.00    +0.000 OA
BRANCH  21  24
ATOM     24  N   UNL     1      -1.314  12.643  21.281  0.00  0.00    +0.000 NA
ATOM     25  C   UNL     1      -1.393  12.801  22.751  0.00  0.00    +0.000 C 
ATOM     26  C   UNL     1      -2.524  11.994  23.388  0.00  0.00    +0.000 C 
ATOM     27  C   UNL     1      -3.891  12.661  23.309  0.00  0.00    +0.000 C 
ATOM     28  C   UNL     1      -4.415  12.814  21.892  0.00  0.00    +0.000 C 
ATOM     29  C   UNL     1      -3.589  13.801  21.079  0.00  0.00    +0.000 C 
ATOM     30  C   UNL     1      -2.386  13.171  20.402  0.00  0.00    +0.000 C 
ENDBRANCH  21  24
ENDBRANCH   4  21
TORSDOF 4
ENDMDL
MODEL 8
REMARK VINA RESULT:      -8.3      1.149      1.901
REMARK  Name = 
REMARK  4 active torsions:
REMARK  status: ('A' for Active; 'I' for Inactive)
REMARK    1  A    between atoms: C_2  and  C_14
REMARK    2  A    between atoms: N_3  and  C_4
REMARK    3  A    between atoms: C_17  and  S_18
REMARK    4  A    between atoms: S_18  and  N_21
REMARK                            x       y       z     vdW  Elec       q    Type
REMARK                         _______ _______ _______ _____ _____    ______ ____
ROOT
ATOM      1  C   UNL     1       1.579   7.837  20.707  0.00  0.00    +0.000 A 
ATOM      2  C   UNL     1       2.180   7.977  19.448  0.00  0.00    +0.000 A 
ATOM      3  C   UNL     1       2.560   6.856  18.720  0.00  0.00    +0.000 A 
ATOM      4  C   UNL     1       2.324   5.582  19.254  0.00  0.00    +0.000 A 
ATOM      5  C   UNL     1       1.701   5.440  20.503  0.00  0.00    +0.000 A 
ATOM      6  C   UNL     1       1.340   6.568  21.242  0.00  0.00    +0.000 A 
ENDROOT
BRANCH   1   8
ATOM      7  O   UNL     1       1.708   9.374  22.414  0.00  0.00    +0.000 OA
ATOM      8  C   UNL     1       1.135   9.075  21.374  0.00  0.00    +0.000 C 
ATOM      9  N   UNL     1       0.069   9.736  20.796  0.00  0.00    +0.000 N 
ATOM     10  H   UNL     1      -0.491   9.269  20.090  0.00  0.00    +0.000 HD
BRANCH   9  11
ATOM     11  C   UNL     1      -0.524  10.908  21.330  0.00  0.00    +0.000 A 
ATOM     12  C   UNL     1      -1.196  10.889  22.561  0.00  0.00    +0.000 A 
ATOM     13  C   UNL     1      -1.847  12.015  23.037  0.00  0.00    +0.000 A 
ATOM     14  C   UNL     1      -1.819  13.181  22.286  0.00  0.00    +0.000 A 
ATOM     15  C   UNL     1      -1.132  13.222  21.062  0.00  0.00    +0.000 A 
ATOM     16  C   UNL     1      -1.132  14.389  20.292  0.00  0.00    +0.000 A 
ATOM     17  C   UNL     1      -0.469  14.415  19.073  0.00  0.00    +0.000 A 
ATOM     18  C   UNL     1       0.187  13.267  18.668  0.00  0.00    +0.000 A 
ATOM     19  N   UNL     1       0.210  12.115  19.381  0.00  0.00    +0.000 NA
ATOM     20  C   UNL     1      -0.452  12.087  20.566  0.00  0.00    +0.000 A 
ENDBRANCH   9  11
ENDBRANCH   1   8
BRANCH   4  21
ATOM     21  S   UNL     1       2.681   4.129  18.275  0.00  0.00    +0.000 S 
ATOM     22  O   UNL     1       2.728   2.998  19.189  0.00  0.00    +0.000 OA
ATOM     23  O   UNL     1       1.770   4.135  17.148  0.00  0.00    +0.000 OA
BRANCH  21  24
ATOM     24  N   UNL     1       4.275   4.420  17.704  0.00  0.00    +0.000 NA
ATOM     25  C   UNL     1       5.365   4.141  18.667  0.00  0.00    +0.000 C 
ATOM     26  C   UNL     1       6.574   5.061  18.497  0.00  0.00    +0.000 C 
ATOM     27  C   UNL     1       7.532   4.639  17.391  0.00  0.00    +0.000 C 
ATOM     28  C   UNL     1       6.926   4.707  15.999  0.00  0.00    +0.000 C 
ATOM     29  C   UNL     1       5.823   3.677  15.804  0.00  0.00    +0.000 C 
ATOM     30  C   UNL     1       4.456   4.160  16.255  0.00  0.00    +0.000 C 
ENDBRANCH  21  24
ENDBRANCH   4  21
TORSDOF 4
ENDMDL
MODEL 9
REMARK VINA RESULT:      -8.3      1.744      2.756
REMARK  Name = 
REMARK  4 active torsions:
REMARK  status: ('A' for Active; 'I' for Inactive)
REMARK    1  A    between atoms: C_2  and  C_14
REMARK    2  A    between atoms: N_3  and  C_4
REMARK    3  A    between atoms: C_17  and  S_18
REMARK    4  A    between atoms: S_18  and  N_21
REMARK                            x       y       z     vdW  Elec       q    Type
REMARK                         _______ _______ _______ _____ _____    ______ ____
ROOT
ATOM      1  C   UNL     1       1.829   7.249  20.166  0.00  0.00    +0.000 A 
ATOM      2  C   UNL     1       2.630   7.357  19.021  0.00  0.00    +0.000 A 
ATOM      3  C   UNL     1       3.393   6.279  18.589  0.00  0.00    +0.000 A 
ATOM      4  C   UNL     1       3.345   5.077  19.308  0.00  0.00    +0.000 A 
ATOM      5  C   UNL     1       2.526   4.959  20.441  0.00  0.00    +0.000 A 
ATOM      6  C   UNL     1       1.776   6.050  20.884  0.00  0.00    +0.000 A 
ENDROOT
BRANCH   1   8
ATOM      7  O   UNL     1       0.419   8.381  21.587  0.00  0.00    +0.000 OA
ATOM      8  C   UNL     1       0.990   8.413  20.505  0.00  0.00    +0.000 C 
ATOM      9  N   UNL     1       0.876   9.391  19.537  0.00  0.00    +0.000 N 
ATOM     10  H   UNL     1       1.178   9.198  18.587  0.00  0.00    +0.000 HD
BRANCH   9  11
ATOM     11  C   UNL     1       0.069  10.550  19.667  0.00  0.00    +0.000 A 
ATOM     12  C   UNL     1       0.334  11.516  20.649  0.00  0.00    +0.000 A 
ATOM     13  C   UNL     1      -0.507  12.602  20.827  0.00  0.00    +0.000 A 
ATOM     14  C   UNL     1      -1.619  12.737  20.011  0.00  0.00    +0.000 A 
ATOM     15  C   UNL     1      -1.886  11.790  19.010  0.00  0.00    +0.000 A 
ATOM     16  C   UNL     1      -3.027  11.912  18.209  0.00  0.00    +0.000 A 
ATOM     17  C   UNL     1      -3.294  10.959  17.236  0.00  0.00    +0.000 A 
ATOM     18  C   UNL     1      -2.401   9.916  17.088  0.00  0.00    +0.000 A 
ATOM     19  N   UNL     1      -1.287   9.758  17.843  0.00  0.00    +0.000 NA
ATOM     20  C   UNL     1      -1.033  10.682  18.805  0.00  0.00    +0.000 A 
ENDBRANCH   9  11
ENDBRANCH   1   8
BRANCH   4  21
ATOM     21  S   UNL     1       4.214   3.640  18.693  0.00  0.00    +0.000 S 
ATOM     22  O   UNL     1       5.133   3.216  19.739  0.00  0.00    +0.000 OA
ATOM     23  O   UNL     1       3.218   2.728  18.166  0.00  0.00    +0.000 OA
BRANCH  21  24
ATOM     24  N   UNL     1       5.140   4.267  17.390  0.00  0.00    +0.000 NA
ATOM     25  C   UNL     1       6.563   4.551  17.688  0.00  0.00    +0.000 C 
ATOM     26  C   UNL     1       7.124   5.732  16.898  0.00  0.00    +0.000 C 
ATOM     27  C   UNL     1       7.559   5.387  15.480  0.00  0.00    +0.000 C 
ATOM     28  C   UNL     1       6.414   4.961  14.577  0.00  0.00    +0.000 C 
ATOM     29  C   UNL     1       5.815   3.629  15.003  0.00  0.00    +0.000 C 
ATOM     30  C   UNL     1       4.730   3.762  16.057  0.00  0.00    +0.000 C 
ENDBRANCH  21  24
ENDBRANCH   4  21
TORSDOF 4
ENDMDL
