MODEL 1
REMARK VINA RESULT:      -8.0      0.000      0.000
REMARK  Name = 
REMARK  9 active torsions:
REMARK  status: ('A' for Active; 'I' for Inactive)
REMARK    1  A    between atoms: C_1  and  C_2
REMARK    2  A    between atoms: C_3  and  C_4
REMARK    3  A    between atoms: C_4  and  C_5
REMARK    4  A    between atoms: C_4  and  C_6
REMARK    5  A    between atoms: N_11  and  C_12
REMARK    6  A    between atoms: C_16  and  C_17
REMARK    7  A    between atoms: C_17  and  C_18
REMARK    8  A    between atoms: C_18  and  C_19
REMARK    9  A    between atoms: N_23  and  C_24
REMARK                            x       y       z     vdW  Elec       q    Type
REMARK                         _______ _______ _______ _____ _____    ______ ____
ROOT
ATOM      1  C   UNL     1       0.772   9.606  19.271  0.00  0.00    +0.000 A 
ATOM      2  C   UNL     1       0.456   9.444  20.620  0.00  0.00    +0.000 A 
ATOM      3  C   UNL     1       1.008   8.398  21.351  0.00  0.00    +0.000 A 
ATOM      4  C   UNL     1       1.842   7.475  20.724  0.00  0.00    +0.000 A 
ATOM      5  C   UNL     1       2.131   7.550  19.349  0.00  0.00    +0.000 A 
ATOM      6  C   UNL     1       1.609   8.668  18.658  0.00  0.00    +0.000 A 
ENDROOT
BRANCH   1  14
ATOM      7  C   UNL     1      -3.164   9.626  17.735  0.00  0.00    +0.000 C 
ATOM      8  C   UNL     1      -2.194  10.712  18.147  0.00  0.00    +0.000 C 
ATOM      9  C   UNL     1      -2.516  11.781  18.925  0.00  0.00    +0.000 C 
ATOM     10  C   UNL     1      -1.545  12.920  19.248  0.00  0.00    +0.000 C 
ATOM     11  C   UNL     1      -0.280  13.082  18.400  0.00  0.00    +0.000 C 
ATOM     12  C   UNL     1       0.718  12.000  18.754  0.00  0.00    +0.000 C 
ATOM     13  O   UNL     1       1.790  12.294  19.282  0.00  0.00    +0.000 OA
ATOM     14  N   UNL     1       0.247  10.707  18.543  0.00  0.00    +0.000 N 
ATOM     15  C   UNL     1      -0.818  10.448  17.580  0.00  0.00    +0.000 C 
BRANCH   9  16
ATOM     16  C   UNL     1      -3.908  11.914  19.567  0.00  0.00    +0.000 C 
ATOM     17  C   UNL     1      -3.958  12.818  20.806  0.00  0.00    +0.000 C 
ATOM     18  C   UNL     1      -4.942  12.378  18.539  0.00  0.00    +0.000 C 
ENDBRANCH   9  16
ENDBRANCH   1  14
BRANCH   5  19
ATOM     19  C   UNL     1       2.916   6.399  18.562  0.00  0.00    +0.000 C 
ATOM     20  C   UNL     1       4.088   5.785  19.384  0.00  0.00    +0.000 C 
ATOM     21  O   UNL     1       4.942   5.774  18.215  0.00  0.00    +0.000 OA
ATOM     22  C   UNL     1       4.071   6.758  17.586  0.00  0.00    +0.000 C 
BRANCH  19  23
ATOM     23  C   UNL     1       1.979   5.307  18.020  0.00  0.00    +0.000 C 
BRANCH  23  24
ATOM     24  C   UNL     1       1.791   4.155  18.953  0.00  0.00    +0.000 A 
ATOM     25  N   UNL     1       1.014   4.136  20.020  0.00  0.00    +0.000 NA
ATOM     26  N   UNL     1       1.041   2.868  20.552  0.00  0.00    +0.000 NA
ATOM     27  C   UNL     1       1.835   2.141  19.803  0.00  0.00    +0.000 A 
ATOM     28  N   UNL     1       2.346   2.909  18.801  0.00  0.00    +0.000 N 
ATOM     29  C   UNL     1       3.264   2.465  17.788  0.00  0.00    +0.000 C 
ENDBRANCH  23  24
ENDBRANCH  19  23
ENDBRANCH   5  19
TORSDOF 5
ENDMDL
MODEL 2
REMARK VINA RESULT:      -7.3      2.856      8.705
REMARK  Name = 
REMARK  9 active torsions:
REMARK  status: ('A' for Active; 'I' for Inactive)
REMARK    1  A    between atoms: C_1  and  C_2
REMARK    2  A    between atoms: C_3  and  C_4
REMARK    3  A    between atoms: C_4  and  C_5
REMARK    4  A    between atoms: C_4  and  C_6
REMARK    5  A    between atoms: N_11  and  C_12
REMARK    6  A    between atoms: C_16  and  C_17
REMARK    7  A    between atoms: C_17  and  C_18
REMARK    8  A    between atoms: C_18  and  C_19
REMARK    9  A    between atoms: N_23  and  C_24
REMARK                            x       y       z     vdW  Elec       q    Type
REMARK                         _______ _______ _______ _____ _____    ______ ____
ROOT
ATOM      1  C   UNL     1       2.267   7.463  18.777  0.00  0.00    +0.000 A 
ATOM      2  C   UNL     1       2.472   8.344  17.715  0.00  0.00    +0.000 A 
ATOM      3  C   UNL     1       2.050   9.666  17.805  0.00  0.00    +0.000 A 
ATOM      4  C   UNL     1       1.374  10.104  18.941  0.00  0.00    +0.000 A 
ATOM      5  C   UNL     1       1.075   9.236  20.009  0.00  0.00    +0.000 A 
ATOM      6  C   UNL     1       1.584   7.920  19.908  0.00  0.00    +0.000 A 
ENDROOT
BRANCH   1  14
ATOM      7  C   UNL     1       5.104   6.248  15.893  0.00  0.00    +0.000 C 
ATOM      8  C   UNL     1       4.725   5.742  17.267  0.00  0.00    +0.000 C 
ATOM      9  C   UNL     1       5.615   5.421  18.246  0.00  0.00    +0.000 C 
ATOM     10  C   UNL     1       5.214   4.818  19.595  0.00  0.00    +0.000 C 
ATOM     11  C   UNL     1       3.818   4.208  19.751  0.00  0.00    +0.000 C 
ATOM     12  C   UNL     1       2.781   5.310  19.825  0.00  0.00    +0.000 C 
ATOM     13  O   UNL     1       2.136   5.485  20.859  0.00  0.00    +0.000 OA
ATOM     14  N   UNL     1       2.747   6.128  18.700  0.00  0.00    +0.000 N 
ATOM     15  C   UNL     1       3.223   5.643  17.409  0.00  0.00    +0.000 C 
BRANCH   9  16
ATOM     16  C   UNL     1       7.123   5.667  18.068  0.00  0.00    +0.000 C 
ATOM     17  C   UNL     1       7.877   5.991  19.366  0.00  0.00    +0.000 C 
ATOM     18  C   UNL     1       7.789   4.487  17.357  0.00  0.00    +0.000 C 
ENDBRANCH   9  16
ENDBRANCH   1  14
BRANCH   5  19
ATOM     19  C   UNL     1       0.130   9.654  21.230  0.00  0.00    +0.000 C 
ATOM     20  C   UNL     1       0.912   9.894  22.555  0.00  0.00    +0.000 C 
ATOM     21  O   UNL     1      -0.107   9.201  23.316  0.00  0.00    +0.000 OA
ATOM     22  C   UNL     1      -0.574   8.568  22.091  0.00  0.00    +0.000 C 
BRANCH  19  23
ATOM     23  C   UNL     1      -0.780  10.847  20.893  0.00  0.00    +0.000 C 
BRANCH  23  24
ATOM     24  C   UNL     1      -0.456  12.089  21.657  0.00  0.00    +0.000 A 
ATOM     25  N   UNL     1       0.606  12.855  21.485  0.00  0.00    +0.000 NA
ATOM     26  N   UNL     1       0.490  13.948  22.311  0.00  0.00    +0.000 NA
ATOM     27  C   UNL     1      -0.637  13.828  22.971  0.00  0.00    +0.000 A 
ATOM     28  N   UNL     1      -1.253  12.668  22.612  0.00  0.00    +0.000 N 
ATOM     29  C   UNL     1      -2.504  12.186  23.134  0.00  0.00    +0.000 C 
ENDBRANCH  23  24
ENDBRANCH  19  23
ENDBRANCH   5  19
TORSDOF 5
ENDMDL
MODEL 3
REMARK VINA RESULT:      -7.2      2.062      2.607
REMARK  Name = 
REMARK  9 active torsions:
REMARK  status: ('A' for Active; 'I' for Inactive)
REMARK    1  A    between atoms: C_1  and  C_2
REMARK    2  A    between atoms: C_3  and  C_4
REMARK    3  A    between atoms: C_4  and  C_5
REMARK    4  A    between atoms: C_4  and  C_6
REMARK    5  A    between atoms: N_11  and  C_12
REMARK    6  A    between atoms: C_16  and  C_17
REMARK    7  A    between atoms: C_17  and  C_18
REMARK    8  A    between atoms: C_18  and  C_19
REMARK    9  A    between atoms: N_23  and  C_24
REMARK                            x       y       z     vdW  Elec       q    Type
REMARK                         _______ _______ _______ _____ _____    ______ ____
ROOT
ATOM      1  C   UNL     1       0.883   9.458  19.303  0.00  0.00    +0.000 A 
ATOM      2  C   UNL     1       0.507   9.313  20.639  0.00  0.00    +0.000 A 
ATOM      3  C   UNL     1       1.014   8.268  21.403  0.00  0.00    +0.000 A 
ATOM      4  C   UNL     1       1.862   7.329  20.822  0.00  0.00    +0.000 A 
ATOM      5  C   UNL     1       2.211   7.386  19.460  0.00  0.00    +0.000 A 
ATOM      6  C   UNL     1       1.733   8.504  18.736  0.00  0.00    +0.000 A 
ENDROOT
BRANCH   1  14
ATOM      7  C   UNL     1      -3.032   9.571  17.718  0.00  0.00    +0.000 C 
ATOM      8  C   UNL     1      -2.031  10.634  18.116  0.00  0.00    +0.000 C 
ATOM      9  C   UNL     1      -2.326  11.732  18.864  0.00  0.00    +0.000 C 
ATOM     10  C   UNL     1      -1.321  12.846  19.173  0.00  0.00    +0.000 C 
ATOM     11  C   UNL     1      -0.041  12.945  18.336  0.00  0.00    +0.000 C 
ATOM     12  C   UNL     1       0.915  11.839  18.728  0.00  0.00    +0.000 C 
ATOM     13  O   UNL     1       1.991  12.110  19.263  0.00  0.00    +0.000 OA
ATOM     14  N   UNL     1       0.403  10.558  18.542  0.00  0.00    +0.000 N 
ATOM     15  C   UNL     1      -0.658  10.311  17.573  0.00  0.00    +0.000 C 
BRANCH   9  16
ATOM     16  C   UNL     1      -3.720  11.927  19.486  0.00  0.00    +0.000 C 
ATOM     17  C   UNL     1      -3.784  12.984  20.597  0.00  0.00    +0.000 C 
ATOM     18  C   UNL     1      -4.760  12.238  18.408  0.00  0.00    +0.000 C 
ENDBRANCH   9  16
ENDBRANCH   1  14
BRANCH   5  19
ATOM     19  C   UNL     1       3.015   6.218  18.718  0.00  0.00    +0.000 C 
ATOM     20  C   UNL     1       2.085   5.210  17.978  0.00  0.00    +0.000 C 
ATOM     21  O   UNL     1       2.881   4.092  18.440  0.00  0.00    +0.000 OA
ATOM     22  C   UNL     1       3.434   4.935  19.491  0.00  0.00    +0.000 C 
BRANCH  19  23
ATOM     23  C   UNL     1       4.114   6.754  17.788  0.00  0.00    +0.000 C 
BRANCH  23  24
ATOM     24  C   UNL     1       5.388   5.975  17.846  0.00  0.00    +0.000 A 
ATOM     25  N   UNL     1       6.256   5.974  18.841  0.00  0.00    +0.000 NA
ATOM     26  N   UNL     1       7.242   5.059  18.555  0.00  0.00    +0.000 NA
ATOM     27  C   UNL     1       6.959   4.523  17.393  0.00  0.00    +0.000 A 
ATOM     28  N   UNL     1       5.818   5.081  16.899  0.00  0.00    +0.000 N 
ATOM     29  C   UNL     1       5.203   4.756  15.641  0.00  0.00    +0.000 C 
ENDBRANCH  23  24
ENDBRANCH  19  23
ENDBRANCH   5  19
TORSDOF 5
ENDMDL
MODEL 4
REMARK VINA RESULT:      -7.2      0.906      1.352
REMARK  Name = 
REMARK  9 active torsions:
REMARK  status: ('A' for Active; 'I' for Inactive)
REMARK    1  A    between atoms: C_1  and  C_2
REMARK    2  A    between atoms: C_3  and  C_4
REMARK    3  A    between atoms: C_4  and  C_5
REMARK    4  A    between atoms: C_4  and  C_6
REMARK    5  A    between atoms: N_11  and  C_12
REMARK    6  A    between atoms: C_16  and  C_17
REMARK    7  A    between atoms: C_17  and  C_18
REMARK    8  A    between atoms: C_18  and  C_19
REMARK    9  A    between atoms: N_23  and  C_24
REMARK                            x       y       z     vdW  Elec       q    Type
REMARK                         _______ _______ _______ _____ _____    ______ ____
ROOT
ATOM      1  C   UNL     1       0.901   9.550  19.712  0.00  0.00    +0.000 A 
ATOM      2  C   UNL     1       0.456   9.166  20.978  0.00  0.00    +0.000 A 
ATOM      3  C   UNL     1       0.870   7.961  21.534  0.00  0.00    +0.000 A 
ATOM      4  C   UNL     1       1.692   7.105  20.806  0.00  0.00    +0.000 A 
ATOM      5  C   UNL     1       2.107   7.409  19.496  0.00  0.00    +0.000 A 
ATOM      6  C   UNL     1       1.724   8.676  18.996  0.00  0.00    +0.000 A 
ENDROOT
BRANCH   1  14
ATOM      7  C   UNL     1      -2.168   9.926  16.833  0.00  0.00    +0.000 C 
ATOM      8  C   UNL     1      -1.586  10.858  17.873  0.00  0.00    +0.000 C 
ATOM      9  C   UNL     1      -2.323  11.621  18.726  0.00  0.00    +0.000 C 
ATOM     10  C   UNL     1      -1.716  12.632  19.703  0.00  0.00    +0.000 C 
ATOM     11  C   UNL     1      -0.269  13.089  19.496  0.00  0.00    +0.000 C 
ATOM     12  C   UNL     1       0.683  11.982  19.897  0.00  0.00    +0.000 C 
ATOM     13  O   UNL     1       1.434  12.130  20.861  0.00  0.00    +0.000 OA
ATOM     14  N   UNL     1       0.518  10.806  19.172  0.00  0.00    +0.000 N 
ATOM     15  C   UNL     1      -0.075  10.828  17.839  0.00  0.00    +0.000 C 
BRANCH   9  16
ATOM     16  C   UNL     1      -3.856  11.505  18.784  0.00  0.00    +0.000 C 
ATOM     17  C   UNL     1      -4.523  12.363  19.868  0.00  0.00    +0.000 C 
ATOM     18  C   UNL     1      -4.479  11.807  17.420  0.00  0.00    +0.000 C 
ENDBRANCH   9  16
ENDBRANCH   1  14
BRANCH   5  19
ATOM     19  C   UNL     1       2.881   6.363  18.564  0.00  0.00    +0.000 C 
ATOM     20  C   UNL     1       4.011   5.596  19.313  0.00  0.00    +0.000 C 
ATOM     21  O   UNL     1       4.896   5.732  18.174  0.00  0.00    +0.000 OA
ATOM     22  C   UNL     1       4.073   6.826  17.680  0.00  0.00    +0.000 C 
BRANCH  19  23
ATOM     23  C   UNL     1       1.928   5.395  17.844  0.00  0.00    +0.000 C 
BRANCH  23  24
ATOM     24  C   UNL     1       2.219   3.954  18.107  0.00  0.00    +0.000 A 
ATOM     25  N   UNL     1       2.989   3.169  17.376  0.00  0.00    +0.000 NA
ATOM     26  N   UNL     1       3.079   1.947  18.001  0.00  0.00    +0.000 NA
ATOM     27  C   UNL     1       2.361   2.009  19.096  0.00  0.00    +0.000 A 
ATOM     28  N   UNL     1       1.785   3.240  19.194  0.00  0.00    +0.000 N 
ATOM     29  C   UNL     1       0.917   3.677  20.254  0.00  0.00    +0.000 C 
ENDBRANCH  23  24
ENDBRANCH  19  23
ENDBRANCH   5  19
TORSDOF 5
ENDMDL
MODEL 5
REMARK VINA RESULT:      -7.2      2.734      8.534
REMARK  Name = 
REMARK  9 active torsions:
REMARK  status: ('A' for Active; 'I' for Inactive)
REMARK    1  A    between atoms: C_1  and  C_2
REMARK    2  A    between atoms: C_3  and  C_4
REMARK    3  A    between atoms: C_4  and  C_5
REMARK    4  A    between atoms: C_4  and  C_6
REMARK    5  A    between atoms: N_11  and  C_12
REMARK    6  A    between atoms: C_16  and  C_17
REMARK    7  A    between atoms: C_17  and  C_18
REMARK    8  A    between atoms: C_18  and  C_19
REMARK    9  A    between atoms: N_23  and  C_24
REMARK                            x       y       z     vdW  Elec       q    Type
REMARK                         _______ _______ _______ _____ _____    ______ ____
ROOT
ATOM      1  C   UNL     1       2.209   7.462  18.785  0.00  0.00    +0.000 A 
ATOM      2  C   UNL     1       2.159   8.257  17.639  0.00  0.00    +0.000 A 
ATOM      3  C   UNL     1       1.750   9.583  17.720  0.00  0.00    +0.000 A 
ATOM      4  C   UNL     1       1.338  10.111  18.941  0.00  0.00    +0.000 A 
ATOM      5  C   UNL     1       1.297   9.330  20.112  0.00  0.00    +0.000 A 
ATOM      6  C   UNL     1       1.789   8.008  20.001  0.00  0.00    +0.000 A 
ENDROOT
BRANCH   1  14
ATOM      7  C   UNL     1       5.088   6.245  15.943  0.00  0.00    +0.000 C 
ATOM      8  C   UNL     1       4.679   5.732  17.306  0.00  0.00    +0.000 C 
ATOM      9  C   UNL     1       5.547   5.394  18.298  0.00  0.00    +0.000 C 
ATOM     10  C   UNL     1       5.116   4.783  19.634  0.00  0.00    +0.000 C 
ATOM     11  C   UNL     1       3.711   4.185  19.759  0.00  0.00    +0.000 C 
ATOM     12  C   UNL     1       2.684   5.295  19.824  0.00  0.00    +0.000 C 
ATOM     13  O   UNL     1       2.021   5.468  20.847  0.00  0.00    +0.000 OA
ATOM     14  N   UNL     1       2.678   6.123  18.705  0.00  0.00    +0.000 N 
ATOM     15  C   UNL     1       3.174   5.646  17.419  0.00  0.00    +0.000 C 
BRANCH   9  16
ATOM     16  C   UNL     1       7.061   5.627  18.151  0.00  0.00    +0.000 C 
ATOM     17  C   UNL     1       7.798   5.903  19.469  0.00  0.00    +0.000 C 
ATOM     18  C   UNL     1       7.724   4.461  17.414  0.00  0.00    +0.000 C 
ENDBRANCH   9  16
ENDBRANCH   1  14
BRANCH   5  19
ATOM     19  C   UNL     1       0.642   9.846  21.478  0.00  0.00    +0.000 C 
ATOM     20  C   UNL     1       1.356   9.291  22.746  0.00  0.00    +0.000 C 
ATOM     21  O   UNL     1       0.083   9.060  23.397  0.00  0.00    +0.000 OA
ATOM     22  C   UNL     1      -0.575   9.103  22.099  0.00  0.00    +0.000 C 
BRANCH  19  23
ATOM     23  C   UNL     1       0.512  11.376  21.532  0.00  0.00    +0.000 C 
BRANCH  23  24
ATOM     24  C   UNL     1      -0.838  11.855  21.957  0.00  0.00    +0.000 A 
ATOM     25  N   UNL     1      -1.204  12.157  23.189  0.00  0.00    +0.000 NA
ATOM     26  N   UNL     1      -2.488  12.647  23.150  0.00  0.00    +0.000 NA
ATOM     27  C   UNL     1      -2.880  12.631  21.899  0.00  0.00    +0.000 A 
ATOM     28  N   UNL     1      -1.889  12.122  21.117  0.00  0.00    +0.000 N 
ATOM     29  C   UNL     1      -1.955  11.936  19.693  0.00  0.00    +0.000 C 
ENDBRANCH  23  24
ENDBRANCH  19  23
ENDBRANCH   5  19
TORSDOF 5
ENDMDL
MODEL 6
REMARK VINA RESULT:      -7.1      0.801      1.398
REMARK  Name = 
REMARK  9 active torsions:
REMARK  status: ('A' for Active; 'I' for Inactive)
REMARK    1  A    between atoms: C_1  and  C_2
REMARK    2  A    between atoms: C_3  and  C_4
REMARK    3  A    between atoms: C_4  and  C_5
REMARK    4  A    between atoms: C_4  and  C_6
REMARK    5  A    between atoms: N_11  and  C_12
REMARK    6  A    between atoms: C_16  and  C_17
REMARK    7  A    between atoms: C_17  and  C_18
REMARK    8  A    between atoms: C_18  and  C_19
REMARK    9  A    between atoms: N_23  and  C_24
REMARK                            x       y       z     vdW  Elec       q    Type
REMARK                         _______ _______ _______ _____ _____    ______ ____
ROOT
ATOM      1  C   UNL     1       0.682   9.592  19.392  0.00  0.00    +0.000 A 
ATOM      2  C   UNL     1       0.243   9.434  20.708  0.00  0.00    +0.000 A 
ATOM      3  C   UNL     1       0.754   8.415  21.503  0.00  0.00    +0.000 A 
ATOM      4  C   UNL     1       1.672   7.511  20.972  0.00  0.00    +0.000 A 
ATOM      5  C   UNL     1       2.089   7.580  19.629  0.00  0.00    +0.000 A 
ATOM      6  C   UNL     1       1.601   8.674  18.876  0.00  0.00    +0.000 A 
ENDROOT
BRANCH   1  14
ATOM      7  C   UNL     1      -3.167   9.553  17.651  0.00  0.00    +0.000 C 
ATOM      8  C   UNL     1      -2.221  10.654  18.078  0.00  0.00    +0.000 C 
ATOM      9  C   UNL     1      -2.584  11.747  18.802  0.00  0.00    +0.000 C 
ATOM     10  C   UNL     1      -1.632  12.898  19.139  0.00  0.00    +0.000 C 
ATOM     11  C   UNL     1      -0.324  13.035  18.354  0.00  0.00    +0.000 C 
ATOM     12  C   UNL     1       0.655  11.967  18.795  0.00  0.00    +0.000 C 
ATOM     13  O   UNL     1       1.697  12.281  19.370  0.00  0.00    +0.000 OA
ATOM     14  N   UNL     1       0.195  10.667  18.602  0.00  0.00    +0.000 N 
ATOM     15  C   UNL     1      -0.817  10.375  17.593  0.00  0.00    +0.000 C 
BRANCH   9  16
ATOM     16  C   UNL     1      -4.008  11.898  19.365  0.00  0.00    +0.000 C 
ATOM     17  C   UNL     1      -4.128  12.865  20.552  0.00  0.00    +0.000 C 
ATOM     18  C   UNL     1      -4.992  12.297  18.264  0.00  0.00    +0.000 C 
ENDBRANCH   9  16
ENDBRANCH   1  14
BRANCH   5  19
ATOM     19  C   UNL     1       2.980   6.445  18.937  0.00  0.00    +0.000 C 
ATOM     20  C   UNL     1       4.110   7.022  18.032  0.00  0.00    +0.000 C 
ATOM     21  O   UNL     1       3.848   6.021  17.018  0.00  0.00    +0.000 OA
ATOM     22  C   UNL     1       2.531   5.797  17.597  0.00  0.00    +0.000 C 
BRANCH  19  23
ATOM     23  C   UNL     1       3.535   5.430  19.948  0.00  0.00    +0.000 C 
BRANCH  23  24
ATOM     24  C   UNL     1       3.297   4.005  19.567  0.00  0.00    +0.000 A 
ATOM     25  N   UNL     1       4.175   3.190  19.012  0.00  0.00    +0.000 NA
ATOM     26  N   UNL     1       3.603   1.944  18.907  0.00  0.00    +0.000 NA
ATOM     27  C   UNL     1       2.389   2.023  19.397  0.00  0.00    +0.000 A 
ATOM     28  N   UNL     1       2.144   3.300  19.803  0.00  0.00    +0.000 N 
ATOM     29  C   UNL     1       0.916   3.775  20.381  0.00  0.00    +0.000 C 
ENDBRANCH  23  24
ENDBRANCH  19  23
ENDBRANCH   5  19
TORSDOF 5
ENDMDL
MODEL 7
REMARK VINA RESULT:      -7.1      2.586      8.571
REMARK  Name = 
REMARK  9 active torsions:
REMARK  status: ('A' for Active; 'I' for Inactive)
REMARK    1  A    between atoms: C_1  and  C_2
REMARK    2  A    between atoms: C_3  and  C_4
REMARK    3  A    between atoms: C_4  and  C_5
REMARK    4  A    between atoms: C_4  and  C_6
REMARK    5  A    between atoms: N_11  and  C_12
REMARK    6  A    between atoms: C_16  and  C_17
REMARK    7  A    between atoms: C_17  and  C_18
REMARK    8  A    between atoms: C_18  and  C_19
REMARK    9  A    between atoms: N_23  and  C_24
REMARK                            x       y       z     vdW  Elec       q    Type
REMARK                         _______ _______ _______ _____ _____    ______ ____
ROOT
ATOM      1  C   UNL     1       2.251   7.496  18.751  0.00  0.00    +0.000 A 
ATOM      2  C   UNL     1       2.271   8.294  17.606  0.00  0.00    +0.000 A 
ATOM      3  C   UNL     1       1.872   9.624  17.668  0.00  0.00    +0.000 A 
ATOM      4  C   UNL     1       1.400  10.154  18.866  0.00  0.00    +0.000 A 
ATOM      5  C   UNL     1       1.288   9.372  20.031  0.00  0.00    +0.000 A 
ATOM      6  C   UNL     1       1.772   8.045  19.945  0.00  0.00    +0.000 A 
ENDROOT
BRANCH   1  14
ATOM      7  C   UNL     1       5.128   6.213  15.937  0.00  0.00    +0.000 C 
ATOM      8  C   UNL     1       4.711   5.724  17.307  0.00  0.00    +0.000 C 
ATOM      9  C   UNL     1       5.574   5.395  18.306  0.00  0.00    +0.000 C 
ATOM     10  C   UNL     1       5.135   4.809  19.651  0.00  0.00    +0.000 C 
ATOM     11  C   UNL     1       3.725   4.224  19.782  0.00  0.00    +0.000 C 
ATOM     12  C   UNL     1       2.706   5.343  19.825  0.00  0.00    +0.000 C 
ATOM     13  O   UNL     1       2.042   5.537  20.844  0.00  0.00    +0.000 OA
ATOM     14  N   UNL     1       2.709   6.153  18.694  0.00  0.00    +0.000 N 
ATOM     15  C   UNL     1       3.205   5.651  17.417  0.00  0.00    +0.000 C 
BRANCH   9  16
ATOM     16  C   UNL     1       7.090   5.614  18.160  0.00  0.00    +0.000 C 
ATOM     17  C   UNL     1       7.830   5.876  19.479  0.00  0.00    +0.000 C 
ATOM     18  C   UNL     1       7.742   4.446  17.417  0.00  0.00    +0.000 C 
ENDBRANCH   9  16
ENDBRANCH   1  14
BRANCH   5  19
ATOM     19  C   UNL     1       0.566   9.892  21.361  0.00  0.00    +0.000 C 
ATOM     20  C   UNL     1       1.241   9.374  22.666  0.00  0.00    +0.000 C 
ATOM     21  O   UNL     1      -0.052   9.122  23.269  0.00  0.00    +0.000 OA
ATOM     22  C   UNL     1      -0.657   9.131  21.945  0.00  0.00    +0.000 C 
BRANCH  19  23
ATOM     23  C   UNL     1       0.399  11.420  21.385  0.00  0.00    +0.000 C 
BRANCH  23  24
ATOM     24  C   UNL     1      -0.963  11.886  20.987  0.00  0.00    +0.000 A 
ATOM     25  N   UNL     1      -1.464  11.874  19.765  0.00  0.00    +0.000 NA
ATOM     26  N   UNL     1      -2.773  12.291  19.830  0.00  0.00    +0.000 NA
ATOM     27  C   UNL     1      -3.044  12.550  21.087  0.00  0.00    +0.000 A 
ATOM     28  N   UNL     1      -1.934  12.333  21.846  0.00  0.00    +0.000 N 
ATOM     29  C   UNL     1      -1.842  12.522  23.269  0.00  0.00    +0.000 C 
ENDBRANCH  23  24
ENDBRANCH  19  23
ENDBRANCH   5  19
TORSDOF 5
ENDMDL
MODEL 8
REMARK VINA RESULT:      -7.0      0.945      1.499
REMARK  Name = 
REMARK  9 active torsions:
REMARK  status: ('A' for Active; 'I' for Inactive)
REMARK    1  A    between atoms: C_1  and  C_2
REMARK    2  A    between atoms: C_3  and  C_4
REMARK    3  A    between atoms: C_4  and  C_5
REMARK    4  A    between atoms: C_4  and  C_6
REMARK    5  A    between atoms: N_11  and  C_12
REMARK    6  A    between atoms: C_16  and  C_17
REMARK    7  A    between atoms: C_17  and  C_18
REMARK    8  A    between atoms: C_18  and  C_19
REMARK    9  A    between atoms: N_23  and  C_24
REMARK                            x       y       z     vdW  Elec       q    Type
REMARK                         _______ _______ _______ _____ _____    ______ ____
ROOT
ATOM      1  C   UNL     1       0.886   9.799  19.333  0.00  0.00    +0.000 A 
ATOM      2  C   UNL     1       0.535   9.534  20.657  0.00  0.00    +0.000 A 
ATOM      3  C   UNL     1       1.008   8.394  21.296  0.00  0.00    +0.000 A 
ATOM      4  C   UNL     1       1.797   7.482  20.599  0.00  0.00    +0.000 A 
ATOM      5  C   UNL     1       2.117   7.664  19.240  0.00  0.00    +0.000 A 
ATOM      6  C   UNL     1       1.677   8.871  18.648  0.00  0.00    +0.000 A 
ENDROOT
BRANCH   1  14
ATOM      7  C   UNL     1      -3.208  10.645  18.727  0.00  0.00    +0.000 C 
ATOM      8  C   UNL     1      -1.970  11.504  18.869  0.00  0.00    +0.000 C 
ATOM      9  C   UNL     1      -1.882  12.608  19.660  0.00  0.00    +0.000 C 
ATOM     10  C   UNL     1      -0.653  13.519  19.713  0.00  0.00    +0.000 C 
ATOM     11  C   UNL     1       0.391  13.426  18.596  0.00  0.00    +0.000 C 
ATOM     12  C   UNL     1       1.202  12.158  18.754  0.00  0.00    +0.000 C 
ATOM     13  O   UNL     1       2.404  12.220  19.015  0.00  0.00    +0.000 OA
ATOM     14  N   UNL     1       0.443  10.993  18.703  0.00  0.00    +0.000 N 
ATOM     15  C   UNL     1      -0.843  10.969  18.016  0.00  0.00    +0.000 C 
BRANCH   9  16
ATOM     16  C   UNL     1      -3.033  13.018  20.594  0.00  0.00    +0.000 C 
ATOM     17  C   UNL     1      -2.943  12.440  22.014  0.00  0.00    +0.000 C 
ATOM     18  C   UNL     1      -3.172  14.540  20.657  0.00  0.00    +0.000 C 
ENDBRANCH   9  16
ENDBRANCH   1  14
BRANCH   5  19
ATOM     19  C   UNL     1       2.846   6.543  18.361  0.00  0.00    +0.000 C 
ATOM     20  C   UNL     1       3.975   5.798  19.134  0.00  0.00    +0.000 C 
ATOM     21  O   UNL     1       4.838   5.840  17.971  0.00  0.00    +0.000 OA
ATOM     22  C   UNL     1       4.028   6.920  17.425  0.00  0.00    +0.000 C 
BRANCH  19  23
ATOM     23  C   UNL     1       1.857   5.554  17.723  0.00  0.00    +0.000 C 
BRANCH  23  24
ATOM     24  C   UNL     1       2.136   4.124  18.050  0.00  0.00    +0.000 A 
ATOM     25  N   UNL     1       2.860   3.287  17.330  0.00  0.00    +0.000 NA
ATOM     26  N   UNL     1       2.959   2.099  18.015  0.00  0.00    +0.000 NA
ATOM     27  C   UNL     1       2.292   2.233  19.137  0.00  0.00    +0.000 A 
ATOM     28  N   UNL     1       1.740   3.477  19.193  0.00  0.00    +0.000 N 
ATOM     29  C   UNL     1       0.928   3.986  20.265  0.00  0.00    +0.000 C 
ENDBRANCH  23  24
ENDBRANCH  19  23
ENDBRANCH   5  19
TORSDOF 5
ENDMDL
MODEL 9
REMARK VINA RESULT:      -6.9      1.976      2.866
REMARK  Name = 
REMARK  9 active torsions:
REMARK  status: ('A' for Active; 'I' for Inactive)
REMARK    1  A    between atoms: C_1  and  C_2
REMARK    2  A    between atoms: C_3  and  C_4
REMARK    3  A    between atoms: C_4  and  C_5
REMARK    4  A    between atoms: C_4  and  C_6
REMARK    5  A    between atoms: N_11  and  C_12
REMARK    6  A    between atoms: C_16  and  C_17
REMARK    7  A    between atoms: C_17  and  C_18
REMARK    8  A    between atoms: C_18  and  C_19
REMARK    9  A    between atoms: N_23  and  C_24
REMARK                            x       y       z     vdW  Elec       q    Type
REMARK                         _______ _______ _______ _____ _____    ______ ____
ROOT
ATOM      1  C   UNL     1       0.802   9.570  19.263  0.00  0.00    +0.000 A 
ATOM      2  C   UNL     1       0.390   9.346  20.577  0.00  0.00    +0.000 A 
ATOM      3  C   UNL     1       0.928   8.296  21.314  0.00  0.00    +0.000 A 
ATOM      4  C   UNL     1       1.846   7.430  20.724  0.00  0.00    +0.000 A 
ATOM      5  C   UNL     1       2.237   7.567  19.379  0.00  0.00    +0.000 A 
ATOM      6  C   UNL     1       1.723   8.688  18.687  0.00  0.00    +0.000 A 
ENDROOT
BRANCH   1  14
ATOM      7  C   UNL     1      -3.124   9.616  17.703  0.00  0.00    +0.000 C 
ATOM      8  C   UNL     1      -2.149  10.696  18.122  0.00  0.00    +0.000 C 
ATOM      9  C   UNL     1      -2.469  11.766  18.899  0.00  0.00    +0.000 C 
ATOM     10  C   UNL     1      -1.493  12.898  19.230  0.00  0.00    +0.000 C 
ATOM     11  C   UNL     1      -0.221  13.053  18.389  0.00  0.00    +0.000 C 
ATOM     12  C   UNL     1       0.767  11.964  18.748  0.00  0.00    +0.000 C 
ATOM     13  O   UNL     1       1.838  12.251  19.283  0.00  0.00    +0.000 OA
ATOM     14  N   UNL     1       0.289  10.675  18.532  0.00  0.00    +0.000 N 
ATOM     15  C   UNL     1      -0.771  10.424  17.563  0.00  0.00    +0.000 C 
BRANCH   9  16
ATOM     16  C   UNL     1      -3.864  11.908  19.533  0.00  0.00    +0.000 C 
ATOM     17  C   UNL     1      -3.934  12.882  20.717  0.00  0.00    +0.000 C 
ATOM     18  C   UNL     1      -4.907  12.289  18.480  0.00  0.00    +0.000 C 
ENDBRANCH   9  16
ENDBRANCH   1  14
BRANCH   5  19
ATOM     19  C   UNL     1       3.128   6.477  18.618  0.00  0.00    +0.000 C 
ATOM     20  C   UNL     1       2.356   5.159  18.316  0.00  0.00    +0.000 C 
ATOM     21  O   UNL     1       3.507   4.364  18.693  0.00  0.00    +0.000 OA
ATOM     22  C   UNL     1       4.043   5.508  19.418  0.00  0.00    +0.000 C 
BRANCH  19  23
ATOM     23  C   UNL     1       3.797   7.038  17.353  0.00  0.00    +0.000 C 
BRANCH  23  24
ATOM     24  C   UNL     1       4.885   6.171  16.809  0.00  0.00    +0.000 A 
ATOM     25  N   UNL     1       4.724   5.085  16.078  0.00  0.00    +0.000 NA
ATOM     26  N   UNL     1       5.965   4.631  15.697  0.00  0.00    +0.000 NA
ATOM     27  C   UNL     1       6.857   5.446  16.204  0.00  0.00    +0.000 A 
ATOM     28  N   UNL     1       6.230   6.415  16.928  0.00  0.00    +0.000 N 
ATOM     29  C   UNL     1       6.880   7.480  17.643  0.00  0.00    +0.000 C 
ENDBRANCH  23  24
ENDBRANCH  19  23
ENDBRANCH   5  19
TORSDOF 5
ENDMDL
