MODEL 1
REMARK VINA RESULT:      -8.6      0.000      0.000
REMARK  Name = 
REMARK  7 active torsions:
REMARK  status: ('A' for Active; 'I' for Inactive)
REMARK    1  A    between atoms: C_1  and  C_2
REMARK    2  A    between atoms: C_7  and  C_8
REMARK    3  A    between atoms: C_11  and  C_12
REMARK    4  A    between atoms: C_15  and  C_16
REMARK    5  A    between atoms: N_18  and  C_19
REMARK    6  A    between atoms: C_19  and  C_20
REMARK    7  A    between atoms: C_19  and  C_21
REMARK                            x       y       z     vdW  Elec       q    Type
REMARK                         _______ _______ _______ _____ _____    ______ ____
ROOT
ATOM      1  C   UNL     1       0.746   9.762  18.954  0.00  0.00    +0.000 A 
ATOM      2  C   UNL     1       0.867   9.101  20.193  0.00  0.00    +0.000 A 
ATOM      3  C   UNL     1       1.701   7.972  20.327  0.00  0.00    +0.000 A 
ATOM      4  C   UNL     1       2.435   7.503  19.231  0.00  0.00    +0.000 A 
ATOM      5  C   UNL     1       2.324   8.185  18.006  0.00  0.00    +0.000 A 
ATOM      6  C   UNL     1       1.495   9.303  17.876  0.00  0.00    +0.000 A 
ENDROOT
BRANCH   1  10
ATOM      7  C   UNL     1      -2.096  11.803  18.683  0.00  0.00    +0.000 A 
ATOM      8  N   UNL     1      -1.186  12.758  18.596  0.00  0.00    +0.000 NA
ATOM      9  N   UNL     1       0.041  12.143  18.677  0.00  0.00    +0.000 NA
ATOM     10  C   UNL     1      -0.195  10.855  18.776  0.00  0.00    +0.000 A 
ATOM     11  O   UNL     1      -1.537  10.561  18.782  0.00  0.00    +0.000 OA
BRANCH   7  18
ATOM     12  C   UNL     1      -3.650  10.960  16.263  0.00  0.00    +0.000 C 
ATOM     13  C   UNL     1      -4.302  11.513  17.504  0.00  0.00    +0.000 A 
ATOM     14  C   UNL     1      -5.705  11.567  17.561  0.00  0.00    +0.000 A 
ATOM     15  C   UNL     1      -6.356  12.010  18.710  0.00  0.00    +0.000 A 
ATOM     16  C   UNL     1      -5.618  12.413  19.818  0.00  0.00    +0.000 A 
ATOM     17  C   UNL     1      -4.229  12.371  19.774  0.00  0.00    +0.000 A 
ATOM     18  C   UNL     1      -3.549  11.913  18.635  0.00  0.00    +0.000 A 
ENDBRANCH   7  18
ENDBRANCH   1  10
BRANCH   4  19
ATOM     19  C   UNL     1       3.302   6.276  19.235  0.00  0.00    +0.000 C 
ATOM     20  O   UNL     1       2.999   5.348  19.965  0.00  0.00    +0.000 OA
ATOM     21  N   UNL     1       4.403   6.249  18.389  0.00  0.00    +0.000 N 
ATOM     22  H   UNL     1       4.708   7.090  17.940  0.00  0.00    +0.000 HD
BRANCH  21  23
ATOM     23  C   UNL     1       5.284   5.080  18.293  0.00  0.00    +0.000 C 
ATOM     24  C   UNL     1       6.484   5.182  19.249  0.00  0.00    +0.000 C 
BRANCH  23  25
ATOM     25  C   UNL     1       5.719   4.772  16.862  0.00  0.00    +0.000 A 
ATOM     26  C   UNL     1       4.891   4.115  15.937  0.00  0.00    +0.000 A 
ATOM     27  C   UNL     1       5.319   3.890  14.621  0.00  0.00    +0.000 A 
ATOM     28  C   UNL     1       6.573   4.328  14.203  0.00  0.00    +0.000 A 
ATOM     29  C   UNL     1       7.413   4.973  15.108  0.00  0.00    +0.000 A 
ATOM     30  C   UNL     1       6.992   5.188  16.424  0.00  0.00    +0.000 A 
ENDBRANCH  23  25
ENDBRANCH  21  23
ENDBRANCH   4  19
TORSDOF 5
ENDMDL
MODEL 2
REMARK VINA RESULT:      -8.5      6.985      9.902
REMARK  Name = 
REMARK  7 active torsions:
REMARK  status: ('A' for Active; 'I' for Inactive)
REMARK    1  A    between atoms: C_1  and  C_2
REMARK    2  A    between atoms: C_7  and  C_8
REMARK    3  A    between atoms: C_11  and  C_12
REMARK    4  A    between atoms: C_15  and  C_16
REMARK    5  A    between atoms: N_18  and  C_19
REMARK    6  A    between atoms: C_19  and  C_20
REMARK    7  A    between atoms: C_19  and  C_21
REMARK                            x       y       z     vdW  Elec       q    Type
REMARK                         _______ _______ _______ _____ _____    ______ ____
ROOT
ATOM      1  C   UNL     1       8.385   8.534  18.545  0.00  0.00    +0.000 A 
ATOM      2  C   UNL     1       8.615   7.333  19.246  0.00  0.00    +0.000 A 
ATOM      3  C   UNL     1       7.888   6.167  18.932  0.00  0.00    +0.000 A 
ATOM      4  C   UNL     1       6.938   6.184  17.905  0.00  0.00    +0.000 A 
ATOM      5  C   UNL     1       6.733   7.382  17.197  0.00  0.00    +0.000 A 
ATOM      6  C   UNL     1       7.455   8.536  17.512  0.00  0.00    +0.000 A 
ENDROOT
BRANCH   1  10
ATOM      7  C   UNL     1       9.809  11.738  18.689  0.00  0.00    +0.000 A 
ATOM      8  N   UNL     1       9.926  11.438  19.972  0.00  0.00    +0.000 NA
ATOM      9  N   UNL     1       9.413  10.172  20.128  0.00  0.00    +0.000 NA
ATOM     10  C   UNL     1       9.046   9.769  18.934  0.00  0.00    +0.000 A 
ATOM     11  O   UNL     1       9.272  10.714  17.962  0.00  0.00    +0.000 OA
BRANCH   7  18
ATOM     12  C   UNL     1       8.245  14.284  18.940  0.00  0.00    +0.000 C 
ATOM     13  C   UNL     1       9.493  14.167  18.102  0.00  0.00    +0.000 A 
ATOM     14  C   UNL     1       9.989  15.319  17.469  0.00  0.00    +0.000 A 
ATOM     15  C   UNL     1      11.174  15.277  16.737  0.00  0.00    +0.000 A 
ATOM     16  C   UNL     1      11.877  14.083  16.617  0.00  0.00    +0.000 A 
ATOM     17  C   UNL     1      11.394  12.933  17.233  0.00  0.00    +0.000 A 
ATOM     18  C   UNL     1      10.214  12.953  17.990  0.00  0.00    +0.000 A 
ENDBRANCH   7  18
ENDBRANCH   1  10
BRANCH   4  19
ATOM     19  C   UNL     1       6.058   5.026  17.525  0.00  0.00    +0.000 C 
ATOM     20  O   UNL     1       6.393   4.319  16.590  0.00  0.00    +0.000 OA
ATOM     21  N   UNL     1       4.910   4.802  18.274  0.00  0.00    +0.000 N 
ATOM     22  H   UNL     1       4.589   5.500  18.915  0.00  0.00    +0.000 HD
BRANCH  21  23
ATOM     23  C   UNL     1       4.012   3.674  18.005  0.00  0.00    +0.000 C 
ATOM     24  C   UNL     1       3.294   3.817  16.653  0.00  0.00    +0.000 C 
BRANCH  23  25
ATOM     25  C   UNL     1       3.032   3.401  19.145  0.00  0.00    +0.000 A 
ATOM     26  C   UNL     1       1.649   3.614  19.030  0.00  0.00    +0.000 A 
ATOM     27  C   UNL     1       0.784   3.311  20.090  0.00  0.00    +0.000 A 
ATOM     28  C   UNL     1       1.282   2.779  21.277  0.00  0.00    +0.000 A 
ATOM     29  C   UNL     1       2.652   2.570  21.415  0.00  0.00    +0.000 A 
ATOM     30  C   UNL     1       3.518   2.883  20.361  0.00  0.00    +0.000 A 
ENDBRANCH  23  25
ENDBRANCH  21  23
ENDBRANCH   4  19
TORSDOF 5
ENDMDL
MODEL 3
REMARK VINA RESULT:      -8.3      2.780      3.787
REMARK  Name = 
REMARK  7 active torsions:
REMARK  status: ('A' for Active; 'I' for Inactive)
REMARK    1  A    between atoms: C_1  and  C_2
REMARK    2  A    between atoms: C_7  and  C_8
REMARK    3  A    between atoms: C_11  and  C_12
REMARK    4  A    between atoms: C_15  and  C_16
REMARK    5  A    between atoms: N_18  and  C_19
REMARK    6  A    between atoms: C_19  and  C_20
REMARK    7  A    between atoms: C_19  and  C_21
REMARK                            x       y       z     vdW  Elec       q    Type
REMARK                         _______ _______ _______ _____ _____    ______ ____
ROOT
ATOM      1  C   UNL     1       0.186  10.953  21.103  0.00  0.00    +0.000 A 
ATOM      2  C   UNL     1       0.620   9.704  21.589  0.00  0.00    +0.000 A 
ATOM      3  C   UNL     1       1.288   8.795  20.743  0.00  0.00    +0.000 A 
ATOM      4  C   UNL     1       1.545   9.131  19.410  0.00  0.00    +0.000 A 
ATOM      5  C   UNL     1       1.128  10.390  18.941  0.00  0.00    +0.000 A 
ATOM      6  C   UNL     1       0.464  11.287  19.782  0.00  0.00    +0.000 A 
ENDROOT
BRANCH   1  10
ATOM      7  C   UNL     1      -2.345  12.601  22.889  0.00  0.00    +0.000 A 
ATOM      8  N   UNL     1      -1.322  13.303  23.348  0.00  0.00    +0.000 NA
ATOM      9  N   UNL     1      -0.195  12.800  22.742  0.00  0.00    +0.000 NA
ATOM     10  C   UNL     1      -0.601  11.850  21.932  0.00  0.00    +0.000 A 
ATOM     11  O   UNL     1      -1.963  11.668  21.968  0.00  0.00    +0.000 OA
BRANCH   7  18
ATOM     12  C   UNL     1      -4.315  13.514  20.822  0.00  0.00    +0.000 C 
ATOM     13  C   UNL     1      -4.711  13.161  22.232  0.00  0.00    +0.000 A 
ATOM     14  C   UNL     1      -6.073  13.188  22.576  0.00  0.00    +0.000 A 
ATOM     15  C   UNL     1      -6.496  12.808  23.848  0.00  0.00    +0.000 A 
ATOM     16  C   UNL     1      -5.566  12.403  24.800  0.00  0.00    +0.000 A 
ATOM     17  C   UNL     1      -4.214  12.378  24.476  0.00  0.00    +0.000 A 
ATOM     18  C   UNL     1      -3.764  12.738  23.197  0.00  0.00    +0.000 A 
ENDBRANCH   7  18
ENDBRANCH   1  10
BRANCH   4  19
ATOM     19  C   UNL     1       2.188   8.223  18.399  0.00  0.00    +0.000 C 
ATOM     20  O   UNL     1       2.422   8.660  17.286  0.00  0.00    +0.000 OA
ATOM     21  N   UNL     1       2.505   6.929  18.791  0.00  0.00    +0.000 N 
ATOM     22  H   UNL     1       2.142   6.564  19.650  0.00  0.00    +0.000 HD
BRANCH  21  23
ATOM     23  C   UNL     1       3.171   5.983  17.889  0.00  0.00    +0.000 C 
ATOM     24  C   UNL     1       2.618   4.556  18.039  0.00  0.00    +0.000 C 
BRANCH  23  25
ATOM     25  C   UNL     1       4.694   6.020  17.999  0.00  0.00    +0.000 A 
ATOM     26  C   UNL     1       5.508   6.727  17.099  0.00  0.00    +0.000 A 
ATOM     27  C   UNL     1       6.899   6.765  17.265  0.00  0.00    +0.000 A 
ATOM     28  C   UNL     1       7.500   6.110  18.337  0.00  0.00    +0.000 A 
ATOM     29  C   UNL     1       6.712   5.393  19.234  0.00  0.00    +0.000 A 
ATOM     30  C   UNL     1       5.324   5.346  19.064  0.00  0.00    +0.000 A 
ENDBRANCH  23  25
ENDBRANCH  21  23
ENDBRANCH   4  19
TORSDOF 5
ENDMDL
MODEL 4
REMARK VINA RESULT:      -8.3      0.343      1.600
REMARK  Name = 
REMARK  7 active torsions:
REMARK  status: ('A' for Active; 'I' for Inactive)
REMARK    1  A    between atoms: C_1  and  C_2
REMARK    2  A    between atoms: C_7  and  C_8
REMARK    3  A    between atoms: C_11  and  C_12
REMARK    4  A    between atoms: C_15  and  C_16
REMARK    5  A    between atoms: N_18  and  C_19
REMARK    6  A    between atoms: C_19  and  C_20
REMARK    7  A    between atoms: C_19  and  C_21
REMARK                            x       y       z     vdW  Elec       q    Type
REMARK                         _______ _______ _______ _____ _____    ______ ____
ROOT
ATOM      1  C   UNL     1       0.671   9.715  19.117  0.00  0.00    +0.000 A 
ATOM      2  C   UNL     1       0.836   9.032  20.339  0.00  0.00    +0.000 A 
ATOM      3  C   UNL     1       1.670   7.898  20.421  0.00  0.00    +0.000 A 
ATOM      4  C   UNL     1       2.359   7.445  19.291  0.00  0.00    +0.000 A 
ATOM      5  C   UNL     1       2.204   8.148  18.082  0.00  0.00    +0.000 A 
ATOM      6  C   UNL     1       1.376   9.271  18.004  0.00  0.00    +0.000 A 
ENDROOT
BRANCH   1  10
ATOM      7  C   UNL     1      -2.175  11.752  18.862  0.00  0.00    +0.000 A 
ATOM      8  N   UNL     1      -1.277  12.718  18.958  0.00  0.00    +0.000 NA
ATOM      9  N   UNL     1      -0.050  12.107  19.064  0.00  0.00    +0.000 NA
ATOM     10  C   UNL     1      -0.271  10.814  18.993  0.00  0.00    +0.000 A 
ATOM     11  O   UNL     1      -1.605  10.511  18.859  0.00  0.00    +0.000 OA
BRANCH   7  18
ATOM     12  C   UNL     1      -3.899  12.865  21.048  0.00  0.00    +0.000 C 
ATOM     13  C   UNL     1      -4.453  12.385  19.730  0.00  0.00    +0.000 A 
ATOM     14  C   UNL     1      -5.828  12.534  19.484  0.00  0.00    +0.000 A 
ATOM     15  C   UNL     1      -6.377  12.166  18.258  0.00  0.00    +0.000 A 
ATOM     16  C   UNL     1      -5.565  11.635  17.261  0.00  0.00    +0.000 A 
ATOM     17  C   UNL     1      -4.203  11.476  17.494  0.00  0.00    +0.000 A 
ATOM     18  C   UNL     1      -3.622  11.856  18.713  0.00  0.00    +0.000 A 
ENDBRANCH   7  18
ENDBRANCH   1  10
BRANCH   4  19
ATOM     19  C   UNL     1       3.221   6.215  19.241  0.00  0.00    +0.000 C 
ATOM     20  O   UNL     1       2.855   5.220  19.843  0.00  0.00    +0.000 OA
ATOM     21  N   UNL     1       4.389   6.264  18.492  0.00  0.00    +0.000 N 
ATOM     22  H   UNL     1       4.733   7.143  18.160  0.00  0.00    +0.000 HD
BRANCH  21  23
ATOM     23  C   UNL     1       5.273   5.101  18.350  0.00  0.00    +0.000 C 
ATOM     24  C   UNL     1       6.472   5.168  19.311  0.00  0.00    +0.000 C 
BRANCH  23  25
ATOM     25  C   UNL     1       5.710   4.852  16.908  0.00  0.00    +0.000 A 
ATOM     26  C   UNL     1       6.997   5.160  16.436  0.00  0.00    +0.000 A 
ATOM     27  C   UNL     1       7.366   4.875  15.114  0.00  0.00    +0.000 A 
ATOM     28  C   UNL     1       6.463   4.269  14.245  0.00  0.00    +0.000 A 
ATOM     29  C   UNL     1       5.178   3.965  14.690  0.00  0.00    +0.000 A 
ATOM     30  C   UNL     1       4.805   4.258  16.006  0.00  0.00    +0.000 A 
ENDBRANCH  23  25
ENDBRANCH  21  23
ENDBRANCH   4  19
TORSDOF 5
ENDMDL
MODEL 5
REMARK VINA RESULT:      -8.2      1.950     10.798
REMARK  Name = 
REMARK  7 active torsions:
REMARK  status: ('A' for Active; 'I' for Inactive)
REMARK    1  A    between atoms: C_1  and  C_2
REMARK    2  A    between atoms: C_7  and  C_8
REMARK    3  A    between atoms: C_11  and  C_12
REMARK    4  A    between atoms: C_15  and  C_16
REMARK    5  A    between atoms: N_18  and  C_19
REMARK    6  A    between atoms: C_19  and  C_20
REMARK    7  A    between atoms: C_19  and  C_21
REMARK                            x       y       z     vdW  Elec       q    Type
REMARK                         _______ _______ _______ _____ _____    ______ ____
ROOT
ATOM      1  C   UNL     1       1.892   7.831  19.714  0.00  0.00    +0.000 A 
ATOM      2  C   UNL     1       1.362   8.055  21.000  0.00  0.00    +0.000 A 
ATOM      3  C   UNL     1       0.696   9.260  21.304  0.00  0.00    +0.000 A 
ATOM      4  C   UNL     1       0.539  10.245  20.323  0.00  0.00    +0.000 A 
ATOM      5  C   UNL     1       1.052  10.001  19.036  0.00  0.00    +0.000 A 
ATOM      6  C   UNL     1       1.712   8.806  18.739  0.00  0.00    +0.000 A 
ENDROOT
BRANCH   1  10
ATOM      7  C   UNL     1       4.160   5.471  18.448  0.00  0.00    +0.000 A 
ATOM      8  N   UNL     1       3.679   4.737  19.438  0.00  0.00    +0.000 NA
ATOM      9  N   UNL     1       2.735   5.507  20.077  0.00  0.00    +0.000 NA
ATOM     10  C   UNL     1       2.677   6.643  19.422  0.00  0.00    +0.000 A 
ATOM     11  O   UNL     1       3.555   6.692  18.365  0.00  0.00    +0.000 OA
BRANCH   7  18
ATOM     12  C   UNL     1       7.088   5.666  19.060  0.00  0.00    +0.000 C 
ATOM     13  C   UNL     1       6.558   5.202  17.727  0.00  0.00    +0.000 A 
ATOM     14  C   UNL     1       7.473   4.770  16.753  0.00  0.00    +0.000 A 
ATOM     15  C   UNL     1       7.030   4.272  15.529  0.00  0.00    +0.000 A 
ATOM     16  C   UNL     1       5.667   4.204  15.256  0.00  0.00    +0.000 A 
ATOM     17  C   UNL     1       4.751   4.635  16.209  0.00  0.00    +0.000 A 
ATOM     18  C   UNL     1       5.170   5.123  17.455  0.00  0.00    +0.000 A 
ENDBRANCH   7  18
ENDBRANCH   1  10
BRANCH   4  19
ATOM     19  C   UNL     1      -0.092  11.591  20.546  0.00  0.00    +0.000 C 
ATOM     20  O   UNL     1       0.167  12.494  19.769  0.00  0.00    +0.000 OA
ATOM     21  N   UNL     1      -0.959  11.738  21.621  0.00  0.00    +0.000 N 
ATOM     22  H   UNL     1      -1.007  11.027  22.324  0.00  0.00    +0.000 HD
BRANCH  21  23
ATOM     23  C   UNL     1      -1.653  13.001  21.894  0.00  0.00    +0.000 C 
ATOM     24  C   UNL     1      -1.234  13.609  23.243  0.00  0.00    +0.000 C 
BRANCH  23  25
ATOM     25  C   UNL     1      -3.172  12.891  21.765  0.00  0.00    +0.000 A 
ATOM     26  C   UNL     1      -4.039  12.967  22.867  0.00  0.00    +0.000 A 
ATOM     27  C   UNL     1      -5.429  12.903  22.694  0.00  0.00    +0.000 A 
ATOM     28  C   UNL     1      -5.975  12.774  21.420  0.00  0.00    +0.000 A 
ATOM     29  C   UNL     1      -5.132  12.686  20.315  0.00  0.00    +0.000 A 
ATOM     30  C   UNL     1      -3.745  12.740  20.487  0.00  0.00    +0.000 A 
ENDBRANCH  23  25
ENDBRANCH  21  23
ENDBRANCH   4  19
TORSDOF 5
ENDMDL
MODEL 6
REMARK VINA RESULT:      -8.2      2.814      3.774
REMARK  Name = 
REMARK  7 active torsions:
REMARK  status: ('A' for Active; 'I' for Inactive)
REMARK    1  A    between atoms: C_1  and  C_2
REMARK    2  A    between atoms: C_7  and  C_8
REMARK    3  A    between atoms: C_11  and  C_12
REMARK    4  A    between atoms: C_15  and  C_16
REMARK    5  A    between atoms: N_18  and  C_19
REMARK    6  A    between atoms: C_19  and  C_20
REMARK    7  A    between atoms: C_19  and  C_21
REMARK                            x       y       z     vdW  Elec       q    Type
REMARK                         _______ _______ _______ _____ _____    ______ ____
ROOT
ATOM      1  C   UNL     1       0.041  10.714  20.978  0.00  0.00    +0.000 A 
ATOM      2  C   UNL     1       0.501   9.473  21.460  0.00  0.00    +0.000 A 
ATOM      3  C   UNL     1       1.238   8.606  20.628  0.00  0.00    +0.000 A 
ATOM      4  C   UNL     1       1.538   8.978  19.313  0.00  0.00    +0.000 A 
ATOM      5  C   UNL     1       1.094  10.229  18.849  0.00  0.00    +0.000 A 
ATOM      6  C   UNL     1       0.362  11.085  19.677  0.00  0.00    +0.000 A 
ENDROOT
BRANCH   1  10
ATOM      7  C   UNL     1      -2.612  12.538  22.375  0.00  0.00    +0.000 A 
ATOM      8  N   UNL     1      -1.726  12.757  23.332  0.00  0.00    +0.000 NA
ATOM      9  N   UNL     1      -0.572  12.109  22.959  0.00  0.00    +0.000 NA
ATOM     10  C   UNL     1      -0.815  11.565  21.789  0.00  0.00    +0.000 A 
ATOM     11  O   UNL     1      -2.096  11.800  21.349  0.00  0.00    +0.000 OA
BRANCH   7  18
ATOM     12  C   UNL     1      -4.500  12.393  24.699  0.00  0.00    +0.000 C 
ATOM     13  C   UNL     1      -4.891  12.961  23.359  0.00  0.00    +0.000 A 
ATOM     14  C   UNL     1      -6.174  13.515  23.211  0.00  0.00    +0.000 A 
ATOM     15  C   UNL     1      -6.560  14.111  22.012  0.00  0.00    +0.000 A 
ATOM     16  C   UNL     1      -5.677  14.154  20.939  0.00  0.00    +0.000 A 
ATOM     17  C   UNL     1      -4.406  13.603  21.068  0.00  0.00    +0.000 A 
ATOM     18  C   UNL     1      -3.986  13.014  22.271  0.00  0.00    +0.000 A 
ENDBRANCH   7  18
ENDBRANCH   1  10
BRANCH   4  19
ATOM     19  C   UNL     1       2.258   8.114  18.315  0.00  0.00    +0.000 C 
ATOM     20  O   UNL     1       2.507   8.575  17.215  0.00  0.00    +0.000 OA
ATOM     21  N   UNL     1       2.625   6.832  18.704  0.00  0.00    +0.000 N 
ATOM     22  H   UNL     1       2.253   6.440  19.546  0.00  0.00    +0.000 HD
BRANCH  21  23
ATOM     23  C   UNL     1       3.366   5.931  17.815  0.00  0.00    +0.000 C 
ATOM     24  C   UNL     1       2.867   4.480  17.919  0.00  0.00    +0.000 C 
BRANCH  23  25
ATOM     25  C   UNL     1       4.880   6.027  17.989  0.00  0.00    +0.000 A 
ATOM     26  C   UNL     1       5.700   6.783  17.135  0.00  0.00    +0.000 A 
ATOM     27  C   UNL     1       7.081   6.874  17.358  0.00  0.00    +0.000 A 
ATOM     28  C   UNL     1       7.664   6.225  18.443  0.00  0.00    +0.000 A 
ATOM     29  C   UNL     1       6.870   5.462  19.296  0.00  0.00    +0.000 A 
ATOM     30  C   UNL     1       5.493   5.361  19.068  0.00  0.00    +0.000 A 
ENDBRANCH  23  25
ENDBRANCH  21  23
ENDBRANCH   4  19
TORSDOF 5
ENDMDL
MODEL 7
REMARK VINA RESULT:      -8.2      1.254     10.590
REMARK  Name = 
REMARK  7 active torsions:
REMARK  status: ('A' for Active; 'I' for Inactive)
REMARK    1  A    between atoms: C_1  and  C_2
REMARK    2  A    between atoms: C_7  and  C_8
REMARK    3  A    between atoms: C_11  and  C_12
REMARK    4  A    between atoms: C_15  and  C_16
REMARK    5  A    between atoms: N_18  and  C_19
REMARK    6  A    between atoms: C_19  and  C_20
REMARK    7  A    between atoms: C_19  and  C_21
REMARK                            x       y       z     vdW  Elec       q    Type
REMARK                         _______ _______ _______ _____ _____    ______ ____
ROOT
ATOM      1  C   UNL     1       2.068   7.921  19.030  0.00  0.00    +0.000 A 
ATOM      2  C   UNL     1       1.529   8.225  20.296  0.00  0.00    +0.000 A 
ATOM      3  C   UNL     1       0.692   9.346  20.471  0.00  0.00    +0.000 A 
ATOM      4  C   UNL     1       0.372  10.164  19.381  0.00  0.00    +0.000 A 
ATOM      5  C   UNL     1       0.897   9.838  18.118  0.00  0.00    +0.000 A 
ATOM      6  C   UNL     1       1.727   8.727  17.949  0.00  0.00    +0.000 A 
ENDROOT
BRANCH   1  10
ATOM      7  C   UNL     1       4.516   5.684  17.883  0.00  0.00    +0.000 A 
ATOM      8  N   UNL     1       4.390   5.193  19.105  0.00  0.00    +0.000 NA
ATOM      9  N   UNL     1       3.438   5.955  19.739  0.00  0.00    +0.000 NA
ATOM     10  C   UNL     1       3.021   6.837  18.860  0.00  0.00    +0.000 A 
ATOM     11  O   UNL     1       3.661   6.722  17.649  0.00  0.00    +0.000 OA
BRANCH   7  18
ATOM     12  C   UNL     1       7.286   6.773  17.528  0.00  0.00    +0.000 C 
ATOM     13  C   UNL     1       6.693   5.729  16.617  0.00  0.00    +0.000 A 
ATOM     14  C   UNL     1       7.497   5.187  15.601  0.00  0.00    +0.000 A 
ATOM     15  C   UNL     1       7.017   4.174  14.774  0.00  0.00    +0.000 A 
ATOM     16  C   UNL     1       5.722   3.692  14.942  0.00  0.00    +0.000 A 
ATOM     17  C   UNL     1       4.912   4.225  15.939  0.00  0.00    +0.000 A 
ATOM     18  C   UNL     1       5.379   5.232  16.797  0.00  0.00    +0.000 A 
ENDBRANCH   7  18
ENDBRANCH   1  10
BRANCH   4  19
ATOM     19  C   UNL     1      -0.454  11.418  19.457  0.00  0.00    +0.000 C 
ATOM     20  O   UNL     1       0.084  12.487  19.224  0.00  0.00    +0.000 OA
ATOM     21  N   UNL     1      -1.801  11.297  19.772  0.00  0.00    +0.000 N 
ATOM     22  H   UNL     1      -2.156  10.428  20.120  0.00  0.00    +0.000 HD
BRANCH  21  23
ATOM     23  C   UNL     1      -2.695  12.458  19.829  0.00  0.00    +0.000 C 
ATOM     24  C   UNL     1      -2.791  13.044  21.248  0.00  0.00    +0.000 C 
BRANCH  23  25
ATOM     25  C   UNL     1      -4.073  12.185  19.230  0.00  0.00    +0.000 A 
ATOM     26  C   UNL     1      -4.258  11.490  18.024  0.00  0.00    +0.000 A 
ATOM     27  C   UNL     1      -5.545  11.227  17.535  0.00  0.00    +0.000 A 
ATOM     28  C   UNL     1      -6.668  11.642  18.246  0.00  0.00    +0.000 A 
ATOM     29  C   UNL     1      -6.506  12.342  19.439  0.00  0.00    +0.000 A 
ATOM     30  C   UNL     1      -5.222  12.614  19.923  0.00  0.00    +0.000 A 
ENDBRANCH  23  25
ENDBRANCH  21  23
ENDBRANCH   4  19
TORSDOF 5
ENDMDL
MODEL 8
REMARK VINA RESULT:      -8.2      1.316     10.682
REMARK  Name = 
REMARK  7 active torsions:
REMARK  status: ('A' for Active; 'I' for Inactive)
REMARK    1  A    between atoms: C_1  and  C_2
REMARK    2  A    between atoms: C_7  and  C_8
REMARK    3  A    between atoms: C_11  and  C_12
REMARK    4  A    between atoms: C_15  and  C_16
REMARK    5  A    between atoms: N_18  and  C_19
REMARK    6  A    between atoms: C_19  and  C_20
REMARK    7  A    between atoms: C_19  and  C_21
REMARK                            x       y       z     vdW  Elec       q    Type
REMARK                         _______ _______ _______ _____ _____    ______ ____
ROOT
ATOM      1  C   UNL     1       1.845   8.318  19.174  0.00  0.00    +0.000 A 
ATOM      2  C   UNL     1       1.700   9.190  18.077  0.00  0.00    +0.000 A 
ATOM      3  C   UNL     1       0.895  10.343  18.177  0.00  0.00    +0.000 A 
ATOM      4  C   UNL     1       0.241  10.644  19.377  0.00  0.00    +0.000 A 
ATOM      5  C   UNL     1       0.411   9.779  20.472  0.00  0.00    +0.000 A 
ATOM      6  C   UNL     1       1.209   8.636  20.369  0.00  0.00    +0.000 A 
ENDROOT
BRANCH   1  10
ATOM      7  C   UNL     1       4.058   5.739  18.298  0.00  0.00    +0.000 A 
ATOM      8  N   UNL     1       3.470   5.127  19.312  0.00  0.00    +0.000 NA
ATOM      9  N   UNL     1       2.529   5.999  19.807  0.00  0.00    +0.000 NA
ATOM     10  C   UNL     1       2.580   7.070  19.049  0.00  0.00    +0.000 A 
ATOM     11  O   UNL     1       3.530   6.976  18.061  0.00  0.00    +0.000 OA
BRANCH   7  18
ATOM     12  C   UNL     1       6.908   5.570  19.215  0.00  0.00    +0.000 C 
ATOM     13  C   UNL     1       6.464   5.156  17.835  0.00  0.00    +0.000 A 
ATOM     14  C   UNL     1       7.413   4.595  16.964  0.00  0.00    +0.000 A 
ATOM     15  C   UNL     1       7.040   4.137  15.702  0.00  0.00    +0.000 A 
ATOM     16  C   UNL     1       5.716   4.239  15.286  0.00  0.00    +0.000 A 
ATOM     17  C   UNL     1       4.768   4.798  16.136  0.00  0.00    +0.000 A 
ATOM     18  C   UNL     1       5.114   5.250  17.418  0.00  0.00    +0.000 A 
ENDBRANCH   7  18
ENDBRANCH   1  10
BRANCH   4  19
ATOM     19  C   UNL     1      -0.693  11.804  19.582  0.00  0.00    +0.000 C 
ATOM     20  O   UNL     1      -0.258  12.935  19.454  0.00  0.00    +0.000 OA
ATOM     21  N   UNL     1      -2.019  11.530  19.891  0.00  0.00    +0.000 N 
ATOM     22  H   UNL     1      -2.290  10.603  20.152  0.00  0.00    +0.000 HD
BRANCH  21  23
ATOM     23  C   UNL     1      -3.013  12.594  20.068  0.00  0.00    +0.000 C 
ATOM     24  C   UNL     1      -3.151  13.015  21.541  0.00  0.00    +0.000 C 
BRANCH  23  25
ATOM     25  C   UNL     1      -4.366  12.263  19.441  0.00  0.00    +0.000 A 
ATOM     26  C   UNL     1      -4.495  11.665  18.177  0.00  0.00    +0.000 A 
ATOM     27  C   UNL     1      -5.757  11.341  17.659  0.00  0.00    +0.000 A 
ATOM     28  C   UNL     1      -6.909  11.599  18.398  0.00  0.00    +0.000 A 
ATOM     29  C   UNL     1      -6.804  12.202  19.649  0.00  0.00    +0.000 A 
ATOM     30  C   UNL     1      -5.545  12.534  20.162  0.00  0.00    +0.000 A 
ENDBRANCH  23  25
ENDBRANCH  21  23
ENDBRANCH   4  19
TORSDOF 5
ENDMDL
MODEL 9
REMARK VINA RESULT:      -8.1      2.672     10.979
REMARK  Name = 
REMARK  7 active torsions:
REMARK  status: ('A' for Active; 'I' for Inactive)
REMARK    1  A    between atoms: C_1  and  C_2
REMARK    2  A    between atoms: C_7  and  C_8
REMARK    3  A    between atoms: C_11  and  C_12
REMARK    4  A    between atoms: C_15  and  C_16
REMARK    5  A    between atoms: N_18  and  C_19
REMARK    6  A    between atoms: C_19  and  C_20
REMARK    7  A    between atoms: C_19  and  C_21
REMARK                            x       y       z     vdW  Elec       q    Type
REMARK                         _______ _______ _______ _____ _____    ______ ____
ROOT
ATOM      1  C   UNL     1       1.542   7.812  20.345  0.00  0.00    +0.000 A 
ATOM      2  C   UNL     1       0.952   8.061  21.600  0.00  0.00    +0.000 A 
ATOM      3  C   UNL     1       0.319   9.293  21.865  0.00  0.00    +0.000 A 
ATOM      4  C   UNL     1       0.255  10.280  20.875  0.00  0.00    +0.000 A 
ATOM      5  C   UNL     1       0.827  10.011  19.619  0.00  0.00    +0.000 A 
ATOM      6  C   UNL     1       1.454   8.790  19.360  0.00  0.00    +0.000 A 
ENDROOT
BRANCH   1  10
ATOM      7  C   UNL     1       3.904   5.400  19.388  0.00  0.00    +0.000 A 
ATOM      8  N   UNL     1       3.118   4.604  20.094  0.00  0.00    +0.000 NA
ATOM      9  N   UNL     1       2.090   5.384  20.567  0.00  0.00    +0.000 NA
ATOM     10  C   UNL     1       2.293   6.593  20.097  0.00  0.00    +0.000 A 
ATOM     11  O   UNL     1       3.432   6.679  19.331  0.00  0.00    +0.000 OA
BRANCH   7  18
ATOM     12  C   UNL     1       3.819   3.977  16.751  0.00  0.00    +0.000 C 
ATOM     13  C   UNL     1       5.105   4.408  17.409  0.00  0.00    +0.000 A 
ATOM     14  C   UNL     1       6.313   4.202  16.723  0.00  0.00    +0.000 A 
ATOM     15  C   UNL     1       7.522   4.641  17.260  0.00  0.00    +0.000 A 
ATOM     16  C   UNL     1       7.545   5.284  18.493  0.00  0.00    +0.000 A 
ATOM     17  C   UNL     1       6.357   5.488  19.186  0.00  0.00    +0.000 A 
ATOM     18  C   UNL     1       5.125   5.073  18.659  0.00  0.00    +0.000 A 
ENDBRANCH   7  18
ENDBRANCH   1  10
BRANCH   4  19
ATOM     19  C   UNL     1      -0.333  11.651  21.061  0.00  0.00    +0.000 C 
ATOM     20  O   UNL     1       0.011  12.542  20.305  0.00  0.00    +0.000 OA
ATOM     21  N   UNL     1      -1.260  11.833  22.079  0.00  0.00    +0.000 N 
ATOM     22  H   UNL     1      -1.382  11.125  22.776  0.00  0.00    +0.000 HD
BRANCH  21  23
ATOM     23  C   UNL     1      -1.918  13.123  22.311  0.00  0.00    +0.000 C 
ATOM     24  C   UNL     1      -1.076  14.047  23.207  0.00  0.00    +0.000 C 
BRANCH  23  25
ATOM     25  C   UNL     1      -3.351  12.983  22.823  0.00  0.00    +0.000 A 
ATOM     26  C   UNL     1      -4.476  13.166  22.004  0.00  0.00    +0.000 A 
ATOM     27  C   UNL     1      -5.771  12.986  22.509  0.00  0.00    +0.000 A 
ATOM     28  C   UNL     1      -5.964  12.609  23.835  0.00  0.00    +0.000 A 
ATOM     29  C   UNL     1      -4.862  12.433  24.668  0.00  0.00    +0.000 A 
ATOM     30  C   UNL     1      -3.569  12.622  24.168  0.00  0.00    +0.000 A 
ENDBRANCH  23  25
ENDBRANCH  21  23
ENDBRANCH   4  19
TORSDOF 5
ENDMDL
