MODEL 1
REMARK VINA RESULT:      -8.3      0.000      0.000
REMARK  Name = 
REMARK  6 active torsions:
REMARK  status: ('A' for Active; 'I' for Inactive)
REMARK    1  A    between atoms: C_2  and  C_3
REMARK    2  A    between atoms: C_2  and  O_16
REMARK    3  A    between atoms: C_3  and  C_4
REMARK    4  A    between atoms: C_4  and  C_5
REMARK    5  A    between atoms: O_16  and  C_17
REMARK    6  A    between atoms: C_17  and  C_18
REMARK                            x       y       z     vdW  Elec       q    Type
REMARK                         _______ _______ _______ _____ _____    ______ ____
ROOT
ATOM      1  O   UNL     1       0.632   3.188  19.025  0.00  0.00    +0.000 OA
ATOM      2  C   UNL     1       1.288   3.559  19.983  0.00  0.00    +0.000 C 
ENDROOT
BRANCH   2   3
ATOM      3  C   UNL     1       2.489   2.789  20.499  0.00  0.00    +0.000 C 
BRANCH   3   4
ATOM      4  C   UNL     1       3.257   2.096  19.381  0.00  0.00    +0.000 C 
BRANCH   4   5
ATOM      5  C   UNL     1       4.246   3.024  18.714  0.00  0.00    +0.000 A 
ATOM      6  N   UNL     1       4.231   3.165  17.433  0.00  0.00    +0.000 NA
ATOM      7  C   UNL     1       5.121   4.078  16.858  0.00  0.00    +0.000 A 
ATOM      8  C   UNL     1       5.095   4.242  15.475  0.00  0.00    +0.000 A 
ATOM      9  C   UNL     1       5.945   5.161  14.859  0.00  0.00    +0.000 A 
ATOM     10  C   UNL     1       6.821   5.929  15.628  0.00  0.00    +0.000 A 
ATOM     11  C   UNL     1       6.856   5.776  17.015  0.00  0.00    +0.000 A 
ATOM     12  C   UNL     1       6.010   4.843  17.618  0.00  0.00    +0.000 A 
ATOM     13  C   UNL     1       6.006   4.631  19.076  0.00  0.00    +0.000 A 
ATOM     14  O   UNL     1       6.765   5.231  19.827  0.00  0.00    +0.000 OA
ATOM     15  N   UNL     1       5.089   3.719  19.541  0.00  0.00    +0.000 N 
ATOM     16  H   UNL     1       5.091   3.573  20.539  0.00  0.00    +0.000 HD
ENDBRANCH   4   5
ENDBRANCH   3   4
ENDBRANCH   2   3
BRANCH   2  17
ATOM     17  O   UNL     1       1.092   4.728  20.667  0.00  0.00    +0.000 OA
BRANCH  17  18
ATOM     18  C   UNL     1       2.226   5.588  20.859  0.00  0.00    +0.000 C 
BRANCH  18  19
ATOM     19  C   UNL     1       2.230   6.703  19.844  0.00  0.00    +0.000 A 
ATOM     20  C   UNL     1       2.891   6.495  18.621  0.00  0.00    +0.000 A 
ATOM     21  C   UNL     1       2.927   7.489  17.654  0.00  0.00    +0.000 A 
ATOM     22  C   UNL     1       2.302   8.704  17.903  0.00  0.00    +0.000 A 
ATOM     23  C   UNL     1       1.653   8.933  19.127  0.00  0.00    +0.000 A 
ATOM     24  C   UNL     1       1.025  10.158  19.382  0.00  0.00    +0.000 A 
ATOM     25  C   UNL     1       0.385  10.370  20.596  0.00  0.00    +0.000 A 
ATOM     26  C   UNL     1       0.400   9.343  21.516  0.00  0.00    +0.000 A 
ATOM     27  N   UNL     1       0.995   8.148  21.306  0.00  0.00    +0.000 NA
ATOM     28  C   UNL     1       1.613   7.930  20.123  0.00  0.00    +0.000 A 
ENDBRANCH  18  19
ENDBRANCH  17  18
ENDBRANCH   2  17
TORSDOF 6
ENDMDL
MODEL 2
REMARK VINA RESULT:      -8.0      5.570      7.802
REMARK  Name = 
REMARK  6 active torsions:
REMARK  status: ('A' for Active; 'I' for Inactive)
REMARK    1  A    between atoms: C_2  and  C_3
REMARK    2  A    between atoms: C_2  and  O_16
REMARK    3  A    between atoms: C_3  and  C_4
REMARK    4  A    between atoms: C_4  and  C_5
REMARK    5  A    between atoms: O_16  and  C_17
REMARK    6  A    between atoms: C_17  and  C_18
REMARK                            x       y       z     vdW  Elec       q    Type
REMARK                         _______ _______ _______ _____ _____    ______ ____
ROOT
ATOM      1  O   UNL     1       7.385   8.108  16.976  0.00  0.00    +0.000 OA
ATOM      2  C   UNL     1       7.918   7.896  18.052  0.00  0.00    +0.000 C 
ENDROOT
BRANCH   2   3
ATOM      3  C   UNL     1       7.907   6.532  18.715  0.00  0.00    +0.000 C 
BRANCH   3   4
ATOM      4  C   UNL     1       7.138   5.498  17.901  0.00  0.00    +0.000 C 
BRANCH   4   5
ATOM      5  C   UNL     1       5.902   5.014  18.624  0.00  0.00    +0.000 A 
ATOM      6  N   UNL     1       4.948   5.840  18.889  0.00  0.00    +0.000 NA
ATOM      7  C   UNL     1       3.796   5.343  19.506  0.00  0.00    +0.000 A 
ATOM      8  C   UNL     1       2.760   6.232  19.780  0.00  0.00    +0.000 A 
ATOM      9  C   UNL     1       1.579   5.777  20.369  0.00  0.00    +0.000 A 
ATOM     10  C   UNL     1       1.427   4.426  20.679  0.00  0.00    +0.000 A 
ATOM     11  C   UNL     1       2.457   3.524  20.408  0.00  0.00    +0.000 A 
ATOM     12  C   UNL     1       3.639   3.994  19.831  0.00  0.00    +0.000 A 
ATOM     13  C   UNL     1       4.764   3.091  19.528  0.00  0.00    +0.000 A 
ATOM     14  O   UNL     1       4.737   1.898  19.799  0.00  0.00    +0.000 OA
ATOM     15  N   UNL     1       5.846   3.677  18.916  0.00  0.00    +0.000 N 
ATOM     16  H   UNL     1       6.616   3.058  18.714  0.00  0.00    +0.000 HD
ENDBRANCH   4   5
ENDBRANCH   3   4
ENDBRANCH   2   3
BRANCH   2  17
ATOM     17  O   UNL     1       8.647   8.810  18.764  0.00  0.00    +0.000 OA
BRANCH  17  18
ATOM     18  C   UNL     1       9.099   9.986  18.075  0.00  0.00    +0.000 C 
BRANCH  18  19
ATOM     19  C   UNL     1       9.547  11.042  19.055  0.00  0.00    +0.000 A 
ATOM     20  C   UNL     1       9.254  10.859  20.418  0.00  0.00    +0.000 A 
ATOM     21  C   UNL     1       9.640  11.800  21.360  0.00  0.00    +0.000 A 
ATOM     22  C   UNL     1      10.323  12.936  20.948  0.00  0.00    +0.000 A 
ATOM     23  C   UNL     1      10.607  13.141  19.588  0.00  0.00    +0.000 A 
ATOM     24  C   UNL     1      11.292  14.289  19.168  0.00  0.00    +0.000 A 
ATOM     25  C   UNL     1      11.568  14.477  17.820  0.00  0.00    +0.000 A 
ATOM     26  C   UNL     1      11.143  13.507  16.937  0.00  0.00    +0.000 A 
ATOM     27  N   UNL     1      10.480  12.388  17.304  0.00  0.00    +0.000 NA
ATOM     28  C   UNL     1      10.214  12.192  18.615  0.00  0.00    +0.000 A 
ENDBRANCH  18  19
ENDBRANCH  17  18
ENDBRANCH   2  17
TORSDOF 6
ENDMDL
MODEL 3
REMARK VINA RESULT:      -7.8      1.687      6.128
REMARK  Name = 
REMARK  6 active torsions:
REMARK  status: ('A' for Active; 'I' for Inactive)
REMARK    1  A    between atoms: C_2  and  C_3
REMARK    2  A    between atoms: C_2  and  O_16
REMARK    3  A    between atoms: C_3  and  C_4
REMARK    4  A    between atoms: C_4  and  C_5
REMARK    5  A    between atoms: O_16  and  C_17
REMARK    6  A    between atoms: C_17  and  C_18
REMARK                            x       y       z     vdW  Elec       q    Type
REMARK                         _______ _______ _______ _____ _____    ______ ____
ROOT
ATOM      1  O   UNL     1       1.938   2.357  21.893  0.00  0.00    +0.000 OA
ATOM      2  C   UNL     1       2.081   3.007  20.873  0.00  0.00    +0.000 C 
ENDROOT
BRANCH   2   3
ATOM      3  C   UNL     1       1.480   4.388  20.693  0.00  0.00    +0.000 C 
BRANCH   3   4
ATOM      4  C   UNL     1       2.523   5.493  20.804  0.00  0.00    +0.000 C 
BRANCH   4   5
ATOM      5  C   UNL     1       2.017   6.806  20.252  0.00  0.00    +0.000 A 
ATOM      6  N   UNL     1       1.253   7.554  20.972  0.00  0.00    +0.000 NA
ATOM      7  C   UNL     1       0.854   8.788  20.450  0.00  0.00    +0.000 A 
ATOM      8  C   UNL     1       0.039   9.602  21.233  0.00  0.00    +0.000 A 
ATOM      9  C   UNL     1      -0.362  10.855  20.766  0.00  0.00    +0.000 A 
ATOM     10  C   UNL     1       0.060  11.302  19.513  0.00  0.00    +0.000 A 
ATOM     11  C   UNL     1       0.878  10.497  18.719  0.00  0.00    +0.000 A 
ATOM     12  C   UNL     1       1.261   9.240  19.192  0.00  0.00    +0.000 A 
ATOM     13  C   UNL     1       2.117   8.342  18.396  0.00  0.00    +0.000 A 
ATOM     14  O   UNL     1       2.503   8.632  17.272  0.00  0.00    +0.000 OA
ATOM     15  N   UNL     1       2.457   7.156  19.003  0.00  0.00    +0.000 N 
ATOM     16  H   UNL     1       3.040   6.543  18.455  0.00  0.00    +0.000 HD
ENDBRANCH   4   5
ENDBRANCH   3   4
ENDBRANCH   2   3
BRANCH   2  17
ATOM     17  O   UNL     1       2.844   2.633  19.800  0.00  0.00    +0.000 OA
BRANCH  17  18
ATOM     18  C   UNL     1       4.239   2.972  19.822  0.00  0.00    +0.000 C 
BRANCH  18  19
ATOM     19  C   UNL     1       4.626   3.727  18.575  0.00  0.00    +0.000 A 
ATOM     20  C   UNL     1       3.893   3.497  17.397  0.00  0.00    +0.000 A 
ATOM     21  C   UNL     1       4.209   4.162  16.222  0.00  0.00    +0.000 A 
ATOM     22  C   UNL     1       5.264   5.065  16.213  0.00  0.00    +0.000 A 
ATOM     23  C   UNL     1       6.016   5.292  17.377  0.00  0.00    +0.000 A 
ATOM     24  C   UNL     1       7.083   6.199  17.370  0.00  0.00    +0.000 A 
ATOM     25  C   UNL     1       7.817   6.415  18.529  0.00  0.00    +0.000 A 
ATOM     26  C   UNL     1       7.455   5.710  19.658  0.00  0.00    +0.000 A 
ATOM     27  N   UNL     1       6.433   4.827  19.703  0.00  0.00    +0.000 NA
ATOM     28  C   UNL     1       5.708   4.616  18.581  0.00  0.00    +0.000 A 
ENDBRANCH  18  19
ENDBRANCH  17  18
ENDBRANCH   2  17
TORSDOF 6
ENDMDL
MODEL 4
REMARK VINA RESULT:      -7.6      5.281      7.175
REMARK  Name = 
REMARK  6 active torsions:
REMARK  status: ('A' for Active; 'I' for Inactive)
REMARK    1  A    between atoms: C_2  and  C_3
REMARK    2  A    between atoms: C_2  and  O_16
REMARK    3  A    between atoms: C_3  and  C_4
REMARK    4  A    between atoms: C_4  and  C_5
REMARK    5  A    between atoms: O_16  and  C_17
REMARK    6  A    between atoms: C_17  and  C_18
REMARK                            x       y       z     vdW  Elec       q    Type
REMARK                         _______ _______ _______ _____ _____    ______ ____
ROOT
ATOM      1  O   UNL     1       7.703   7.237  16.509  0.00  0.00    +0.000 OA
ATOM      2  C   UNL     1       7.908   7.701  17.617  0.00  0.00    +0.000 C 
ENDROOT
BRANCH   2   3
ATOM      3  C   UNL     1       7.972   6.842  18.865  0.00  0.00    +0.000 C 
BRANCH   3   4
ATOM      4  C   UNL     1       7.618   5.386  18.585  0.00  0.00    +0.000 C 
BRANCH   4   5
ATOM      5  C   UNL     1       6.129   5.140  18.668  0.00  0.00    +0.000 A 
ATOM      6  N   UNL     1       5.685   4.073  19.238  0.00  0.00    +0.000 NA
ATOM      7  C   UNL     1       4.301   3.909  19.348  0.00  0.00    +0.000 A 
ATOM      8  C   UNL     1       3.820   2.763  19.978  0.00  0.00    +0.000 A 
ATOM      9  C   UNL     1       2.448   2.570  20.135  0.00  0.00    +0.000 A 
ATOM     10  C   UNL     1       1.547   3.529  19.669  0.00  0.00    +0.000 A 
ATOM     11  C   UNL     1       2.015   4.682  19.038  0.00  0.00    +0.000 A 
ATOM     12  C   UNL     1       3.391   4.858  18.875  0.00  0.00    +0.000 A 
ATOM     13  C   UNL     1       3.945   6.051  18.210  0.00  0.00    +0.000 A 
ATOM     14  O   UNL     1       3.232   6.927  17.736  0.00  0.00    +0.000 OA
ATOM     15  N   UNL     1       5.316   6.120  18.161  0.00  0.00    +0.000 N 
ATOM     16  H   UNL     1       5.692   6.935  17.702  0.00  0.00    +0.000 HD
ENDBRANCH   4   5
ENDBRANCH   3   4
ENDBRANCH   2   3
BRANCH   2  17
ATOM     17  O   UNL     1       8.180   9.017  17.881  0.00  0.00    +0.000 OA
BRANCH  17  18
ATOM     18  C   UNL     1       8.937   9.317  19.064  0.00  0.00    +0.000 C 
BRANCH  18  19
ATOM     19  C   UNL     1       9.522  10.706  18.986  0.00  0.00    +0.000 A 
ATOM     20  C   UNL     1      10.153  11.101  17.793  0.00  0.00    +0.000 A 
ATOM     21  C   UNL     1      10.710  12.366  17.670  0.00  0.00    +0.000 A 
ATOM     22  C   UNL     1      10.642  13.247  18.741  0.00  0.00    +0.000 A 
ATOM     23  C   UNL     1      10.031  12.860  19.944  0.00  0.00    +0.000 A 
ATOM     24  C   UNL     1       9.966  13.745  21.027  0.00  0.00    +0.000 A 
ATOM     25  C   UNL     1       9.356  13.348  22.211  0.00  0.00    +0.000 A 
ATOM     26  C   UNL     1       8.835  12.073  22.267  0.00  0.00    +0.000 A 
ATOM     27  N   UNL     1       8.880  11.191  21.244  0.00  0.00    +0.000 NA
ATOM     28  C   UNL     1       9.464  11.572  20.086  0.00  0.00    +0.000 A 
ENDBRANCH  18  19
ENDBRANCH  17  18
ENDBRANCH   2  17
TORSDOF 6
ENDMDL
MODEL 5
REMARK VINA RESULT:      -7.5      1.825      4.482
REMARK  Name = 
REMARK  6 active torsions:
REMARK  status: ('A' for Active; 'I' for Inactive)
REMARK    1  A    between atoms: C_2  and  C_3
REMARK    2  A    between atoms: C_2  and  O_16
REMARK    3  A    between atoms: C_3  and  C_4
REMARK    4  A    between atoms: C_4  and  C_5
REMARK    5  A    between atoms: O_16  and  C_17
REMARK    6  A    between atoms: C_17  and  C_18
REMARK                            x       y       z     vdW  Elec       q    Type
REMARK                         _______ _______ _______ _____ _____    ______ ____
ROOT
ATOM      1  O   UNL     1       5.303   6.636  15.540  0.00  0.00    +0.000 OA
ATOM      2  C   UNL     1       5.473   6.647  16.747  0.00  0.00    +0.000 C 
ENDROOT
BRANCH   2   3
ATOM      3  C   UNL     1       6.659   5.977  17.413  0.00  0.00    +0.000 C 
BRANCH   3   4
ATOM      4  C   UNL     1       6.544   4.457  17.408  0.00  0.00    +0.000 C 
BRANCH   4   5
ATOM      5  C   UNL     1       5.197   3.990  17.911  0.00  0.00    +0.000 A 
ATOM      6  N   UNL     1       5.040   3.708  19.159  0.00  0.00    +0.000 NA
ATOM      7  C   UNL     1       3.766   3.337  19.598  0.00  0.00    +0.000 A 
ATOM      8  C   UNL     1       3.592   3.046  20.949  0.00  0.00    +0.000 A 
ATOM      9  C   UNL     1       2.333   2.698  21.438  0.00  0.00    +0.000 A 
ATOM     10  C   UNL     1       1.237   2.648  20.577  0.00  0.00    +0.000 A 
ATOM     11  C   UNL     1       1.396   2.938  19.221  0.00  0.00    +0.000 A 
ATOM     12  C   UNL     1       2.664   3.272  18.741  0.00  0.00    +0.000 A 
ATOM     13  C   UNL     1       2.896   3.582  17.319  0.00  0.00    +0.000 A 
ATOM     14  O   UNL     1       2.004   3.526  16.483  0.00  0.00    +0.000 OA
ATOM     15  N   UNL     1       4.182   3.942  16.992  0.00  0.00    +0.000 N 
ATOM     16  H   UNL     1       4.339   4.150  16.018  0.00  0.00    +0.000 HD
ENDBRANCH   4   5
ENDBRANCH   3   4
ENDBRANCH   2   3
BRANCH   2  17
ATOM     17  O   UNL     1       4.684   7.312  17.647  0.00  0.00    +0.000 OA
BRANCH  17  18
ATOM     18  C   UNL     1       3.271   7.356  17.391  0.00  0.00    +0.000 C 
BRANCH  18  19
ATOM     19  C   UNL     1       2.503   7.578  18.670  0.00  0.00    +0.000 A 
ATOM     20  C   UNL     1       2.412   6.519  19.590  0.00  0.00    +0.000 A 
ATOM     21  C   UNL     1       1.715   6.668  20.779  0.00  0.00    +0.000 A 
ATOM     22  C   UNL     1       1.099   7.881  21.060  0.00  0.00    +0.000 A 
ATOM     23  C   UNL     1       1.166   8.942  20.143  0.00  0.00    +0.000 A 
ATOM     24  C   UNL     1       0.543  10.165  20.421  0.00  0.00    +0.000 A 
ATOM     25  C   UNL     1       0.620  11.207  19.506  0.00  0.00    +0.000 A 
ATOM     26  C   UNL     1       1.318  10.984  18.338  0.00  0.00    +0.000 A 
ATOM     27  N   UNL     1       1.932   9.818  18.035  0.00  0.00    +0.000 NA
ATOM     28  C   UNL     1       1.869   8.802  18.924  0.00  0.00    +0.000 A 
ENDBRANCH  18  19
ENDBRANCH  17  18
ENDBRANCH   2  17
TORSDOF 6
ENDMDL
MODEL 6
REMARK VINA RESULT:      -7.5      1.870      6.885
REMARK  Name = 
REMARK  6 active torsions:
REMARK  status: ('A' for Active; 'I' for Inactive)
REMARK    1  A    between atoms: C_2  and  C_3
REMARK    2  A    between atoms: C_2  and  O_16
REMARK    3  A    between atoms: C_3  and  C_4
REMARK    4  A    between atoms: C_4  and  C_5
REMARK    5  A    between atoms: O_16  and  C_17
REMARK    6  A    between atoms: C_17  and  C_18
REMARK                            x       y       z     vdW  Elec       q    Type
REMARK                         _______ _______ _______ _____ _____    ______ ____
ROOT
ATOM      1  O   UNL     1       1.907   3.184  21.482  0.00  0.00    +0.000 OA
ATOM      2  C   UNL     1       2.368   4.065  20.779  0.00  0.00    +0.000 C 
ENDROOT
BRANCH   2   3
ATOM      3  C   UNL     1       1.524   5.197  20.225  0.00  0.00    +0.000 C 
BRANCH   3   4
ATOM      4  C   UNL     1       2.358   6.420  19.863  0.00  0.00    +0.000 C 
BRANCH   4   5
ATOM      5  C   UNL     1       1.632   7.710  20.168  0.00  0.00    +0.000 A 
ATOM      6  N   UNL     1       1.016   7.851  21.291  0.00  0.00    +0.000 NA
ATOM      7  C   UNL     1       0.408   9.080  21.562  0.00  0.00    +0.000 A 
ATOM      8  C   UNL     1      -0.245   9.238  22.782  0.00  0.00    +0.000 A 
ATOM      9  C   UNL     1      -0.844  10.455  23.108  0.00  0.00    +0.000 A 
ATOM     10  C   UNL     1      -0.783  11.526  22.215  0.00  0.00    +0.000 A 
ATOM     11  C   UNL     1      -0.130  11.382  20.990  0.00  0.00    +0.000 A 
ATOM     12  C   UNL     1       0.453  10.154  20.670  0.00  0.00    +0.000 A 
ATOM     13  C   UNL     1       1.149   9.940  19.389  0.00  0.00    +0.000 A 
ATOM     14  O   UNL     1       1.220  10.808  18.528  0.00  0.00    +0.000 OA
ATOM     15  N   UNL     1       1.719   8.700  19.224  0.00  0.00    +0.000 N 
ATOM     16  H   UNL     1       2.192   8.554  18.346  0.00  0.00    +0.000 HD
ENDBRANCH   4   5
ENDBRANCH   3   4
ENDBRANCH   2   3
BRANCH   2  17
ATOM     17  O   UNL     1       3.692   4.204  20.456  0.00  0.00    +0.000 OA
BRANCH  17  18
ATOM     18  C   UNL     1       4.241   3.295  19.489  0.00  0.00    +0.000 C 
BRANCH  18  19
ATOM     19  C   UNL     1       4.763   4.043  18.287  0.00  0.00    +0.000 A 
ATOM     20  C   UNL     1       4.125   3.850  17.049  0.00  0.00    +0.000 A 
ATOM     21  C   UNL     1       4.566   4.511  15.912  0.00  0.00    +0.000 A 
ATOM     22  C   UNL     1       5.652   5.371  16.003  0.00  0.00    +0.000 A 
ATOM     23  C   UNL     1       6.311   5.560  17.230  0.00  0.00    +0.000 A 
ATOM     24  C   UNL     1       7.409   6.424  17.323  0.00  0.00    +0.000 A 
ATOM     25  C   UNL     1       8.048   6.602  18.543  0.00  0.00    +0.000 A 
ATOM     26  C   UNL     1       7.564   5.904  19.629  0.00  0.00    +0.000 A 
ATOM     27  N   UNL     1       6.508   5.062  19.577  0.00  0.00    +0.000 NA
ATOM     28  C   UNL     1       5.875   4.888  18.395  0.00  0.00    +0.000 A 
ENDBRANCH  18  19
ENDBRANCH  17  18
ENDBRANCH   2  17
TORSDOF 6
ENDMDL
MODEL 7
REMARK VINA RESULT:      -7.5      5.834      7.975
REMARK  Name = 
REMARK  6 active torsions:
REMARK  status: ('A' for Active; 'I' for Inactive)
REMARK    1  A    between atoms: C_2  and  C_3
REMARK    2  A    between atoms: C_2  and  O_16
REMARK    3  A    between atoms: C_3  and  C_4
REMARK    4  A    between atoms: C_4  and  C_5
REMARK    5  A    between atoms: O_16  and  C_17
REMARK    6  A    between atoms: C_17  and  C_18
REMARK                            x       y       z     vdW  Elec       q    Type
REMARK                         _______ _______ _______ _____ _____    ______ ____
ROOT
ATOM      1  O   UNL     1       7.902   6.531  18.254  0.00  0.00    +0.000 OA
ATOM      2  C   UNL     1       7.462   7.438  17.570  0.00  0.00    +0.000 C 
ENDROOT
BRANCH   2   3
ATOM      3  C   UNL     1       7.916   8.877  17.730  0.00  0.00    +0.000 C 
BRANCH   3   4
ATOM      4  C   UNL     1       8.907   9.048  18.875  0.00  0.00    +0.000 C 
BRANCH   4   5
ATOM      5  C   UNL     1       9.325  10.490  19.050  0.00  0.00    +0.000 A 
ATOM      6  N   UNL     1       9.205  11.058  20.201  0.00  0.00    +0.000 NA
ATOM      7  C   UNL     1       9.659  12.374  20.339  0.00  0.00    +0.000 A 
ATOM      8  C   UNL     1       9.543  12.983  21.586  0.00  0.00    +0.000 A 
ATOM      9  C   UNL     1      10.007  14.285  21.778  0.00  0.00    +0.000 A 
ATOM     10  C   UNL     1      10.598  14.981  20.723  0.00  0.00    +0.000 A 
ATOM     11  C   UNL     1      10.722  14.381  19.469  0.00  0.00    +0.000 A 
ATOM     12  C   UNL     1      10.241  13.083  19.285  0.00  0.00    +0.000 A 
ATOM     13  C   UNL     1      10.337  12.400  17.983  0.00  0.00    +0.000 A 
ATOM     14  O   UNL     1      10.805  12.944  16.991  0.00  0.00    +0.000 OA
ATOM     15  N   UNL     1       9.870  11.107  17.955  0.00  0.00    +0.000 N 
ATOM     16  H   UNL     1       9.933  10.644  17.062  0.00  0.00    +0.000 HD
ENDBRANCH   4   5
ENDBRANCH   3   4
ENDBRANCH   2   3
BRANCH   2  17
ATOM     17  O   UNL     1       6.578   7.289  16.535  0.00  0.00    +0.000 OA
BRANCH  17  18
ATOM     18  C   UNL     1       5.757   6.110  16.525  0.00  0.00    +0.000 C 
BRANCH  18  19
ATOM     19  C   UNL     1       4.564   6.282  17.432  0.00  0.00    +0.000 A 
ATOM     20  C   UNL     1       3.837   7.484  17.365  0.00  0.00    +0.000 A 
ATOM     21  C   UNL     1       2.734   7.694  18.179  0.00  0.00    +0.000 A 
ATOM     22  C   UNL     1       2.348   6.703  19.071  0.00  0.00    +0.000 A 
ATOM     23  C   UNL     1       3.074   5.505  19.163  0.00  0.00    +0.000 A 
ATOM     24  C   UNL     1       2.690   4.505  20.065  0.00  0.00    +0.000 A 
ATOM     25  C   UNL     1       3.416   3.324  20.143  0.00  0.00    +0.000 A 
ATOM     26  C   UNL     1       4.509   3.188  19.313  0.00  0.00    +0.000 A 
ATOM     27  N   UNL     1       4.911   4.130  18.431  0.00  0.00    +0.000 NA
ATOM     28  C   UNL     1       4.204   5.280  18.342  0.00  0.00    +0.000 A 
ENDBRANCH  18  19
ENDBRANCH  17  18
ENDBRANCH   2  17
TORSDOF 6
ENDMDL
MODEL 8
REMARK VINA RESULT:      -7.5      1.588      2.329
REMARK  Name = 
REMARK  6 active torsions:
REMARK  status: ('A' for Active; 'I' for Inactive)
REMARK    1  A    between atoms: C_2  and  C_3
REMARK    2  A    between atoms: C_2  and  O_16
REMARK    3  A    between atoms: C_3  and  C_4
REMARK    4  A    between atoms: C_4  and  C_5
REMARK    5  A    between atoms: O_16  and  C_17
REMARK    6  A    between atoms: C_17  and  C_18
REMARK                            x       y       z     vdW  Elec       q    Type
REMARK                         _______ _______ _______ _____ _____    ______ ____
ROOT
ATOM      1  O   UNL     1       1.083   3.401  21.070  0.00  0.00    +0.000 OA
ATOM      2  C   UNL     1       1.798   3.823  20.177  0.00  0.00    +0.000 C 
ENDROOT
BRANCH   2   3
ATOM      3  C   UNL     1       2.848   2.967  19.496  0.00  0.00    +0.000 C 
BRANCH   3   4
ATOM      4  C   UNL     1       3.073   3.371  18.044  0.00  0.00    +0.000 C 
BRANCH   4   5
ATOM      5  C   UNL     1       4.166   4.406  17.907  0.00  0.00    +0.000 A 
ATOM      6  N   UNL     1       5.091   4.486  18.801  0.00  0.00    +0.000 NA
ATOM      7  C   UNL     1       6.118   5.415  18.608  0.00  0.00    +0.000 A 
ATOM      8  C   UNL     1       7.125   5.491  19.567  0.00  0.00    +0.000 A 
ATOM      9  C   UNL     1       8.185   6.384  19.405  0.00  0.00    +0.000 A 
ATOM     10  C   UNL     1       8.246   7.200  18.274  0.00  0.00    +0.000 A 
ATOM     11  C   UNL     1       7.245   7.132  17.305  0.00  0.00    +0.000 A 
ATOM     12  C   UNL     1       6.181   6.244  17.486  0.00  0.00    +0.000 A 
ATOM     13  C   UNL     1       5.090   6.133  16.502  0.00  0.00    +0.000 A 
ATOM     14  O   UNL     1       5.039   6.834  15.499  0.00  0.00    +0.000 OA
ATOM     15  N   UNL     1       4.135   5.185  16.780  0.00  0.00    +0.000 N 
ATOM     16  H   UNL     1       3.388   5.113  16.107  0.00  0.00    +0.000 HD
ENDBRANCH   4   5
ENDBRANCH   3   4
ENDBRANCH   2   3
BRANCH   2  17
ATOM     17  O   UNL     1       1.709   5.071  19.621  0.00  0.00    +0.000 OA
BRANCH  17  18
ATOM     18  C   UNL     1       2.331   6.160  20.321  0.00  0.00    +0.000 C 
BRANCH  18  19
ATOM     19  C   UNL     1       1.997   7.478  19.667  0.00  0.00    +0.000 A 
ATOM     20  C   UNL     1       2.454   7.712  18.359  0.00  0.00    +0.000 A 
ATOM     21  C   UNL     1       2.177   8.908  17.713  0.00  0.00    +0.000 A 
ATOM     22  C   UNL     1       1.440   9.882  18.371  0.00  0.00    +0.000 A 
ATOM     23  C   UNL     1       0.992   9.670  19.685  0.00  0.00    +0.000 A 
ATOM     24  C   UNL     1       0.251  10.653  20.353  0.00  0.00    +0.000 A 
ATOM     25  C   UNL     1      -0.187  10.428  21.651  0.00  0.00    +0.000 A 
ATOM     26  C   UNL     1       0.135   9.222  22.237  0.00  0.00    +0.000 A 
ATOM     27  N   UNL     1       0.847   8.250  21.624  0.00  0.00    +0.000 NA
ATOM     28  C   UNL     1       1.272   8.458  20.358  0.00  0.00    +0.000 A 
ENDBRANCH  18  19
ENDBRANCH  17  18
ENDBRANCH   2  17
TORSDOF 6
ENDMDL
MODEL 9
REMARK VINA RESULT:      -7.4      1.865      4.276
REMARK  Name = 
REMARK  6 active torsions:
REMARK  status: ('A' for Active; 'I' for Inactive)
REMARK    1  A    between atoms: C_2  and  C_3
REMARK    2  A    between atoms: C_2  and  O_16
REMARK    3  A    between atoms: C_3  and  C_4
REMARK    4  A    between atoms: C_4  and  C_5
REMARK    5  A    between atoms: O_16  and  C_17
REMARK    6  A    between atoms: C_17  and  C_18
REMARK                            x       y       z     vdW  Elec       q    Type
REMARK                         _______ _______ _______ _____ _____    ______ ____
ROOT
ATOM      1  O   UNL     1       6.718   5.956  17.975  0.00  0.00    +0.000 OA
ATOM      2  C   UNL     1       5.842   6.324  17.211  0.00  0.00    +0.000 C 
ENDROOT
BRANCH   2   3
ATOM      3  C   UNL     1       5.502   5.577  15.936  0.00  0.00    +0.000 C 
BRANCH   3   4
ATOM      4  C   UNL     1       5.448   4.069  16.144  0.00  0.00    +0.000 C 
BRANCH   4   5
ATOM      5  C   UNL     1       4.582   3.691  17.324  0.00  0.00    +0.000 A 
ATOM      6  N   UNL     1       3.298   3.739  17.220  0.00  0.00    +0.000 NA
ATOM      7  C   UNL     1       2.530   3.325  18.313  0.00  0.00    +0.000 A 
ATOM      8  C   UNL     1       1.143   3.362  18.195  0.00  0.00    +0.000 A 
ATOM      9  C   UNL     1       0.335   2.934  19.249  0.00  0.00    +0.000 A 
ATOM     10  C   UNL     1       0.915   2.456  20.426  0.00  0.00    +0.000 A 
ATOM     11  C   UNL     1       2.304   2.412  20.556  0.00  0.00    +0.000 A 
ATOM     12  C   UNL     1       3.101   2.857  19.499  0.00  0.00    +0.000 A 
ATOM     13  C   UNL     1       4.572   2.842  19.580  0.00  0.00    +0.000 A 
ATOM     14  O   UNL     1       5.169   2.476  20.585  0.00  0.00    +0.000 OA
ATOM     15  N   UNL     1       5.233   3.261  18.450  0.00  0.00    +0.000 N 
ATOM     16  H   UNL     1       6.239   3.253  18.509  0.00  0.00    +0.000 HD
ENDBRANCH   4   5
ENDBRANCH   3   4
ENDBRANCH   2   3
BRANCH   2  17
ATOM     17  O   UNL     1       5.010   7.391  17.422  0.00  0.00    +0.000 OA
BRANCH  17  18
ATOM     18  C   UNL     1       3.608   7.203  17.174  0.00  0.00    +0.000 C 
BRANCH  18  19
ATOM     19  C   UNL     1       2.807   7.438  18.431  0.00  0.00    +0.000 A 
ATOM     20  C   UNL     1       2.729   6.403  19.379  0.00  0.00    +0.000 A 
ATOM     21  C   UNL     1       2.004   6.566  20.550  0.00  0.00    +0.000 A 
ATOM     22  C   UNL     1       1.347   7.767  20.783  0.00  0.00    +0.000 A 
ATOM     23  C   UNL     1       1.401   8.803  19.837  0.00  0.00    +0.000 A 
ATOM     24  C   UNL     1       0.736  10.014  20.067  0.00  0.00    +0.000 A 
ATOM     25  C   UNL     1       0.800  11.030  19.123  0.00  0.00    +0.000 A 
ATOM     26  C   UNL     1       1.529  10.795  17.976  0.00  0.00    +0.000 A 
ATOM     27  N   UNL     1       2.183   9.641  17.719  0.00  0.00    +0.000 NA
ATOM     28  C   UNL     1       2.133   8.649  18.636  0.00  0.00    +0.000 A 
ENDBRANCH  18  19
ENDBRANCH  17  18
ENDBRANCH   2  17
TORSDOF 6
ENDMDL
