MODEL 1
REMARK VINA RESULT:      -8.1      0.000      0.000
REMARK  Name = 
REMARK  4 active torsions:
REMARK  status: ('A' for Active; 'I' for Inactive)
REMARK    1  A    between atoms: C_2  and  C_14
REMARK    2  A    between atoms: N_3  and  C_4
REMARK    3  A    between atoms: C_17  and  C_18
REMARK    4  A    between atoms: C_18  and  N_19
REMARK                            x       y       z     vdW  Elec       q    Type
REMARK                         _______ _______ _______ _____ _____    ______ ____
ROOT
ATOM      1  O   UNL     1       1.759  10.606  18.143  0.00  0.00    +0.000 OA
ATOM      2  C   UNL     1       1.355   9.557  18.639  0.00  0.00    +0.000 C 
ATOM      3  N   UNL     1       0.187   9.405  19.370  0.00  0.00    +0.000 N 
ATOM      4  H   UNL     1       0.170   8.645  20.035  0.00  0.00    +0.000 HD
ENDROOT
BRANCH   3   5
ATOM      5  C   UNL     1      -0.690  10.493  19.597  0.00  0.00    +0.000 A 
ATOM      6  C   UNL     1      -0.458  11.350  20.681  0.00  0.00    +0.000 A 
ATOM      7  C   UNL     1      -1.291  12.440  20.918  0.00  0.00    +0.000 A 
ATOM      8  C   UNL     1      -2.376  12.670  20.081  0.00  0.00    +0.000 A 
ATOM      9  C   UNL     1      -2.633  11.824  18.989  0.00  0.00    +0.000 A 
ATOM     10  C   UNL     1      -1.786  10.718  18.738  0.00  0.00    +0.000 A 
ATOM     11  C   UNL     1      -2.081   9.778  17.592  0.00  0.00    +0.000 C 
ATOM     12  C   UNL     1      -3.516   9.869  17.075  0.00  0.00    +0.000 C 
ATOM     13  C   UNL     1      -3.902  11.322  16.854  0.00  0.00    +0.000 C 
ATOM     14  C   UNL     1      -3.884  12.072  18.181  0.00  0.00    +0.000 C 
ENDBRANCH   3   5
BRANCH   2  15
ATOM     15  C   UNL     1       2.233   8.361  18.564  0.00  0.00    +0.000 A 
ATOM     16  C   UNL     1       2.162   7.429  19.605  0.00  0.00    +0.000 A 
ATOM     17  C   UNL     1       2.991   6.306  19.600  0.00  0.00    +0.000 A 
ATOM     18  C   UNL     1       3.909   6.106  18.558  0.00  0.00    +0.000 A 
ATOM     19  C   UNL     1       3.981   7.052  17.523  0.00  0.00    +0.000 A 
ATOM     20  C   UNL     1       3.146   8.178  17.523  0.00  0.00    +0.000 A 
BRANCH  18  21
ATOM     21  C   UNL     1       4.760   4.855  18.530  0.00  0.00    +0.000 C 
BRANCH  21  22
ATOM     22  N   UNL     1       3.950   3.650  18.445  0.00  0.00    +0.000 N 
ATOM     23  C   UNL     1       3.092   3.369  17.321  0.00  0.00    +0.000 C 
ATOM     24  C   UNL     1       2.420   2.067  17.711  0.00  0.00    +0.000 C 
ATOM     25  C   UNL     1       3.461   1.368  18.575  0.00  0.00    +0.000 C 
ATOM     26  C   UNL     1       4.218   2.515  19.197  0.00  0.00    +0.000 C 
ATOM     27  O   UNL     1       4.981   2.425  20.143  0.00  0.00    +0.000 OA
ENDBRANCH  21  22
ENDBRANCH  18  21
ENDBRANCH   2  15
TORSDOF 4
ENDMDL
MODEL 2
REMARK VINA RESULT:      -8.1      2.194      2.732
REMARK  Name = 
REMARK  4 active torsions:
REMARK  status: ('A' for Active; 'I' for Inactive)
REMARK    1  A    between atoms: C_2  and  C_14
REMARK    2  A    between atoms: N_3  and  C_4
REMARK    3  A    between atoms: C_17  and  C_18
REMARK    4  A    between atoms: C_18  and  N_19
REMARK                            x       y       z     vdW  Elec       q    Type
REMARK                         _______ _______ _______ _____ _____    ______ ____
ROOT
ATOM      1  O   UNL     1       2.229   9.841  17.500  0.00  0.00    +0.000 OA
ATOM      2  C   UNL     1       1.954   8.875  18.207  0.00  0.00    +0.000 C 
ATOM      3  N   UNL     1       1.070   8.878  19.275  0.00  0.00    +0.000 N 
ATOM      4  H   UNL     1       1.229   8.184  19.991  0.00  0.00    +0.000 HD
ENDROOT
BRANCH   3   5
ATOM      5  C   UNL     1       0.360  10.047  19.643  0.00  0.00    +0.000 A 
ATOM      6  C   UNL     1       0.825  10.828  20.710  0.00  0.00    +0.000 A 
ATOM      7  C   UNL     1       0.159  11.993  21.081  0.00  0.00    +0.000 A 
ATOM      8  C   UNL     1      -0.989  12.375  20.399  0.00  0.00    +0.000 A 
ATOM      9  C   UNL     1      -1.477  11.609  19.327  0.00  0.00    +0.000 A 
ATOM     10  C   UNL     1      -0.801  10.427  18.940  0.00  0.00    +0.000 A 
ATOM     11  C   UNL     1      -1.345   9.573  17.817  0.00  0.00    +0.000 C 
ATOM     12  C   UNL     1      -2.813   9.844  17.493  0.00  0.00    +0.000 C 
ATOM     13  C   UNL     1      -3.054  11.339  17.363  0.00  0.00    +0.000 C 
ATOM     14  C   UNL     1      -2.783  12.027  18.695  0.00  0.00    +0.000 C 
ENDBRANCH   3   5
BRANCH   2  15
ATOM     15  C   UNL     1       2.708   7.613  17.995  0.00  0.00    +0.000 A 
ATOM     16  C   UNL     1       3.985   7.698  17.430  0.00  0.00    +0.000 A 
ATOM     17  C   UNL     1       4.720   6.538  17.177  0.00  0.00    +0.000 A 
ATOM     18  C   UNL     1       4.183   5.278  17.478  0.00  0.00    +0.000 A 
ATOM     19  C   UNL     1       2.897   5.200  18.036  0.00  0.00    +0.000 A 
ATOM     20  C   UNL     1       2.158   6.363  18.295  0.00  0.00    +0.000 A 
BRANCH  18  21
ATOM     21  C   UNL     1       5.012   4.030  17.257  0.00  0.00    +0.000 C 
BRANCH  21  22
ATOM     22  N   UNL     1       5.717   4.066  15.985  0.00  0.00    +0.000 N 
ATOM     23  C   UNL     1       5.032   4.157  14.720  0.00  0.00    +0.000 C 
ATOM     24  C   UNL     1       6.158   4.095  13.706  0.00  0.00    +0.000 C 
ATOM     25  C   UNL     1       7.333   4.735  14.434  0.00  0.00    +0.000 C 
ATOM     26  C   UNL     1       7.056   4.415  15.882  0.00  0.00    +0.000 C 
ATOM     27  O   UNL     1       7.858   4.522  16.794  0.00  0.00    +0.000 OA
ENDBRANCH  21  22
ENDBRANCH  18  21
ENDBRANCH   2  15
TORSDOF 4
ENDMDL
MODEL 3
REMARK VINA RESULT:      -8.1      1.942      2.739
REMARK  Name = 
REMARK  4 active torsions:
REMARK  status: ('A' for Active; 'I' for Inactive)
REMARK    1  A    between atoms: C_2  and  C_14
REMARK    2  A    between atoms: N_3  and  C_4
REMARK    3  A    between atoms: C_17  and  C_18
REMARK    4  A    between atoms: C_18  and  N_19
REMARK                            x       y       z     vdW  Elec       q    Type
REMARK                         _______ _______ _______ _____ _____    ______ ____
ROOT
ATOM      1  O   UNL     1       0.336   8.887  21.068  0.00  0.00    +0.000 OA
ATOM      2  C   UNL     1       0.797   9.194  19.971  0.00  0.00    +0.000 C 
ATOM      3  N   UNL     1       0.423  10.294  19.214  0.00  0.00    +0.000 N 
ATOM      4  H   UNL     1       0.558  10.218  18.216  0.00  0.00    +0.000 HD
ENDROOT
BRANCH   3   5
ATOM      5  C   UNL     1      -0.551  11.212  19.676  0.00  0.00    +0.000 A 
ATOM      6  C   UNL     1      -0.232  12.086  20.724  0.00  0.00    +0.000 A 
ATOM      7  C   UNL     1      -1.163  13.013  21.185  0.00  0.00    +0.000 A 
ATOM      8  C   UNL     1      -2.428  13.060  20.612  0.00  0.00    +0.000 A 
ATOM      9  C   UNL     1      -2.774  12.194  19.562  0.00  0.00    +0.000 A 
ATOM     10  C   UNL     1      -1.830  11.253  19.083  0.00  0.00    +0.000 A 
ATOM     11  C   UNL     1      -2.209  10.288  17.984  0.00  0.00    +0.000 C 
ATOM     12  C   UNL     1      -3.717  10.135  17.790  0.00  0.00    +0.000 C 
ATOM     13  C   UNL     1      -4.378  11.502  17.727  0.00  0.00    +0.000 C 
ATOM     14  C   UNL     1      -4.195  12.230  19.053  0.00  0.00    +0.000 C 
ENDBRANCH   3   5
BRANCH   2  15
ATOM     15  C   UNL     1       1.753   8.258  19.325  0.00  0.00    +0.000 A 
ATOM     16  C   UNL     1       2.207   8.568  18.038  0.00  0.00    +0.000 A 
ATOM     17  C   UNL     1       3.078   7.704  17.373  0.00  0.00    +0.000 A 
ATOM     18  C   UNL     1       3.498   6.513  17.982  0.00  0.00    +0.000 A 
ATOM     19  C   UNL     1       3.030   6.203  19.269  0.00  0.00    +0.000 A 
ATOM     20  C   UNL     1       2.159   7.072  19.942  0.00  0.00    +0.000 A 
BRANCH  18  21
ATOM     21  C   UNL     1       4.490   5.612  17.278  0.00  0.00    +0.000 C 
BRANCH  21  22
ATOM     22  N   UNL     1       5.857   5.880  17.696  0.00  0.00    +0.000 N 
ATOM     23  C   UNL     1       6.526   7.125  17.414  0.00  0.00    +0.000 C 
ATOM     24  C   UNL     1       7.918   6.910  17.975  0.00  0.00    +0.000 C 
ATOM     25  C   UNL     1       7.694   5.955  19.140  0.00  0.00    +0.000 C 
ATOM     26  C   UNL     1       6.482   5.168  18.710  0.00  0.00    +0.000 C 
ATOM     27  O   UNL     1       6.094   4.132  19.224  0.00  0.00    +0.000 OA
ENDBRANCH  21  22
ENDBRANCH  18  21
ENDBRANCH   2  15
TORSDOF 4
ENDMDL
MODEL 4
REMARK VINA RESULT:      -8.0      2.789      8.996
REMARK  Name = 
REMARK  4 active torsions:
REMARK  status: ('A' for Active; 'I' for Inactive)
REMARK    1  A    between atoms: C_2  and  C_14
REMARK    2  A    between atoms: N_3  and  C_4
REMARK    3  A    between atoms: C_17  and  C_18
REMARK    4  A    between atoms: C_18  and  N_19
REMARK                            x       y       z     vdW  Elec       q    Type
REMARK                         _______ _______ _______ _____ _____    ______ ____
ROOT
ATOM      1  O   UNL     1       1.636   8.437  17.763  0.00  0.00    +0.000 OA
ATOM      2  C   UNL     1       1.789   8.144  18.946  0.00  0.00    +0.000 C 
ATOM      3  N   UNL     1       2.482   7.042  19.424  0.00  0.00    +0.000 N 
ATOM      4  H   UNL     1       2.206   6.697  20.332  0.00  0.00    +0.000 HD
ENDROOT
BRANCH   3   5
ATOM      5  C   UNL     1       3.123   6.134  18.547  0.00  0.00    +0.000 A 
ATOM      6  C   UNL     1       4.135   6.597  17.695  0.00  0.00    +0.000 A 
ATOM      7  C   UNL     1       4.797   5.723  16.836  0.00  0.00    +0.000 A 
ATOM      8  C   UNL     1       4.437   4.382  16.810  0.00  0.00    +0.000 A 
ATOM      9  C   UNL     1       3.425   3.892  17.651  0.00  0.00    +0.000 A 
ATOM     10  C   UNL     1       2.752   4.773  18.532  0.00  0.00    +0.000 A 
ATOM     11  C   UNL     1       1.631   4.264  19.409  0.00  0.00    +0.000 C 
ATOM     12  C   UNL     1       1.044   2.932  18.945  0.00  0.00    +0.000 C 
ATOM     13  C   UNL     1       2.158   1.940  18.654  0.00  0.00    +0.000 C 
ATOM     14  C   UNL     1       3.016   2.447  17.501  0.00  0.00    +0.000 C 
ENDBRANCH   3   5
BRANCH   2  15
ATOM     15  C   UNL     1       1.079   8.955  19.968  0.00  0.00    +0.000 A 
ATOM     16  C   UNL     1       1.166   8.550  21.304  0.00  0.00    +0.000 A 
ATOM     17  C   UNL     1       0.489   9.258  22.298  0.00  0.00    +0.000 A 
ATOM     18  C   UNL     1      -0.292  10.375  21.967  0.00  0.00    +0.000 A 
ATOM     19  C   UNL     1      -0.383  10.769  20.623  0.00  0.00    +0.000 A 
ATOM     20  C   UNL     1       0.300  10.063  19.622  0.00  0.00    +0.000 A 
BRANCH  18  21
ATOM     21  C   UNL     1      -0.974  11.172  23.059  0.00  0.00    +0.000 C 
BRANCH  21  22
ATOM     22  N   UNL     1      -1.617  12.367  22.537  0.00  0.00    +0.000 N 
ATOM     23  C   UNL     1      -3.048  12.492  22.422  0.00  0.00    +0.000 C 
ATOM     24  C   UNL     1      -3.232  13.852  21.778  0.00  0.00    +0.000 C 
ATOM     25  C   UNL     1      -2.037  14.652  22.281  0.00  0.00    +0.000 C 
ATOM     26  C   UNL     1      -0.978  13.598  22.484  0.00  0.00    +0.000 C 
ATOM     27  O   UNL     1       0.210  13.814  22.647  0.00  0.00    +0.000 OA
ENDBRANCH  21  22
ENDBRANCH  18  21
ENDBRANCH   2  15
TORSDOF 4
ENDMDL
MODEL 5
REMARK VINA RESULT:      -8.0      1.829      2.203
REMARK  Name = 
REMARK  4 active torsions:
REMARK  status: ('A' for Active; 'I' for Inactive)
REMARK    1  A    between atoms: C_2  and  C_14
REMARK    2  A    between atoms: N_3  and  C_4
REMARK    3  A    between atoms: C_17  and  C_18
REMARK    4  A    between atoms: C_18  and  N_19
REMARK                            x       y       z     vdW  Elec       q    Type
REMARK                         _______ _______ _______ _____ _____    ______ ____
ROOT
ATOM      1  O   UNL     1       1.998  10.155  17.631  0.00  0.00    +0.000 OA
ATOM      2  C   UNL     1       1.765   9.211  18.382  0.00  0.00    +0.000 C 
ATOM      3  N   UNL     1       0.842   9.209  19.417  0.00  0.00    +0.000 N 
ATOM      4  H   UNL     1       1.021   8.569  20.177  0.00  0.00    +0.000 HD
ENDROOT
BRANCH   3   5
ATOM      5  C   UNL     1       0.037  10.341  19.691  0.00  0.00    +0.000 A 
ATOM      6  C   UNL     1       0.421  11.230  20.705  0.00  0.00    +0.000 A 
ATOM      7  C   UNL     1      -0.340  12.362  20.984  0.00  0.00    +0.000 A 
ATOM      8  C   UNL     1      -1.502  12.604  20.262  0.00  0.00    +0.000 A 
ATOM      9  C   UNL     1      -1.911  11.729  19.243  0.00  0.00    +0.000 A 
ATOM     10  C   UNL     1      -1.139  10.579  18.949  0.00  0.00    +0.000 A 
ATOM     11  C   UNL     1      -1.595   9.607  17.885  0.00  0.00    +0.000 C 
ATOM     12  C   UNL     1      -3.074   9.739  17.525  0.00  0.00    +0.000 C 
ATOM     13  C   UNL     1      -3.428  11.197  17.285  0.00  0.00    +0.000 C 
ATOM     14  C   UNL     1      -3.234  11.997  18.567  0.00  0.00    +0.000 C 
ENDBRANCH   3   5
BRANCH   2  15
ATOM     15  C   UNL     1       2.614   7.997  18.270  0.00  0.00    +0.000 A 
ATOM     16  C   UNL     1       2.401   6.961  19.185  0.00  0.00    +0.000 A 
ATOM     17  C   UNL     1       3.196   5.814  19.145  0.00  0.00    +0.000 A 
ATOM     18  C   UNL     1       4.220   5.694  18.194  0.00  0.00    +0.000 A 
ATOM     19  C   UNL     1       4.433   6.742  17.285  0.00  0.00    +0.000 A 
ATOM     20  C   UNL     1       3.634   7.893  17.320  0.00  0.00    +0.000 A 
BRANCH  18  21
ATOM     21  C   UNL     1       5.037   4.421  18.119  0.00  0.00    +0.000 C 
BRANCH  21  22
ATOM     22  N   UNL     1       5.673   4.261  16.821  0.00  0.00    +0.000 N 
ATOM     23  C   UNL     1       4.924   4.200  15.591  0.00  0.00    +0.000 C 
ATOM     24  C   UNL     1       5.992   3.966  14.541  0.00  0.00    +0.000 C 
ATOM     25  C   UNL     1       7.220   4.662  15.114  0.00  0.00    +0.000 C 
ATOM     26  C   UNL     1       7.012   4.551  16.604  0.00  0.00    +0.000 C 
ATOM     27  O   UNL     1       7.864   4.756  17.452  0.00  0.00    +0.000 OA
ENDBRANCH  21  22
ENDBRANCH  18  21
ENDBRANCH   2  15
TORSDOF 4
ENDMDL
MODEL 6
REMARK VINA RESULT:      -8.0      6.291      8.785
REMARK  Name = 
REMARK  4 active torsions:
REMARK  status: ('A' for Active; 'I' for Inactive)
REMARK    1  A    between atoms: C_2  and  C_14
REMARK    2  A    between atoms: N_3  and  C_4
REMARK    3  A    between atoms: C_17  and  C_18
REMARK    4  A    between atoms: C_18  and  N_19
REMARK                            x       y       z     vdW  Elec       q    Type
REMARK                         _______ _______ _______ _____ _____    ______ ____
ROOT
ATOM      1  O   UNL     1       8.274  10.461  17.469  0.00  0.00    +0.000 OA
ATOM      2  C   UNL     1       8.583   9.631  18.321  0.00  0.00    +0.000 C 
ATOM      3  N   UNL     1       9.477   9.833  19.361  0.00  0.00    +0.000 N 
ATOM      4  H   UNL     1       9.937   9.010  19.723  0.00  0.00    +0.000 HD
ENDROOT
BRANCH   3   5
ATOM      5  C   UNL     1      10.121  11.079  19.551  0.00  0.00    +0.000 A 
ATOM      6  C   UNL     1      11.177  11.445  18.704  0.00  0.00    +0.000 A 
ATOM      7  C   UNL     1      11.816  12.672  18.853  0.00  0.00    +0.000 A 
ATOM      8  C   UNL     1      11.416  13.537  19.864  0.00  0.00    +0.000 A 
ATOM      9  C   UNL     1      10.362  13.195  20.727  0.00  0.00    +0.000 A 
ATOM     10  C   UNL     1       9.703  11.951  20.577  0.00  0.00    +0.000 A 
ATOM     11  C   UNL     1       8.598  11.555  21.530  0.00  0.00    +0.000 C 
ATOM     12  C   UNL     1       8.591  12.356  22.831  0.00  0.00    +0.000 C 
ATOM     13  C   UNL     1       8.706  13.842  22.533  0.00  0.00    +0.000 C 
ATOM     14  C   UNL     1      10.044  14.135  21.865  0.00  0.00    +0.000 C 
ENDBRANCH   3   5
BRANCH   2  15
ATOM     15  C   UNL     1       8.058   8.249  18.177  0.00  0.00    +0.000 A 
ATOM     16  C   UNL     1       7.126   8.002  17.163  0.00  0.00    +0.000 A 
ATOM     17  C   UNL     1       6.576   6.729  17.009  0.00  0.00    +0.000 A 
ATOM     18  C   UNL     1       6.944   5.687  17.873  0.00  0.00    +0.000 A 
ATOM     19  C   UNL     1       7.873   5.945  18.894  0.00  0.00    +0.000 A 
ATOM     20  C   UNL     1       8.431   7.222  19.049  0.00  0.00    +0.000 A 
BRANCH  18  21
ATOM     21  C   UNL     1       6.389   4.295  17.660  0.00  0.00    +0.000 C 
BRANCH  21  22
ATOM     22  N   UNL     1       4.971   4.223  17.977  0.00  0.00    +0.000 N 
ATOM     23  C   UNL     1       3.944   4.596  17.037  0.00  0.00    +0.000 C 
ATOM     24  C   UNL     1       2.663   4.420  17.828  0.00  0.00    +0.000 C 
ATOM     25  C   UNL     1       2.990   3.290  18.796  0.00  0.00    +0.000 C 
ATOM     26  C   UNL     1       4.475   3.441  19.011  0.00  0.00    +0.000 C 
ATOM     27  O   UNL     1       5.118   2.903  19.896  0.00  0.00    +0.000 OA
ENDBRANCH  21  22
ENDBRANCH  18  21
ENDBRANCH   2  15
TORSDOF 4
ENDMDL
MODEL 7
REMARK VINA RESULT:      -7.9      1.984      2.526
REMARK  Name = 
REMARK  4 active torsions:
REMARK  status: ('A' for Active; 'I' for Inactive)
REMARK    1  A    between atoms: C_2  and  C_14
REMARK    2  A    between atoms: N_3  and  C_4
REMARK    3  A    between atoms: C_17  and  C_18
REMARK    4  A    between atoms: C_18  and  N_19
REMARK                            x       y       z     vdW  Elec       q    Type
REMARK                         _______ _______ _______ _____ _____    ______ ____
ROOT
ATOM      1  O   UNL     1       0.070   9.713  17.844  0.00  0.00    +0.000 OA
ATOM      2  C   UNL     1       0.945   9.631  18.701  0.00  0.00    +0.000 C 
ATOM      3  N   UNL     1       1.224  10.585  19.667  0.00  0.00    +0.000 N 
ATOM      4  H   UNL     1       2.168  10.598  20.027  0.00  0.00    +0.000 HD
ENDROOT
BRANCH   3   5
ATOM      5  C   UNL     1       0.472  11.781  19.764  0.00  0.00    +0.000 A 
ATOM      6  C   UNL     1       0.674  12.800  18.823  0.00  0.00    +0.000 A 
ATOM      7  C   UNL     1      -0.065  13.978  18.881  0.00  0.00    +0.000 A 
ATOM      8  C   UNL     1      -1.000  14.154  19.893  0.00  0.00    +0.000 A 
ATOM      9  C   UNL     1      -1.220  13.150  20.851  0.00  0.00    +0.000 A 
ATOM     10  C   UNL     1      -0.477  11.946  20.794  0.00  0.00    +0.000 A 
ATOM     11  C   UNL     1      -0.675  10.879  21.846  0.00  0.00    +0.000 C 
ATOM     12  C   UNL     1      -1.353  11.387  23.118  0.00  0.00    +0.000 C 
ATOM     13  C   UNL     1      -2.585  12.205  22.765  0.00  0.00    +0.000 C 
ATOM     14  C   UNL     1      -2.177  13.446  21.980  0.00  0.00    +0.000 C 
ENDBRANCH   3   5
BRANCH   2  15
ATOM     15  C   UNL     1       1.875   8.474  18.647  0.00  0.00    +0.000 A 
ATOM     16  C   UNL     1       1.884   7.587  19.729  0.00  0.00    +0.000 A 
ATOM     17  C   UNL     1       2.765   6.504  19.742  0.00  0.00    +0.000 A 
ATOM     18  C   UNL     1       3.655   6.300  18.678  0.00  0.00    +0.000 A 
ATOM     19  C   UNL     1       3.647   7.200  17.600  0.00  0.00    +0.000 A 
ATOM     20  C   UNL     1       2.761   8.286  17.582  0.00  0.00    +0.000 A 
BRANCH  18  21
ATOM     21  C   UNL     1       4.564   5.089  18.673  0.00  0.00    +0.000 C 
BRANCH  21  22
ATOM     22  N   UNL     1       3.816   3.852  18.515  0.00  0.00    +0.000 N 
ATOM     23  C   UNL     1       2.938   3.611  17.397  0.00  0.00    +0.000 C 
ATOM     24  C   UNL     1       2.348   2.248  17.701  0.00  0.00    +0.000 C 
ATOM     25  C   UNL     1       3.453   1.543  18.478  0.00  0.00    +0.000 C 
ATOM     26  C   UNL     1       4.167   2.678  19.167  0.00  0.00    +0.000 C 
ATOM     27  O   UNL     1       4.964   2.558  20.082  0.00  0.00    +0.000 OA
ENDBRANCH  21  22
ENDBRANCH  18  21
ENDBRANCH   2  15
TORSDOF 4
ENDMDL
MODEL 8
REMARK VINA RESULT:      -7.8      1.866      2.619
REMARK  Name = 
REMARK  4 active torsions:
REMARK  status: ('A' for Active; 'I' for Inactive)
REMARK    1  A    between atoms: C_2  and  C_14
REMARK    2  A    between atoms: N_3  and  C_4
REMARK    3  A    between atoms: C_17  and  C_18
REMARK    4  A    between atoms: C_18  and  N_19
REMARK                            x       y       z     vdW  Elec       q    Type
REMARK                         _______ _______ _______ _____ _____    ______ ____
ROOT
ATOM      1  O   UNL     1       0.908   8.079  21.257  0.00  0.00    +0.000 OA
ATOM      2  C   UNL     1       1.409   8.181  20.140  0.00  0.00    +0.000 C 
ATOM      3  N   UNL     1       1.273   9.267  19.288  0.00  0.00    +0.000 N 
ATOM      4  H   UNL     1       1.374   9.078  18.301  0.00  0.00    +0.000 HD
ENDROOT
BRANCH   3   5
ATOM      5  C   UNL     1       0.528  10.411  19.662  0.00  0.00    +0.000 A 
ATOM      6  C   UNL     1       1.025  11.261  20.660  0.00  0.00    +0.000 A 
ATOM      7  C   UNL     1       0.324  12.404  21.035  0.00  0.00    +0.000 A 
ATOM      8  C   UNL     1      -0.889  12.697  20.425  0.00  0.00    +0.000 A 
ATOM      9  C   UNL     1      -1.410  11.862  19.423  0.00  0.00    +0.000 A 
ATOM     10  C   UNL     1      -0.700  10.701  19.033  0.00  0.00    +0.000 A 
ATOM     11  C   UNL     1      -1.276   9.773  17.988  0.00  0.00    +0.000 C 
ATOM     12  C   UNL     1      -2.776   9.953  17.763  0.00  0.00    +0.000 C 
ATOM     13  C   UNL     1      -3.108  11.426  17.594  0.00  0.00    +0.000 C 
ATOM     14  C   UNL     1      -2.779  12.184  18.875  0.00  0.00    +0.000 C 
ENDBRANCH   3   5
BRANCH   2  15
ATOM     15  C   UNL     1       2.129   7.008  19.583  0.00  0.00    +0.000 A 
ATOM     16  C   UNL     1       2.746   7.148  18.335  0.00  0.00    +0.000 A 
ATOM     17  C   UNL     1       3.405   6.064  17.752  0.00  0.00    +0.000 A 
ATOM     18  C   UNL     1       3.447   4.824  18.405  0.00  0.00    +0.000 A 
ATOM     19  C   UNL     1       2.817   4.689  19.652  0.00  0.00    +0.000 A 
ATOM     20  C   UNL     1       2.159   5.776  20.243  0.00  0.00    +0.000 A 
BRANCH  18  21
ATOM     21  C   UNL     1       4.216   3.673  17.792  0.00  0.00    +0.000 C 
BRANCH  21  22
ATOM     22  N   UNL     1       5.406   4.128  17.090  0.00  0.00    +0.000 N 
ATOM     23  C   UNL     1       5.396   4.478  15.692  0.00  0.00    +0.000 C 
ATOM     24  C   UNL     1       6.846   4.818  15.405  0.00  0.00    +0.000 C 
ATOM     25  C   UNL     1       7.356   5.366  16.732  0.00  0.00    +0.000 C 
ATOM     26  C   UNL     1       6.514   4.640  17.750  0.00  0.00    +0.000 C 
ATOM     27  O   UNL     1       6.743   4.588  18.947  0.00  0.00    +0.000 OA
ENDBRANCH  21  22
ENDBRANCH  18  21
ENDBRANCH   2  15
TORSDOF 4
ENDMDL
MODEL 9
REMARK VINA RESULT:      -7.8      1.721      2.348
REMARK  Name = 
REMARK  4 active torsions:
REMARK  status: ('A' for Active; 'I' for Inactive)
REMARK    1  A    between atoms: C_2  and  C_14
REMARK    2  A    between atoms: N_3  and  C_4
REMARK    3  A    between atoms: C_17  and  C_18
REMARK    4  A    between atoms: C_18  and  N_19
REMARK                            x       y       z     vdW  Elec       q    Type
REMARK                         _______ _______ _______ _____ _____    ______ ____
ROOT
ATOM      1  O   UNL     1       0.556   8.319  21.386  0.00  0.00    +0.000 OA
ATOM      2  C   UNL     1       1.106   8.442  20.295  0.00  0.00    +0.000 C 
ATOM      3  N   UNL     1       0.959   9.517  19.431  0.00  0.00    +0.000 N 
ATOM      4  H   UNL     1       1.117   9.329  18.451  0.00  0.00    +0.000 HD
ENDROOT
BRANCH   3   5
ATOM      5  C   UNL     1       0.142  10.625  19.761  0.00  0.00    +0.000 A 
ATOM      6  C   UNL     1       0.563  11.519  20.755  0.00  0.00    +0.000 A 
ATOM      7  C   UNL     1      -0.209  12.629  21.087  0.00  0.00    +0.000 A 
ATOM      8  C   UNL     1      -1.419  12.842  20.440  0.00  0.00    +0.000 A 
ATOM      9  C   UNL     1      -1.866  11.961  19.441  0.00  0.00    +0.000 A 
ATOM     10  C   UNL     1      -1.083  10.834  19.094  0.00  0.00    +0.000 A 
ATOM     11  C   UNL     1      -1.577   9.856  18.052  0.00  0.00    +0.000 C 
ATOM     12  C   UNL     1      -3.078   9.948  17.784  0.00  0.00    +0.000 C 
ATOM     13  C   UNL     1      -3.485  11.397  17.576  0.00  0.00    +0.000 C 
ATOM     14  C   UNL     1      -3.235  12.196  18.849  0.00  0.00    +0.000 C 
ENDBRANCH   3   5
BRANCH   2  15
ATOM     15  C   UNL     1       1.908   7.303  19.780  0.00  0.00    +0.000 A 
ATOM     16  C   UNL     1       2.005   6.156  20.575  0.00  0.00    +0.000 A 
ATOM     17  C   UNL     1       2.776   5.072  20.153  0.00  0.00    +0.000 A 
ATOM     18  C   UNL     1       3.468   5.125  18.935  0.00  0.00    +0.000 A 
ATOM     19  C   UNL     1       3.374   6.283  18.147  0.00  0.00    +0.000 A 
ATOM     20  C   UNL     1       2.597   7.372  18.566  0.00  0.00    +0.000 A 
BRANCH  18  21
ATOM     21  C   UNL     1       4.252   3.921  18.457  0.00  0.00    +0.000 C 
BRANCH  21  22
ATOM     22  N   UNL     1       5.521   4.303  17.857  0.00  0.00    +0.000 N 
ATOM     23  C   UNL     1       5.706   4.407  16.432  0.00  0.00    +0.000 C 
ATOM     24  C   UNL     1       7.174   4.760  16.293  0.00  0.00    +0.000 C 
ATOM     25  C   UNL     1       7.475   5.551  17.560  0.00  0.00    +0.000 C 
ATOM     26  C   UNL     1       6.510   4.973  18.564  0.00  0.00    +0.000 C 
ATOM     27  O   UNL     1       6.565   5.138  19.770  0.00  0.00    +0.000 OA
ENDBRANCH  21  22
ENDBRANCH  18  21
ENDBRANCH   2  15
TORSDOF 4
ENDMDL
