MODEL 1
REMARK VINA RESULT:      -8.7      0.000      0.000
REMARK  Name = 
REMARK  5 active torsions:
REMARK  status: ('A' for Active; 'I' for Inactive)
REMARK    1  A    between atoms: C_7  and  C_8
REMARK    2  A    between atoms: C_11  and  C_12
REMARK    3  A    between atoms: C_12  and  C_13
REMARK    4  A    between atoms: C_13  and  C_14
REMARK    5  A    between atoms: C_17  and  C_18
REMARK                            x       y       z     vdW  Elec       q    Type
REMARK                         _______ _______ _______ _____ _____    ______ ____
ROOT
ATOM      1  C   UNL     1       5.332   6.327  15.693  0.00  0.00    +0.000 C 
ENDROOT
BRANCH   1   5
ATOM      2  C   UNL     1       3.182   5.510  18.413  0.00  0.00    +0.000 A 
ATOM      3  N   UNL     1       3.028   6.849  18.410  0.00  0.00    +0.000 NA
ATOM      4  O   UNL     1       3.856   7.280  17.374  0.00  0.00    +0.000 OA
ATOM      5  C   UNL     1       4.431   6.162  16.854  0.00  0.00    +0.000 A 
ATOM      6  N   UNL     1       4.061   5.059  17.456  0.00  0.00    +0.000 NA
BRANCH   2  13
ATOM      7  F   UNL     1       1.032   3.835  17.567  0.00  0.00    +0.000 F 
ATOM      8  C   UNL     1       1.414   3.815  18.854  0.00  0.00    +0.000 A 
ATOM      9  C   UNL     1       0.712   2.973  19.716  0.00  0.00    +0.000 A 
ATOM     10  C   UNL     1       1.058   2.911  21.062  0.00  0.00    +0.000 A 
ATOM     11  C   UNL     1       2.108   3.690  21.543  0.00  0.00    +0.000 A 
ATOM     12  C   UNL     1       2.810   4.534  20.676  0.00  0.00    +0.000 A 
ATOM     13  C   UNL     1       2.470   4.613  19.314  0.00  0.00    +0.000 A 
ENDBRANCH   2  13
ENDBRANCH   1   5
BRANCH   1  14
ATOM     14  C   UNL     1       6.709   5.750  16.010  0.00  0.00    +0.000 C 
BRANCH  14  15
ATOM     15  C   UNL     1       7.339   6.474  17.132  0.00  0.00    +0.000 A 
ATOM     16  N   UNL     1       7.764   6.017  18.288  0.00  0.00    +0.000 NA
ATOM     17  N   UNL     1       8.286   7.103  18.962  0.00  0.00    +0.000 NA
ATOM     18  C   UNL     1       8.144   8.145  18.168  0.00  0.00    +0.000 A 
ATOM     19  O   UNL     1       7.545   7.817  16.978  0.00  0.00    +0.000 OA
BRANCH  18  20
ATOM     20  C   UNL     1       8.553   9.531  18.354  0.00  0.00    +0.000 A 
ATOM     21  C   UNL     1       9.443   9.861  19.390  0.00  0.00    +0.000 A 
ATOM     22  C   UNL     1       9.875  11.180  19.572  0.00  0.00    +0.000 A 
ATOM     23  C   UNL     1       9.416  12.181  18.721  0.00  0.00    +0.000 A 
ATOM     24 CL   UNL     1       9.955  13.801  18.935  0.00  0.00    +0.000 Cl
ATOM     25  C   UNL     1       8.525  11.878  17.695  0.00  0.00    +0.000 A 
ATOM     26  C   UNL     1       8.094  10.559  17.514  0.00  0.00    +0.000 A 
ENDBRANCH  18  20
ENDBRANCH  14  15
ENDBRANCH   1  14
TORSDOF 5
ENDMDL
MODEL 2
REMARK VINA RESULT:      -8.6      1.591      1.787
REMARK  Name = 
REMARK  5 active torsions:
REMARK  status: ('A' for Active; 'I' for Inactive)
REMARK    1  A    between atoms: C_7  and  C_8
REMARK    2  A    between atoms: C_11  and  C_12
REMARK    3  A    between atoms: C_12  and  C_13
REMARK    4  A    between atoms: C_13  and  C_14
REMARK    5  A    between atoms: C_17  and  C_18
REMARK                            x       y       z     vdW  Elec       q    Type
REMARK                         _______ _______ _______ _____ _____    ______ ____
ROOT
ATOM      1  C   UNL     1       7.278   4.861  17.279  0.00  0.00    +0.000 C 
ENDROOT
BRANCH   1   5
ATOM      2  C   UNL     1       4.002   4.045  18.416  0.00  0.00    +0.000 A 
ATOM      3  N   UNL     1       3.712   4.387  17.145  0.00  0.00    +0.000 NA
ATOM      4  O   UNL     1       4.945   4.748  16.604  0.00  0.00    +0.000 OA
ATOM      5  C   UNL     1       5.860   4.591  17.598  0.00  0.00    +0.000 A 
ATOM      6  N   UNL     1       5.337   4.173  18.724  0.00  0.00    +0.000 NA
BRANCH   2  13
ATOM      7  F   UNL     1       1.247   3.687  17.766  0.00  0.00    +0.000 F 
ATOM      8  C   UNL     1       1.671   3.403  19.007  0.00  0.00    +0.000 A 
ATOM      9  C   UNL     1       0.719   2.957  19.923  0.00  0.00    +0.000 A 
ATOM     10  C   UNL     1       1.097   2.650  21.226  0.00  0.00    +0.000 A 
ATOM     11  C   UNL     1       2.429   2.786  21.610  0.00  0.00    +0.000 A 
ATOM     12  C   UNL     1       3.383   3.234  20.689  0.00  0.00    +0.000 A 
ATOM     13  C   UNL     1       3.016   3.554  19.370  0.00  0.00    +0.000 A 
ENDBRANCH   2  13
ENDBRANCH   1   5
BRANCH   1  14
ATOM     14  C   UNL     1       7.910   5.716  18.375  0.00  0.00    +0.000 C 
BRANCH  14  15
ATOM     15  C   UNL     1       7.868   7.148  18.017  0.00  0.00    +0.000 A 
ATOM     16  N   UNL     1       7.150   7.761  17.103  0.00  0.00    +0.000 NA
ATOM     17  N   UNL     1       7.474   9.100  17.194  0.00  0.00    +0.000 NA
ATOM     18  C   UNL     1       8.365   9.209  18.158  0.00  0.00    +0.000 A 
ATOM     19  O   UNL     1       8.666   7.999  18.731  0.00  0.00    +0.000 OA
BRANCH  18  20
ATOM     20  C   UNL     1       9.020  10.392  18.703  0.00  0.00    +0.000 A 
ATOM     21  C   UNL     1       9.391  10.418  20.058  0.00  0.00    +0.000 A 
ATOM     22  C   UNL     1      10.048  11.529  20.600  0.00  0.00    +0.000 A 
ATOM     23  C   UNL     1      10.335  12.625  19.791  0.00  0.00    +0.000 A 
ATOM     24 CL   UNL     1      11.153  13.986  20.452  0.00  0.00    +0.000 Cl
ATOM     25  C   UNL     1       9.965  12.624  18.449  0.00  0.00    +0.000 A 
ATOM     26  C   UNL     1       9.309  11.513  17.908  0.00  0.00    +0.000 A 
ENDBRANCH  18  20
ENDBRANCH  14  15
ENDBRANCH   1  14
TORSDOF 5
ENDMDL
MODEL 3
REMARK VINA RESULT:      -8.4      1.686      2.268
REMARK  Name = 
REMARK  5 active torsions:
REMARK  status: ('A' for Active; 'I' for Inactive)
REMARK    1  A    between atoms: C_7  and  C_8
REMARK    2  A    between atoms: C_11  and  C_12
REMARK    3  A    between atoms: C_12  and  C_13
REMARK    4  A    between atoms: C_13  and  C_14
REMARK    5  A    between atoms: C_17  and  C_18
REMARK                            x       y       z     vdW  Elec       q    Type
REMARK                         _______ _______ _______ _____ _____    ______ ____
ROOT
ATOM      1  C   UNL     1       7.407   4.914  17.620  0.00  0.00    +0.000 C 
ENDROOT
BRANCH   1   5
ATOM      2  C   UNL     1       3.922   4.522  18.245  0.00  0.00    +0.000 A 
ATOM      3  N   UNL     1       3.860   5.338  17.175  0.00  0.00    +0.000 NA
ATOM      4  O   UNL     1       5.196   5.574  16.854  0.00  0.00    +0.000 OA
ATOM      5  C   UNL     1       5.936   4.880  17.760  0.00  0.00    +0.000 A 
ATOM      6  N   UNL     1       5.209   4.229  18.634  0.00  0.00    +0.000 NA
BRANCH   2  13
ATOM      7  F   UNL     1       2.470   5.924  20.262  0.00  0.00    +0.000 F 
ATOM      8  C   UNL     1       2.076   4.692  19.906  0.00  0.00    +0.000 A 
ATOM      9  C   UNL     1       0.971   4.158  20.567  0.00  0.00    +0.000 A 
ATOM     10  C   UNL     1       0.515   2.883  20.245  0.00  0.00    +0.000 A 
ATOM     11  C   UNL     1       1.166   2.146  19.257  0.00  0.00    +0.000 A 
ATOM     12  C   UNL     1       2.275   2.684  18.596  0.00  0.00    +0.000 A 
ATOM     13  C   UNL     1       2.751   3.968  18.914  0.00  0.00    +0.000 A 
ENDBRANCH   2  13
ENDBRANCH   1   5
BRANCH   1  14
ATOM     14  C   UNL     1       8.015   5.820  18.688  0.00  0.00    +0.000 C 
BRANCH  14  15
ATOM     15  C   UNL     1       8.067   7.221  18.225  0.00  0.00    +0.000 A 
ATOM     16  N   UNL     1       7.558   7.763  17.141  0.00  0.00    +0.000 NA
ATOM     17  N   UNL     1       7.876   9.105  17.197  0.00  0.00    +0.000 NA
ATOM     18  C   UNL     1       8.555   9.287  18.311  0.00  0.00    +0.000 A 
ATOM     19  O   UNL     1       8.716   8.124  19.021  0.00  0.00    +0.000 OA
BRANCH  18  20
ATOM     20  C   UNL     1       9.102  10.508  18.890  0.00  0.00    +0.000 A 
ATOM     21  C   UNL     1       9.070  11.703  18.152  0.00  0.00    +0.000 A 
ATOM     22  C   UNL     1       9.561  12.895  18.695  0.00  0.00    +0.000 A 
ATOM     23  C   UNL     1      10.092  12.901  19.982  0.00  0.00    +0.000 A 
ATOM     24 CL   UNL     1      10.686  14.368  20.656  0.00  0.00    +0.000 Cl
ATOM     25  C   UNL     1      10.144  11.726  20.726  0.00  0.00    +0.000 A 
ATOM     26  C   UNL     1       9.653  10.534  20.182  0.00  0.00    +0.000 A 
ENDBRANCH  18  20
ENDBRANCH  14  15
ENDBRANCH   1  14
TORSDOF 5
ENDMDL
MODEL 4
REMARK VINA RESULT:      -8.3      4.442      9.643
REMARK  Name = 
REMARK  5 active torsions:
REMARK  status: ('A' for Active; 'I' for Inactive)
REMARK    1  A    between atoms: C_7  and  C_8
REMARK    2  A    between atoms: C_11  and  C_12
REMARK    3  A    between atoms: C_12  and  C_13
REMARK    4  A    between atoms: C_13  and  C_14
REMARK    5  A    between atoms: C_17  and  C_18
REMARK                            x       y       z     vdW  Elec       q    Type
REMARK                         _______ _______ _______ _____ _____    ______ ____
ROOT
ATOM      1  C   UNL     1       7.527   8.539  17.730  0.00  0.00    +0.000 C 
ENDROOT
BRANCH   1   5
ATOM      2  C   UNL     1       9.473  11.453  18.375  0.00  0.00    +0.000 A 
ATOM      3  N   UNL     1       9.885  10.685  19.402  0.00  0.00    +0.000 NA
ATOM      4  O   UNL     1       9.159   9.505  19.253  0.00  0.00    +0.000 OA
ATOM      5  C   UNL     1       8.377   9.673  18.152  0.00  0.00    +0.000 A 
ATOM      6  N   UNL     1       8.524  10.845  17.586  0.00  0.00    +0.000 NA
BRANCH   2  13
ATOM      7  F   UNL     1       8.454  13.818  19.603  0.00  0.00    +0.000 F 
ATOM      8  C   UNL     1       9.456  13.918  18.717  0.00  0.00    +0.000 A 
ATOM      9  C   UNL     1       9.935  15.197  18.434  0.00  0.00    +0.000 A 
ATOM     10  C   UNL     1      10.970  15.366  17.520  0.00  0.00    +0.000 A 
ATOM     11  C   UNL     1      11.528  14.254  16.893  0.00  0.00    +0.000 A 
ATOM     12  C   UNL     1      11.045  12.972  17.178  0.00  0.00    +0.000 A 
ATOM     13  C   UNL     1       9.996  12.785  18.094  0.00  0.00    +0.000 A 
ENDBRANCH   2  13
ENDBRANCH   1   5
BRANCH   1  14
ATOM     14  C   UNL     1       8.078   7.232  18.294  0.00  0.00    +0.000 C 
BRANCH  14  15
ATOM     15  C   UNL     1       7.334   6.073  17.762  0.00  0.00    +0.000 A 
ATOM     16  N   UNL     1       7.688   5.201  16.845  0.00  0.00    +0.000 NA
ATOM     17  N   UNL     1       6.639   4.311  16.736  0.00  0.00    +0.000 NA
ATOM     18  C   UNL     1       5.719   4.702  17.595  0.00  0.00    +0.000 A 
ATOM     19  O   UNL     1       6.096   5.825  18.288  0.00  0.00    +0.000 OA
BRANCH  18  20
ATOM     20  C   UNL     1       4.429   4.110  17.925  0.00  0.00    +0.000 A 
ATOM     21  C   UNL     1       4.354   3.108  18.907  0.00  0.00    +0.000 A 
ATOM     22  C   UNL     1       3.124   2.545  19.265  0.00  0.00    +0.000 A 
ATOM     23  C   UNL     1       1.957   2.977  18.639  0.00  0.00    +0.000 A 
ATOM     24 CL   UNL     1       0.443   2.295  19.085  0.00  0.00    +0.000 Cl
ATOM     25  C   UNL     1       2.011   3.961  17.656  0.00  0.00    +0.000 A 
ATOM     26  C   UNL     1       3.241   4.524  17.299  0.00  0.00    +0.000 A 
ENDBRANCH  18  20
ENDBRANCH  14  15
ENDBRANCH   1  14
TORSDOF 5
ENDMDL
MODEL 5
REMARK VINA RESULT:      -8.2      1.427      1.556
REMARK  Name = 
REMARK  5 active torsions:
REMARK  status: ('A' for Active; 'I' for Inactive)
REMARK    1  A    between atoms: C_7  and  C_8
REMARK    2  A    between atoms: C_11  and  C_12
REMARK    3  A    between atoms: C_12  and  C_13
REMARK    4  A    between atoms: C_13  and  C_14
REMARK    5  A    between atoms: C_17  and  C_18
REMARK                            x       y       z     vdW  Elec       q    Type
REMARK                         _______ _______ _______ _____ _____    ______ ____
ROOT
ATOM      1  C   UNL     1       6.830   4.973  16.594  0.00  0.00    +0.000 C 
ENDROOT
BRANCH   1   5
ATOM      2  C   UNL     1       3.883   3.699  18.138  0.00  0.00    +0.000 A 
ATOM      3  N   UNL     1       3.665   3.280  16.876  0.00  0.00    +0.000 NA
ATOM      4  O   UNL     1       4.771   3.750  16.170  0.00  0.00    +0.000 OA
ATOM      5  C   UNL     1       5.549   4.409  17.071  0.00  0.00    +0.000 A 
ATOM      6  N   UNL     1       5.049   4.414  18.282  0.00  0.00    +0.000 NA
BRANCH   2  13
ATOM      7  F   UNL     1       1.090   4.287  18.112  0.00  0.00    +0.000 F 
ATOM      8  C   UNL     1       1.632   3.720  19.200  0.00  0.00    +0.000 A 
ATOM      9  C   UNL     1       0.783   3.463  20.277  0.00  0.00    +0.000 A 
ATOM     10  C   UNL     1       1.287   2.879  21.436  0.00  0.00    +0.000 A 
ATOM     11  C   UNL     1       2.638   2.550  21.514  0.00  0.00    +0.000 A 
ATOM     12  C   UNL     1       3.487   2.810  20.432  0.00  0.00    +0.000 A 
ATOM     13  C   UNL     1       2.996   3.404  19.257  0.00  0.00    +0.000 A 
ENDBRANCH   2  13
ENDBRANCH   1   5
BRANCH   1  14
ATOM     14  C   UNL     1       6.695   6.480  16.388  0.00  0.00    +0.000 C 
BRANCH  14  15
ATOM     15  C   UNL     1       7.473   7.223  17.399  0.00  0.00    +0.000 A 
ATOM     16  N   UNL     1       8.055   6.787  18.493  0.00  0.00    +0.000 NA
ATOM     17  N   UNL     1       8.664   7.883  19.068  0.00  0.00    +0.000 NA
ATOM     18  C   UNL     1       8.413   8.911  18.283  0.00  0.00    +0.000 A 
ATOM     19  O   UNL     1       7.655   8.563  17.193  0.00  0.00    +0.000 OA
BRANCH  18  20
ATOM     20  C   UNL     1       8.843  10.300  18.385  0.00  0.00    +0.000 A 
ATOM     21  C   UNL     1       9.900  10.639  19.246  0.00  0.00    +0.000 A 
ATOM     22  C   UNL     1      10.352  11.960  19.341  0.00  0.00    +0.000 A 
ATOM     23  C   UNL     1       9.747  12.955  18.577  0.00  0.00    +0.000 A 
ATOM     24 CL   UNL     1      10.308  14.577  18.683  0.00  0.00    +0.000 Cl
ATOM     25  C   UNL     1       8.690  12.642  17.727  0.00  0.00    +0.000 A 
ATOM     26  C   UNL     1       8.239  11.321  17.632  0.00  0.00    +0.000 A 
ENDBRANCH  18  20
ENDBRANCH  14  15
ENDBRANCH   1  14
TORSDOF 5
ENDMDL
MODEL 6
REMARK VINA RESULT:      -8.2      2.411      3.614
REMARK  Name = 
REMARK  5 active torsions:
REMARK  status: ('A' for Active; 'I' for Inactive)
REMARK    1  A    between atoms: C_7  and  C_8
REMARK    2  A    between atoms: C_11  and  C_12
REMARK    3  A    between atoms: C_12  and  C_13
REMARK    4  A    between atoms: C_13  and  C_14
REMARK    5  A    between atoms: C_17  and  C_18
REMARK                            x       y       z     vdW  Elec       q    Type
REMARK                         _______ _______ _______ _____ _____    ______ ____
ROOT
ATOM      1  C   UNL     1       8.068   7.270  18.254  0.00  0.00    +0.000 C 
ENDROOT
BRANCH   1   5
ATOM      2  C   UNL     1       5.484   4.948  17.468  0.00  0.00    +0.000 A 
ATOM      3  N   UNL     1       6.428   4.520  16.608  0.00  0.00    +0.000 NA
ATOM      4  O   UNL     1       7.497   5.389  16.823  0.00  0.00    +0.000 OA
ATOM      5  C   UNL     1       7.096   6.257  17.790  0.00  0.00    +0.000 A 
ATOM      6  N   UNL     1       5.875   6.038  18.211  0.00  0.00    +0.000 NA
BRANCH   2  13
ATOM      7  F   UNL     1       3.048   6.413  17.727  0.00  0.00    +0.000 F 
ATOM      8  C   UNL     1       3.016   5.072  17.763  0.00  0.00    +0.000 A 
ATOM      9  C   UNL     1       1.772   4.467  17.944  0.00  0.00    +0.000 A 
ATOM     10  C   UNL     1       1.673   3.080  17.993  0.00  0.00    +0.000 A 
ATOM     11  C   UNL     1       2.819   2.300  17.857  0.00  0.00    +0.000 A 
ATOM     12  C   UNL     1       4.066   2.909  17.676  0.00  0.00    +0.000 A 
ATOM     13  C   UNL     1       4.183   4.309  17.630  0.00  0.00    +0.000 A 
ENDBRANCH   2  13
ENDBRANCH   1   5
BRANCH   1  14
ATOM     14  C   UNL     1       7.743   8.629  17.640  0.00  0.00    +0.000 C 
BRANCH  14  15
ATOM     15  C   UNL     1       8.544   9.698  18.270  0.00  0.00    +0.000 A 
ATOM     16  N   UNL     1       9.329   9.645  19.323  0.00  0.00    +0.000 NA
ATOM     17  N   UNL     1       9.853  10.913  19.476  0.00  0.00    +0.000 NA
ATOM     18  C   UNL     1       9.351  11.649  18.505  0.00  0.00    +0.000 A 
ATOM     19  O   UNL     1       8.504  10.937  17.693  0.00  0.00    +0.000 OA
BRANCH  18  20
ATOM     20  C   UNL     1       9.591  13.046  18.164  0.00  0.00    +0.000 A 
ATOM     21  C   UNL     1       8.529  13.965  18.206  0.00  0.00    +0.000 A 
ATOM     22  C   UNL     1       8.738  15.317  17.914  0.00  0.00    +0.000 A 
ATOM     23  C   UNL     1      10.013  15.762  17.572  0.00  0.00    +0.000 A 
ATOM     24 CL   UNL     1      10.275  17.425  17.223  0.00  0.00    +0.000 Cl
ATOM     25  C   UNL     1      11.077  14.866  17.514  0.00  0.00    +0.000 A 
ATOM     26  C   UNL     1      10.867  13.514  17.807  0.00  0.00    +0.000 A 
ENDBRANCH  18  20
ENDBRANCH  14  15
ENDBRANCH   1  14
TORSDOF 5
ENDMDL
MODEL 7
REMARK VINA RESULT:      -8.1      1.522      2.069
REMARK  Name = 
REMARK  5 active torsions:
REMARK  status: ('A' for Active; 'I' for Inactive)
REMARK    1  A    between atoms: C_7  and  C_8
REMARK    2  A    between atoms: C_11  and  C_12
REMARK    3  A    between atoms: C_12  and  C_13
REMARK    4  A    between atoms: C_13  and  C_14
REMARK    5  A    between atoms: C_17  and  C_18
REMARK                            x       y       z     vdW  Elec       q    Type
REMARK                         _______ _______ _______ _____ _____    ______ ____
ROOT
ATOM      1  C   UNL     1       6.692   5.868  16.635  0.00  0.00    +0.000 C 
ENDROOT
BRANCH   1   5
ATOM      2  C   UNL     1       4.374   4.106  18.687  0.00  0.00    +0.000 A 
ATOM      3  N   UNL     1       5.518   3.762  19.308  0.00  0.00    +0.000 NA
ATOM      4  O   UNL     1       6.510   4.395  18.561  0.00  0.00    +0.000 OA
ATOM      5  C   UNL     1       5.871   5.059  17.561  0.00  0.00    +0.000 A 
ATOM      6  N   UNL     1       4.570   4.909  17.587  0.00  0.00    +0.000 NA
BRANCH   2  13
ATOM      7  F   UNL     1       2.638   2.439  17.154  0.00  0.00    +0.000 F 
ATOM      8  C   UNL     1       2.229   2.890  18.349  0.00  0.00    +0.000 A 
ATOM      9  C   UNL     1       0.950   2.522  18.768  0.00  0.00    +0.000 A 
ATOM     10  C   UNL     1       0.467   2.962  19.997  0.00  0.00    +0.000 A 
ATOM     11  C   UNL     1       1.266   3.766  20.807  0.00  0.00    +0.000 A 
ATOM     12  C   UNL     1       2.549   4.134  20.383  0.00  0.00    +0.000 A 
ATOM     13  C   UNL     1       3.049   3.704  19.142  0.00  0.00    +0.000 A 
ENDBRANCH   2  13
ENDBRANCH   1   5
BRANCH   1  14
ATOM     14  C   UNL     1       6.396   7.353  16.830  0.00  0.00    +0.000 C 
BRANCH  14  15
ATOM     15  C   UNL     1       7.434   7.993  17.663  0.00  0.00    +0.000 A 
ATOM     16  N   UNL     1       8.224   7.463  18.569  0.00  0.00    +0.000 NA
ATOM     17  N   UNL     1       9.019   8.491  19.034  0.00  0.00    +0.000 NA
ATOM     18  C   UNL     1       8.660   9.575  18.377  0.00  0.00    +0.000 A 
ATOM     19  O   UNL     1       7.649   9.331  17.481  0.00  0.00    +0.000 OA
BRANCH  18  20
ATOM     20  C   UNL     1       9.191  10.931  18.438  0.00  0.00    +0.000 A 
ATOM     21  C   UNL     1       8.518  11.971  17.776  0.00  0.00    +0.000 A 
ATOM     22  C   UNL     1       8.989  13.287  17.844  0.00  0.00    +0.000 A 
ATOM     23  C   UNL     1      10.141  13.573  18.572  0.00  0.00    +0.000 A 
ATOM     24 CL   UNL     1      10.715  15.191  18.667  0.00  0.00    +0.000 Cl
ATOM     25  C   UNL     1      10.829  12.554  19.226  0.00  0.00    +0.000 A 
ATOM     26  C   UNL     1      10.357  11.239  19.158  0.00  0.00    +0.000 A 
ENDBRANCH  18  20
ENDBRANCH  14  15
ENDBRANCH   1  14
TORSDOF 5
ENDMDL
MODEL 8
REMARK VINA RESULT:      -8.1      2.303      3.262
REMARK  Name = 
REMARK  5 active torsions:
REMARK  status: ('A' for Active; 'I' for Inactive)
REMARK    1  A    between atoms: C_7  and  C_8
REMARK    2  A    between atoms: C_11  and  C_12
REMARK    3  A    between atoms: C_12  and  C_13
REMARK    4  A    between atoms: C_13  and  C_14
REMARK    5  A    between atoms: C_17  and  C_18
REMARK                            x       y       z     vdW  Elec       q    Type
REMARK                         _______ _______ _______ _____ _____    ______ ____
ROOT
ATOM      1  C   UNL     1       7.855   7.119  17.536  0.00  0.00    +0.000 C 
ENDROOT
BRANCH   1   5
ATOM      2  C   UNL     1       5.247   4.922  18.565  0.00  0.00    +0.000 A 
ATOM      3  N   UNL     1       5.973   4.943  19.700  0.00  0.00    +0.000 NA
ATOM      4  O   UNL     1       7.048   5.776  19.395  0.00  0.00    +0.000 OA
ATOM      5  C   UNL     1       6.871   6.176  18.108  0.00  0.00    +0.000 A 
ATOM      6  N   UNL     1       5.793   5.677  17.553  0.00  0.00    +0.000 NA
BRANCH   2  13
ATOM      7  F   UNL     1       2.789   6.199  17.879  0.00  0.00    +0.000 F 
ATOM      8  C   UNL     1       2.805   4.874  18.088  0.00  0.00    +0.000 A 
ATOM      9  C   UNL     1       1.593   4.194  17.971  0.00  0.00    +0.000 A 
ATOM     10  C   UNL     1       1.543   2.819  18.181  0.00  0.00    +0.000 A 
ATOM     11  C   UNL     1       2.708   2.126  18.503  0.00  0.00    +0.000 A 
ATOM     12  C   UNL     1       3.923   2.812  18.621  0.00  0.00    +0.000 A 
ATOM     13  C   UNL     1       3.989   4.201  18.418  0.00  0.00    +0.000 A 
ENDBRANCH   2  13
ENDBRANCH   1   5
BRANCH   1  14
ATOM     14  C   UNL     1       7.294   8.539  17.555  0.00  0.00    +0.000 C 
BRANCH  14  15
ATOM     15  C   UNL     1       8.267   9.483  18.139  0.00  0.00    +0.000 A 
ATOM     16  N   UNL     1       9.102   9.313  19.140  0.00  0.00    +0.000 NA
ATOM     17  N   UNL     1       9.797  10.498  19.267  0.00  0.00    +0.000 NA
ATOM     18  C   UNL     1       9.339  11.308  18.334  0.00  0.00    +0.000 A 
ATOM     19  O   UNL     1       8.356  10.725  17.573  0.00  0.00    +0.000 OA
BRANCH  18  20
ATOM     20  C   UNL     1       9.740  12.665  17.988  0.00  0.00    +0.000 A 
ATOM     21  C   UNL     1       8.906  13.744  18.323  0.00  0.00    +0.000 A 
ATOM     22  C   UNL     1       9.281  15.060  18.028  0.00  0.00    +0.000 A 
ATOM     23  C   UNL     1      10.495  15.307  17.393  0.00  0.00    +0.000 A 
ATOM     24 CL   UNL     1      10.964  16.924  17.041  0.00  0.00    +0.000 Cl
ATOM     25  C   UNL     1      11.331  14.251  17.042  0.00  0.00    +0.000 A 
ATOM     26  C   UNL     1      10.956  12.936  17.337  0.00  0.00    +0.000 A 
ENDBRANCH  18  20
ENDBRANCH  14  15
ENDBRANCH   1  14
TORSDOF 5
ENDMDL
MODEL 9
REMARK VINA RESULT:      -8.0      4.552      9.751
REMARK  Name = 
REMARK  5 active torsions:
REMARK  status: ('A' for Active; 'I' for Inactive)
REMARK    1  A    between atoms: C_7  and  C_8
REMARK    2  A    between atoms: C_11  and  C_12
REMARK    3  A    between atoms: C_12  and  C_13
REMARK    4  A    between atoms: C_13  and  C_14
REMARK    5  A    between atoms: C_17  and  C_18
REMARK                            x       y       z     vdW  Elec       q    Type
REMARK                         _______ _______ _______ _____ _____    ______ ____
ROOT
ATOM      1  C   UNL     1       8.081   9.115  17.520  0.00  0.00    +0.000 C 
ENDROOT
BRANCH   1   5
ATOM      2  C   UNL     1       9.767  11.708  19.288  0.00  0.00    +0.000 A 
ATOM      3  N   UNL     1       9.859  10.725  20.205  0.00  0.00    +0.000 NA
ATOM      4  O   UNL     1       9.202   9.649  19.611  0.00  0.00    +0.000 OA
ATOM      5  C   UNL     1       8.776  10.084  18.395  0.00  0.00    +0.000 A 
ATOM      6  N   UNL     1       9.086  11.333  18.153  0.00  0.00    +0.000 NA
BRANCH   2  13
ATOM      7  F   UNL     1       9.605  13.192  21.721  0.00  0.00    +0.000 F 
ATOM      8  C   UNL     1      10.240  13.726  20.666  0.00  0.00    +0.000 A 
ATOM      9  C   UNL     1      10.778  15.003  20.824  0.00  0.00    +0.000 A 
ATOM     10  C   UNL     1      11.446  15.612  19.765  0.00  0.00    +0.000 A 
ATOM     11  C   UNL     1      11.577  14.940  18.552  0.00  0.00    +0.000 A 
ATOM     12  C   UNL     1      11.036  13.659  18.397  0.00  0.00    +0.000 A 
ATOM     13  C   UNL     1      10.354  13.032  19.454  0.00  0.00    +0.000 A 
ENDBRANCH   2  13
ENDBRANCH   1   5
BRANCH   1  14
ATOM     14  C   UNL     1       8.106   7.726  18.152  0.00  0.00    +0.000 C 
BRANCH  14  15
ATOM     15  C   UNL     1       7.232   6.794  17.412  0.00  0.00    +0.000 A 
ATOM     16  N   UNL     1       7.366   6.305  16.199  0.00  0.00    +0.000 NA
ATOM     17  N   UNL     1       6.287   5.469  16.000  0.00  0.00    +0.000 NA
ATOM     18  C   UNL     1       5.571   5.504  17.106  0.00  0.00    +0.000 A 
ATOM     19  O   UNL     1       6.116   6.333  18.055  0.00  0.00    +0.000 OA
BRANCH  18  20
ATOM     20  C   UNL     1       4.353   4.787  17.461  0.00  0.00    +0.000 A 
ATOM     21  C   UNL     1       4.339   3.382  17.428  0.00  0.00    +0.000 A 
ATOM     22  C   UNL     1       3.192   2.668  17.794  0.00  0.00    +0.000 A 
ATOM     23  C   UNL     1       2.048   3.354  18.191  0.00  0.00    +0.000 A 
ATOM     24 CL   UNL     1       0.641   2.479  18.652  0.00  0.00    +0.000 Cl
ATOM     25  C   UNL     1       2.037   4.746  18.219  0.00  0.00    +0.000 A 
ATOM     26  C   UNL     1       3.185   5.459  17.855  0.00  0.00    +0.000 A 
ENDBRANCH  18  20
ENDBRANCH  14  15
ENDBRANCH   1  14
TORSDOF 5
ENDMDL
