MODEL 1
REMARK VINA RESULT:      -9.3      0.000      0.000
REMARK  Name = 
REMARK  6 active torsions:
REMARK  status: ('A' for Active; 'I' for Inactive)
REMARK    1  A    between atoms: C_2  and  C_22
REMARK    2  A    between atoms: N_3  and  C_4
REMARK    3  A    between atoms: C_6  and  S_7
REMARK    4  A    between atoms: S_7  and  N_10
REMARK    5  A    between atoms: N_10  and  C_11
REMARK    6  A    between atoms: C_26  and  N_27
REMARK                            x       y       z     vdW  Elec       q    Type
REMARK                         _______ _______ _______ _____ _____    ______ ____
ROOT
ATOM      1  C   UNL     1       3.312   5.836  18.000  0.00  0.00    +0.000 A 
ATOM      2  C   UNL     1       4.640   6.076  17.625  0.00  0.00    +0.000 A 
ATOM      3  C   UNL     1       5.475   5.005  17.279  0.00  0.00    +0.000 A 
ATOM      4  C   UNL     1       5.002   3.687  17.327  0.00  0.00    +0.000 A 
ATOM      5  C   UNL     1       3.670   3.448  17.670  0.00  0.00    +0.000 A 
ATOM      6  C   UNL     1       2.830   4.517  18.006  0.00  0.00    +0.000 A 
ATOM      7 CL   UNL     1       1.163   4.189  18.330  0.00  0.00    +0.000 Cl
ENDROOT
BRANCH   1  10
ATOM      8  O   UNL     1       2.567   6.384  20.673  0.00  0.00    +0.000 OA
ATOM      9  C   UNL     1       2.173   7.096  19.754  0.00  0.00    +0.000 C 
ATOM     10  N   UNL     1       2.487   6.911  18.417  0.00  0.00    +0.000 N 
ATOM     11  H   UNL     1       2.523   7.747  17.843  0.00  0.00    +0.000 HD
BRANCH   9  12
ATOM     12  C   UNL     1       1.403   8.322  20.090  0.00  0.00    +0.000 A 
ATOM     13  C   UNL     1       1.142   9.234  19.055  0.00  0.00    +0.000 A 
ATOM     14  C   UNL     1       0.440  10.414  19.302  0.00  0.00    +0.000 A 
ATOM     15  C   UNL     1      -0.005  10.697  20.592  0.00  0.00    +0.000 A 
ATOM     16  C   UNL     1       0.268   9.795  21.632  0.00  0.00    +0.000 A 
ATOM     17  C   UNL     1       0.979   8.605  21.393  0.00  0.00    +0.000 A 
BRANCH  16  18
ATOM     18  N   UNL     1      -0.206  10.100  22.984  0.00  0.00    +0.000 N 
ATOM     19  O   UNL     1       0.391   9.567  23.940  0.00  0.00    +0.000 OA
ATOM     20  O   UNL     1      -1.162  10.877  23.102  0.00  0.00    +0.000 OA
ENDBRANCH  16  18
ENDBRANCH   9  12
ENDBRANCH   1  10
BRANCH   3  21
ATOM     21  S   UNL     1       7.192   5.323  16.902  0.00  0.00    +0.000 S 
ATOM     22  O   UNL     1       7.675   6.305  17.850  0.00  0.00    +0.000 OA
ATOM     23  O   UNL     1       7.837   4.032  16.771  0.00  0.00    +0.000 OA
BRANCH  21  24
ATOM     24  N   UNL     1       7.182   6.001  15.351  0.00  0.00    +0.000 N 
ATOM     25  H   UNL     1       7.969   6.632  15.212  0.00  0.00    +0.000 HD
BRANCH  24  26
ATOM     26  C   UNL     1       6.850   5.154  14.249  0.00  0.00    +0.000 A 
ATOM     27  C   UNL     1       5.679   4.399  14.294  0.00  0.00    +0.000 A 
ATOM     28  C   UNL     1       5.377   3.521  13.250  0.00  0.00    +0.000 A 
ATOM     29  C   UNL     1       6.254   3.385  12.171  0.00  0.00    +0.000 A 
ATOM     30  C   UNL     1       7.424   4.142  12.124  0.00  0.00    +0.000 A 
ATOM     31  C   UNL     1       7.712   5.026  13.158  0.00  0.00    +0.000 A 
ATOM     32  F   UNL     1       8.844   5.744  13.110  0.00  0.00    +0.000 F 
ENDBRANCH  24  26
ENDBRANCH  21  24
ENDBRANCH   3  21
TORSDOF 6
ENDMDL
MODEL 2
REMARK VINA RESULT:      -9.2      1.459      1.778
REMARK  Name = 
REMARK  6 active torsions:
REMARK  status: ('A' for Active; 'I' for Inactive)
REMARK    1  A    between atoms: C_2  and  C_22
REMARK    2  A    between atoms: N_3  and  C_4
REMARK    3  A    between atoms: C_6  and  S_7
REMARK    4  A    between atoms: S_7  and  N_10
REMARK    5  A    between atoms: N_10  and  C_11
REMARK    6  A    between atoms: C_26  and  N_27
REMARK                            x       y       z     vdW  Elec       q    Type
REMARK                         _______ _______ _______ _____ _____    ______ ____
ROOT
ATOM      1  C   UNL     1       3.446   5.886  19.319  0.00  0.00    +0.000 A 
ATOM      2  C   UNL     1       4.590   6.191  18.571  0.00  0.00    +0.000 A 
ATOM      3  C   UNL     1       5.469   5.169  18.187  0.00  0.00    +0.000 A 
ATOM      4  C   UNL     1       5.228   3.842  18.564  0.00  0.00    +0.000 A 
ATOM      5  C   UNL     1       4.072   3.531  19.283  0.00  0.00    +0.000 A 
ATOM      6  C   UNL     1       3.186   4.549  19.659  0.00  0.00    +0.000 A 
ATOM      7 CL   UNL     1       1.718   4.113  20.462  0.00  0.00    +0.000 Cl
ENDROOT
BRANCH   1  10
ATOM      8  O   UNL     1       2.591   8.088  17.761  0.00  0.00    +0.000 OA
ATOM      9  C   UNL     1       2.233   7.970  18.929  0.00  0.00    +0.000 C 
ATOM     10  N   UNL     1       2.594   6.927  19.768  0.00  0.00    +0.000 N 
ATOM     11  H   UNL     1       1.923   6.673  20.486  0.00  0.00    +0.000 HD
BRANCH   9  12
ATOM     12  C   UNL     1       1.242   8.938  19.466  0.00  0.00    +0.000 A 
ATOM     13  C   UNL     1       0.530   9.723  18.545  0.00  0.00    +0.000 A 
ATOM     14  C   UNL     1      -0.405  10.664  18.979  0.00  0.00    +0.000 A 
ATOM     15  C   UNL     1      -0.633  10.833  20.343  0.00  0.00    +0.000 A 
ATOM     16  C   UNL     1       0.088  10.061  21.267  0.00  0.00    +0.000 A 
ATOM     17  C   UNL     1       1.035   9.114  20.839  0.00  0.00    +0.000 A 
BRANCH  16  18
ATOM     18  N   UNL     1      -0.161  10.244  22.699  0.00  0.00    +0.000 N 
ATOM     19  O   UNL     1      -0.552  11.366  23.079  0.00  0.00    +0.000 OA
ATOM     20  O   UNL     1       0.017   9.275  23.447  0.00  0.00    +0.000 OA
ENDBRANCH  16  18
ENDBRANCH   9  12
ENDBRANCH   1  10
BRANCH   3  21
ATOM     21  S   UNL     1       6.973   5.591  17.321  0.00  0.00    +0.000 S 
ATOM     22  O   UNL     1       7.617   6.660  18.056  0.00  0.00    +0.000 OA
ATOM     23  O   UNL     1       7.665   4.346  17.055  0.00  0.00    +0.000 OA
BRANCH  21  24
ATOM     24  N   UNL     1       6.465   6.174  15.816  0.00  0.00    +0.000 N 
ATOM     25  H   UNL     1       6.779   7.130  15.657  0.00  0.00    +0.000 HD
BRANCH  24  26
ATOM     26  C   UNL     1       6.536   5.293  14.694  0.00  0.00    +0.000 A 
ATOM     27  C   UNL     1       7.566   5.445  13.768  0.00  0.00    +0.000 A 
ATOM     28  C   UNL     1       7.608   4.630  12.633  0.00  0.00    +0.000 A 
ATOM     29  C   UNL     1       6.611   3.677  12.417  0.00  0.00    +0.000 A 
ATOM     30  C   UNL     1       5.581   3.523  13.343  0.00  0.00    +0.000 A 
ATOM     31  C   UNL     1       5.552   4.325  14.479  0.00  0.00    +0.000 A 
ATOM     32  F   UNL     1       4.553   4.178  15.362  0.00  0.00    +0.000 F 
ENDBRANCH  24  26
ENDBRANCH  21  24
ENDBRANCH   3  21
TORSDOF 6
ENDMDL
MODEL 3
REMARK VINA RESULT:      -9.0      1.953      2.352
REMARK  Name = 
REMARK  6 active torsions:
REMARK  status: ('A' for Active; 'I' for Inactive)
REMARK    1  A    between atoms: C_2  and  C_22
REMARK    2  A    between atoms: N_3  and  C_4
REMARK    3  A    between atoms: C_6  and  S_7
REMARK    4  A    between atoms: S_7  and  N_10
REMARK    5  A    between atoms: N_10  and  C_11
REMARK    6  A    between atoms: C_26  and  N_27
REMARK                            x       y       z     vdW  Elec       q    Type
REMARK                         _______ _______ _______ _____ _____    ______ ____
ROOT
ATOM      1  C   UNL     1       3.614   5.617  19.390  0.00  0.00    +0.000 A 
ATOM      2  C   UNL     1       4.753   5.967  18.653  0.00  0.00    +0.000 A 
ATOM      3  C   UNL     1       5.561   4.966  18.097  0.00  0.00    +0.000 A 
ATOM      4  C   UNL     1       5.254   3.612  18.288  0.00  0.00    +0.000 A 
ATOM      5  C   UNL     1       4.102   3.263  18.995  0.00  0.00    +0.000 A 
ATOM      6  C   UNL     1       3.287   4.261  19.544  0.00  0.00    +0.000 A 
ATOM      7 CL   UNL     1       1.818   3.792  20.328  0.00  0.00    +0.000 Cl
ENDROOT
BRANCH   1  10
ATOM      8  O   UNL     1       2.374   7.784  18.058  0.00  0.00    +0.000 OA
ATOM      9  C   UNL     1       2.271   7.654  19.274  0.00  0.00    +0.000 C 
ATOM     10  N   UNL     1       2.836   6.626  20.013  0.00  0.00    +0.000 N 
ATOM     11  H   UNL     1       2.338   6.348  20.853  0.00  0.00    +0.000 HD
BRANCH   9  12
ATOM     12  C   UNL     1       1.377   8.584  20.011  0.00  0.00    +0.000 A 
ATOM     13  C   UNL     1       1.172   8.348  21.380  0.00  0.00    +0.000 A 
ATOM     14  C   UNL     1       0.332   9.172  22.130  0.00  0.00    +0.000 A 
ATOM     15  C   UNL     1      -0.318  10.241  21.515  0.00  0.00    +0.000 A 
ATOM     16  C   UNL     1      -0.127  10.470  20.144  0.00  0.00    +0.000 A 
ATOM     17  C   UNL     1       0.714   9.642  19.379  0.00  0.00    +0.000 A 
BRANCH  16  18
ATOM     18  N   UNL     1      -0.813  11.597  19.507  0.00  0.00    +0.000 N 
ATOM     19  O   UNL     1      -2.060  11.593  19.510  0.00  0.00    +0.000 OA
ATOM     20  O   UNL     1      -0.118  12.495  19.014  0.00  0.00    +0.000 OA
ENDBRANCH  16  18
ENDBRANCH   9  12
ENDBRANCH   1  10
BRANCH   3  21
ATOM     21  S   UNL     1       7.063   5.428  17.248  0.00  0.00    +0.000 S 
ATOM     22  O   UNL     1       7.701   6.472  18.022  0.00  0.00    +0.000 OA
ATOM     23  O   UNL     1       7.762   4.198  16.935  0.00  0.00    +0.000 OA
BRANCH  21  24
ATOM     24  N   UNL     1       6.552   6.065  15.766  0.00  0.00    +0.000 N 
ATOM     25  H   UNL     1       6.881   7.019  15.633  0.00  0.00    +0.000 HD
BRANCH  24  26
ATOM     26  C   UNL     1       6.598   5.216  14.616  0.00  0.00    +0.000 A 
ATOM     27  C   UNL     1       7.632   5.368  13.694  0.00  0.00    +0.000 A 
ATOM     28  C   UNL     1       7.651   4.588  12.535  0.00  0.00    +0.000 A 
ATOM     29  C   UNL     1       6.627   3.669  12.291  0.00  0.00    +0.000 A 
ATOM     30  C   UNL     1       5.594   3.516  13.214  0.00  0.00    +0.000 A 
ATOM     31  C   UNL     1       5.588   4.283  14.373  0.00  0.00    +0.000 A 
ATOM     32  F   UNL     1       4.585   4.136  15.252  0.00  0.00    +0.000 F 
ENDBRANCH  24  26
ENDBRANCH  21  24
ENDBRANCH   3  21
TORSDOF 6
ENDMDL
MODEL 4
REMARK VINA RESULT:      -9.0      1.465      1.831
REMARK  Name = 
REMARK  6 active torsions:
REMARK  status: ('A' for Active; 'I' for Inactive)
REMARK    1  A    between atoms: C_2  and  C_22
REMARK    2  A    between atoms: N_3  and  C_4
REMARK    3  A    between atoms: C_6  and  S_7
REMARK    4  A    between atoms: S_7  and  N_10
REMARK    5  A    between atoms: N_10  and  C_11
REMARK    6  A    between atoms: C_26  and  N_27
REMARK                            x       y       z     vdW  Elec       q    Type
REMARK                         _______ _______ _______ _____ _____    ______ ____
ROOT
ATOM      1  C   UNL     1       3.536   5.594  19.066  0.00  0.00    +0.000 A 
ATOM      2  C   UNL     1       4.732   5.908  18.409  0.00  0.00    +0.000 A 
ATOM      3  C   UNL     1       5.452   4.905  17.747  0.00  0.00    +0.000 A 
ATOM      4  C   UNL     1       4.999   3.579  17.753  0.00  0.00    +0.000 A 
ATOM      5  C   UNL     1       3.791   3.269  18.380  0.00  0.00    +0.000 A 
ATOM      6  C   UNL     1       3.063   4.272  19.034  0.00  0.00    +0.000 A 
ATOM      7 CL   UNL     1       1.525   3.869  19.714  0.00  0.00    +0.000 Cl
ENDROOT
BRANCH   1  10
ATOM      8  O   UNL     1       2.147   7.782  17.931  0.00  0.00    +0.000 OA
ATOM      9  C   UNL     1       2.195   7.633  19.148  0.00  0.00    +0.000 C 
ATOM     10  N   UNL     1       2.844   6.594  19.795  0.00  0.00    +0.000 N 
ATOM     11  H   UNL     1       2.453   6.304  20.686  0.00  0.00    +0.000 HD
BRANCH   9  12
ATOM     12  C   UNL     1       1.402   8.553  20.004  0.00  0.00    +0.000 A 
ATOM     13  C   UNL     1       1.297   8.248  21.371  0.00  0.00    +0.000 A 
ATOM     14  C   UNL     1       0.554   9.060  22.229  0.00  0.00    +0.000 A 
ATOM     15  C   UNL     1      -0.097  10.184  21.728  0.00  0.00    +0.000 A 
ATOM     16  C   UNL     1      -0.007  10.483  20.360  0.00  0.00    +0.000 A 
ATOM     17  C   UNL     1       0.735   9.669  19.486  0.00  0.00    +0.000 A 
BRANCH  16  18
ATOM     18  N   UNL     1      -0.694  11.670  19.842  0.00  0.00    +0.000 N 
ATOM     19  O   UNL     1      -0.504  11.972  18.647  0.00  0.00    +0.000 OA
ATOM     20  O   UNL     1      -1.431  12.295  20.613  0.00  0.00    +0.000 OA
ENDBRANCH  16  18
ENDBRANCH   9  12
ENDBRANCH   1  10
BRANCH   3  21
ATOM     21  S   UNL     1       7.025   5.306  17.002  0.00  0.00    +0.000 S 
ATOM     22  O   UNL     1       7.670   6.292  17.843  0.00  0.00    +0.000 OA
ATOM     23  O   UNL     1       7.675   4.047  16.695  0.00  0.00    +0.000 OA
BRANCH  21  24
ATOM     24  N   UNL     1       6.639   6.008  15.511  0.00  0.00    +0.000 N 
ATOM     25  H   UNL     1       7.170   6.861  15.349  0.00  0.00    +0.000 HD
BRANCH  24  26
ATOM     26  C   UNL     1       6.471   5.146  14.384  0.00  0.00    +0.000 A 
ATOM     27  C   UNL     1       5.330   4.350  14.295  0.00  0.00    +0.000 A 
ATOM     28  C   UNL     1       5.186   3.457  13.229  0.00  0.00    +0.000 A 
ATOM     29  C   UNL     1       6.190   3.347  12.265  0.00  0.00    +0.000 A 
ATOM     30  C   UNL     1       7.331   4.144  12.352  0.00  0.00    +0.000 A 
ATOM     31  C   UNL     1       7.462   5.043  13.405  0.00  0.00    +0.000 A 
ATOM     32  F   UNL     1       8.566   5.800  13.488  0.00  0.00    +0.000 F 
ENDBRANCH  24  26
ENDBRANCH  21  24
ENDBRANCH   3  21
TORSDOF 6
ENDMDL
MODEL 5
REMARK VINA RESULT:      -9.0      1.351      1.524
REMARK  Name = 
REMARK  6 active torsions:
REMARK  status: ('A' for Active; 'I' for Inactive)
REMARK    1  A    between atoms: C_2  and  C_22
REMARK    2  A    between atoms: N_3  and  C_4
REMARK    3  A    between atoms: C_6  and  S_7
REMARK    4  A    between atoms: S_7  and  N_10
REMARK    5  A    between atoms: N_10  and  C_11
REMARK    6  A    between atoms: C_26  and  N_27
REMARK                            x       y       z     vdW  Elec       q    Type
REMARK                         _______ _______ _______ _____ _____    ______ ____
ROOT
ATOM      1  C   UNL     1       2.854   6.366  18.864  0.00  0.00    +0.000 A 
ATOM      2  C   UNL     1       3.859   6.687  17.943  0.00  0.00    +0.000 A 
ATOM      3  C   UNL     1       4.633   5.670  17.369  0.00  0.00    +0.000 A 
ATOM      4  C   UNL     1       4.428   4.330  17.724  0.00  0.00    +0.000 A 
ATOM      5  C   UNL     1       3.405   4.005  18.617  0.00  0.00    +0.000 A 
ATOM      6  C   UNL     1       2.623   5.019  19.185  0.00  0.00    +0.000 A 
ATOM      7 CL   UNL     1       1.305   4.571  20.211  0.00  0.00    +0.000 Cl
ENDROOT
BRANCH   1  10
ATOM      8  O   UNL     1       2.085   8.807  17.657  0.00  0.00    +0.000 OA
ATOM      9  C   UNL     1       1.791   8.565  18.824  0.00  0.00    +0.000 C 
ATOM     10  N   UNL     1       2.118   7.399  19.499  0.00  0.00    +0.000 N 
ATOM     11  H   UNL     1       1.474   7.104  20.226  0.00  0.00    +0.000 HD
BRANCH   9  12
ATOM     12  C   UNL     1       0.916   9.524  19.546  0.00  0.00    +0.000 A 
ATOM     13  C   UNL     1       0.303  10.541  18.797  0.00  0.00    +0.000 A 
ATOM     14  C   UNL     1      -0.519  11.486  19.414  0.00  0.00    +0.000 A 
ATOM     15  C   UNL     1      -0.731  11.427  20.789  0.00  0.00    +0.000 A 
ATOM     16  C   UNL     1      -0.106  10.421  21.543  0.00  0.00    +0.000 A 
ATOM     17  C   UNL     1       0.727   9.467  20.932  0.00  0.00    +0.000 A 
BRANCH  16  18
ATOM     18  N   UNL     1      -0.337  10.365  22.989  0.00  0.00    +0.000 N 
ATOM     19  O   UNL     1       0.412   9.634  23.667  0.00  0.00    +0.000 OA
ATOM     20  O   UNL     1      -1.252  11.054  23.457  0.00  0.00    +0.000 OA
ENDBRANCH  16  18
ENDBRANCH   9  12
ENDBRANCH   1  10
BRANCH   3  21
ATOM     21  S   UNL     1       5.976   6.107  16.275  0.00  0.00    +0.000 S 
ATOM     22  O   UNL     1       5.414   6.847  15.165  0.00  0.00    +0.000 OA
ATOM     23  O   UNL     1       7.019   6.679  17.102  0.00  0.00    +0.000 OA
BRANCH  21  24
ATOM     24  N   UNL     1       6.582   4.631  15.713  0.00  0.00    +0.000 N 
ATOM     25  H   UNL     1       6.343   3.863  16.337  0.00  0.00    +0.000 HD
BRANCH  24  26
ATOM     26  C   UNL     1       6.494   4.355  14.313  0.00  0.00    +0.000 A 
ATOM     27  C   UNL     1       5.480   3.523  13.842  0.00  0.00    +0.000 A 
ATOM     28  C   UNL     1       5.423   3.196  12.484  0.00  0.00    +0.000 A 
ATOM     29  C   UNL     1       6.389   3.687  11.603  0.00  0.00    +0.000 A 
ATOM     30  C   UNL     1       7.402   4.521  12.073  0.00  0.00    +0.000 A 
ATOM     31  C   UNL     1       7.445   4.856  13.422  0.00  0.00    +0.000 A 
ATOM     32  F   UNL     1       8.429   5.652  13.869  0.00  0.00    +0.000 F 
ENDBRANCH  24  26
ENDBRANCH  21  24
ENDBRANCH   3  21
TORSDOF 6
ENDMDL
MODEL 6
REMARK VINA RESULT:      -8.9      1.735      2.135
REMARK  Name = 
REMARK  6 active torsions:
REMARK  status: ('A' for Active; 'I' for Inactive)
REMARK    1  A    between atoms: C_2  and  C_22
REMARK    2  A    between atoms: N_3  and  C_4
REMARK    3  A    between atoms: C_6  and  S_7
REMARK    4  A    between atoms: S_7  and  N_10
REMARK    5  A    between atoms: N_10  and  C_11
REMARK    6  A    between atoms: C_26  and  N_27
REMARK                            x       y       z     vdW  Elec       q    Type
REMARK                         _______ _______ _______ _____ _____    ______ ____
ROOT
ATOM      1  C   UNL     1       2.860   6.274  19.061  0.00  0.00    +0.000 A 
ATOM      2  C   UNL     1       3.806   6.721  18.129  0.00  0.00    +0.000 A 
ATOM      3  C   UNL     1       4.465   5.800  17.304  0.00  0.00    +0.000 A 
ATOM      4  C   UNL     1       4.204   4.428  17.414  0.00  0.00    +0.000 A 
ATOM      5  C   UNL     1       3.239   3.984  18.320  0.00  0.00    +0.000 A 
ATOM      6  C   UNL     1       2.571   4.903  19.140  0.00  0.00    +0.000 A 
ATOM      7 CL   UNL     1       1.314   4.325  20.178  0.00  0.00    +0.000 Cl
ENDROOT
BRANCH   1  10
ATOM      8  O   UNL     1       1.564   8.667  18.288  0.00  0.00    +0.000 OA
ATOM      9  C   UNL     1       1.638   8.348  19.471  0.00  0.00    +0.000 C 
ATOM     10  N   UNL     1       2.246   7.197  19.945  0.00  0.00    +0.000 N 
ATOM     11  H   UNL     1       1.865   6.806  20.801  0.00  0.00    +0.000 HD
BRANCH   9  12
ATOM     12  C   UNL     1       0.921   9.179  20.473  0.00  0.00    +0.000 A 
ATOM     13  C   UNL     1       0.345   8.525  21.573  0.00  0.00    +0.000 A 
ATOM     14  C   UNL     1      -0.357   9.242  22.543  0.00  0.00    +0.000 A 
ATOM     15  C   UNL     1      -0.494  10.623  22.420  0.00  0.00    +0.000 A 
ATOM     16  C   UNL     1       0.068  11.277  21.313  0.00  0.00    +0.000 A 
ATOM     17  C   UNL     1       0.773  10.563  20.328  0.00  0.00    +0.000 A 
BRANCH  16  18
ATOM     18  N   UNL     1      -0.079  12.731  21.193  0.00  0.00    +0.000 N 
ATOM     19  O   UNL     1       0.287  13.431  22.157  0.00  0.00    +0.000 OA
ATOM     20  O   UNL     1      -0.545  13.180  20.139  0.00  0.00    +0.000 OA
ENDBRANCH  16  18
ENDBRANCH   9  12
ENDBRANCH   1  10
BRANCH   3  21
ATOM     21  S   UNL     1       5.739   6.379  16.194  0.00  0.00    +0.000 S 
ATOM     22  O   UNL     1       5.086   6.952  15.036  0.00  0.00    +0.000 OA
ATOM     23  O   UNL     1       6.665   7.159  16.991  0.00  0.00    +0.000 OA
BRANCH  21  24
ATOM     24  N   UNL     1       6.582   4.987  15.729  0.00  0.00    +0.000 N 
ATOM     25  H   UNL     1       6.518   4.255  16.434  0.00  0.00    +0.000 HD
BRANCH  24  26
ATOM     26  C   UNL     1       6.481   4.561  14.368  0.00  0.00    +0.000 A 
ATOM     27  C   UNL     1       5.435   3.720  13.990  0.00  0.00    +0.000 A 
ATOM     28  C   UNL     1       5.364   3.247  12.677  0.00  0.00    +0.000 A 
ATOM     29  C   UNL     1       6.346   3.601  11.749  0.00  0.00    +0.000 A 
ATOM     30  C   UNL     1       7.390   4.444  12.126  0.00  0.00    +0.000 A 
ATOM     31  C   UNL     1       7.448   4.925  13.429  0.00  0.00    +0.000 A 
ATOM     32  F   UNL     1       8.461   5.729  13.787  0.00  0.00    +0.000 F 
ENDBRANCH  24  26
ENDBRANCH  21  24
ENDBRANCH   3  21
TORSDOF 6
ENDMDL
MODEL 7
REMARK VINA RESULT:      -8.8      1.809      2.285
REMARK  Name = 
REMARK  6 active torsions:
REMARK  status: ('A' for Active; 'I' for Inactive)
REMARK    1  A    between atoms: C_2  and  C_22
REMARK    2  A    between atoms: N_3  and  C_4
REMARK    3  A    between atoms: C_6  and  S_7
REMARK    4  A    between atoms: S_7  and  N_10
REMARK    5  A    between atoms: N_10  and  C_11
REMARK    6  A    between atoms: C_26  and  N_27
REMARK                            x       y       z     vdW  Elec       q    Type
REMARK                         _______ _______ _______ _____ _____    ______ ____
ROOT
ATOM      1  C   UNL     1       2.864   6.832  18.967  0.00  0.00    +0.000 A 
ATOM      2  C   UNL     1       3.791   7.161  17.970  0.00  0.00    +0.000 A 
ATOM      3  C   UNL     1       4.674   6.187  17.486  0.00  0.00    +0.000 A 
ATOM      4  C   UNL     1       4.657   4.886  18.006  0.00  0.00    +0.000 A 
ATOM      5  C   UNL     1       3.714   4.548  18.978  0.00  0.00    +0.000 A 
ATOM      6  C   UNL     1       2.822   5.516  19.457  0.00  0.00    +0.000 A 
ATOM      7 CL   UNL     1       1.606   5.034  20.588  0.00  0.00    +0.000 Cl
ENDROOT
BRANCH   1  10
ATOM      8  O   UNL     1       1.812   9.033  17.535  0.00  0.00    +0.000 OA
ATOM      9  C   UNL     1       1.556   8.879  18.726  0.00  0.00    +0.000 C 
ATOM     10  N   UNL     1       2.019   7.833  19.508  0.00  0.00    +0.000 N 
ATOM     11  H   UNL     1       1.418   7.542  20.273  0.00  0.00    +0.000 HD
BRANCH   9  12
ATOM     12  C   UNL     1       0.581   9.801  19.363  0.00  0.00    +0.000 A 
ATOM     13  C   UNL     1      -0.315  10.487  18.526  0.00  0.00    +0.000 A 
ATOM     14  C   UNL     1      -1.246  11.381  19.056  0.00  0.00    +0.000 A 
ATOM     15  C   UNL     1      -1.288  11.603  20.431  0.00  0.00    +0.000 A 
ATOM     16  C   UNL     1      -0.384  10.931  21.268  0.00  0.00    +0.000 A 
ATOM     17  C   UNL     1       0.561  10.032  20.743  0.00  0.00    +0.000 A 
BRANCH  16  18
ATOM     18  N   UNL     1      -0.438  11.169  22.713  0.00  0.00    +0.000 N 
ATOM     19  O   UNL     1      -0.737  12.316  23.099  0.00  0.00    +0.000 OA
ATOM     20  O   UNL     1      -0.197  10.218  23.466  0.00  0.00    +0.000 OA
ENDBRANCH  16  18
ENDBRANCH   9  12
ENDBRANCH   1  10
BRANCH   3  21
ATOM     21  S   UNL     1       5.914   6.651  16.287  0.00  0.00    +0.000 S 
ATOM     22  O   UNL     1       5.225   7.094  15.092  0.00  0.00    +0.000 OA
ATOM     23  O   UNL     1       6.852   7.518  16.971  0.00  0.00    +0.000 OA
BRANCH  21  24
ATOM     24  N   UNL     1       6.757   5.224  15.950  0.00  0.00    +0.000 N 
ATOM     25  H   UNL     1       6.637   4.532  16.688  0.00  0.00    +0.000 HD
BRANCH  24  26
ATOM     26  C   UNL     1       6.730   4.725  14.611  0.00  0.00    +0.000 A 
ATOM     27  C   UNL     1       7.731   5.107  13.718  0.00  0.00    +0.000 A 
ATOM     28  C   UNL     1       7.679   4.678  12.390  0.00  0.00    +0.000 A 
ATOM     29  C   UNL     1       6.618   3.882  11.950  0.00  0.00    +0.000 A 
ATOM     30  C   UNL     1       5.619   3.498  12.843  0.00  0.00    +0.000 A 
ATOM     31  C   UNL     1       5.683   3.915  14.167  0.00  0.00    +0.000 A 
ATOM     32  F   UNL     1       4.713   3.549  15.018  0.00  0.00    +0.000 F 
ENDBRANCH  24  26
ENDBRANCH  21  24
ENDBRANCH   3  21
TORSDOF 6
ENDMDL
MODEL 8
REMARK VINA RESULT:      -8.8      1.571      1.867
REMARK  Name = 
REMARK  6 active torsions:
REMARK  status: ('A' for Active; 'I' for Inactive)
REMARK    1  A    between atoms: C_2  and  C_22
REMARK    2  A    between atoms: N_3  and  C_4
REMARK    3  A    between atoms: C_6  and  S_7
REMARK    4  A    between atoms: S_7  and  N_10
REMARK    5  A    between atoms: N_10  and  C_11
REMARK    6  A    between atoms: C_26  and  N_27
REMARK                            x       y       z     vdW  Elec       q    Type
REMARK                         _______ _______ _______ _____ _____    ______ ____
ROOT
ATOM      1  C   UNL     1       3.345   5.820  17.917  0.00  0.00    +0.000 A 
ATOM      2  C   UNL     1       4.684   6.066  17.587  0.00  0.00    +0.000 A 
ATOM      3  C   UNL     1       5.515   5.006  17.201  0.00  0.00    +0.000 A 
ATOM      4  C   UNL     1       5.027   3.693  17.162  0.00  0.00    +0.000 A 
ATOM      5  C   UNL     1       3.685   3.451  17.460  0.00  0.00    +0.000 A 
ATOM      6  C   UNL     1       2.848   4.509  17.836  0.00  0.00    +0.000 A 
ATOM      7 CL   UNL     1       1.170   4.184  18.102  0.00  0.00    +0.000 Cl
ENDROOT
BRANCH   1  10
ATOM      8  O   UNL     1       2.569   6.243  20.604  0.00  0.00    +0.000 OA
ATOM      9  C   UNL     1       2.191   7.002  19.716  0.00  0.00    +0.000 C 
ATOM     10  N   UNL     1       2.522   6.880  18.376  0.00  0.00    +0.000 N 
ATOM     11  H   UNL     1       2.570   7.743  17.843  0.00  0.00    +0.000 HD
BRANCH   9  12
ATOM     12  C   UNL     1       1.426   8.215  20.101  0.00  0.00    +0.000 A 
ATOM     13  C   UNL     1       0.789   8.217  21.353  0.00  0.00    +0.000 A 
ATOM     14  C   UNL     1       0.040   9.318  21.772  0.00  0.00    +0.000 A 
ATOM     15  C   UNL     1      -0.085  10.427  20.939  0.00  0.00    +0.000 A 
ATOM     16  C   UNL     1       0.537  10.422  19.681  0.00  0.00    +0.000 A 
ATOM     17  C   UNL     1       1.290   9.317  19.248  0.00  0.00    +0.000 A 
BRANCH  16  18
ATOM     18  N   UNL     1       0.402  11.595  18.813  0.00  0.00    +0.000 N 
ATOM     19  O   UNL     1       1.445  12.191  18.480  0.00  0.00    +0.000 OA
ATOM     20  O   UNL     1      -0.735  11.920  18.450  0.00  0.00    +0.000 OA
ENDBRANCH  16  18
ENDBRANCH   9  12
ENDBRANCH   1  10
BRANCH   3  21
ATOM     21  S   UNL     1       7.244   5.324  16.883  0.00  0.00    +0.000 S 
ATOM     22  O   UNL     1       7.695   6.304  17.848  0.00  0.00    +0.000 OA
ATOM     23  O   UNL     1       7.893   4.033  16.772  0.00  0.00    +0.000 OA
BRANCH  21  24
ATOM     24  N   UNL     1       7.287   6.004  15.334  0.00  0.00    +0.000 N 
ATOM     25  H   UNL     1       8.102   6.603  15.208  0.00  0.00    +0.000 HD
BRANCH  24  26
ATOM     26  C   UNL     1       6.939   5.174  14.224  0.00  0.00    +0.000 A 
ATOM     27  C   UNL     1       5.786   4.393  14.288  0.00  0.00    +0.000 A 
ATOM     28  C   UNL     1       5.470   3.530  13.235  0.00  0.00    +0.000 A 
ATOM     29  C   UNL     1       6.316   3.435  12.128  0.00  0.00    +0.000 A 
ATOM     30  C   UNL     1       7.468   4.217  12.062  0.00  0.00    +0.000 A 
ATOM     31  C   UNL     1       7.770   5.086  13.105  0.00  0.00    +0.000 A 
ATOM     32  F   UNL     1       8.885   5.829  13.039  0.00  0.00    +0.000 F 
ENDBRANCH  24  26
ENDBRANCH  21  24
ENDBRANCH   3  21
TORSDOF 6
ENDMDL
MODEL 9
REMARK VINA RESULT:      -8.8      1.975      2.553
REMARK  Name = 
REMARK  6 active torsions:
REMARK  status: ('A' for Active; 'I' for Inactive)
REMARK    1  A    between atoms: C_2  and  C_22
REMARK    2  A    between atoms: N_3  and  C_4
REMARK    3  A    between atoms: C_6  and  S_7
REMARK    4  A    between atoms: S_7  and  N_10
REMARK    5  A    between atoms: N_10  and  C_11
REMARK    6  A    between atoms: C_26  and  N_27
REMARK                            x       y       z     vdW  Elec       q    Type
REMARK                         _______ _______ _______ _____ _____    ______ ____
ROOT
ATOM      1  C   UNL     1       2.831   6.369  19.241  0.00  0.00    +0.000 A 
ATOM      2  C   UNL     1       3.771   6.844  18.318  0.00  0.00    +0.000 A 
ATOM      3  C   UNL     1       4.445   5.946  17.480  0.00  0.00    +0.000 A 
ATOM      4  C   UNL     1       4.206   4.569  17.569  0.00  0.00    +0.000 A 
ATOM      5  C   UNL     1       3.247   4.096  18.467  0.00  0.00    +0.000 A 
ATOM      6  C   UNL     1       2.563   4.992  19.299  0.00  0.00    +0.000 A 
ATOM      7 CL   UNL     1       1.315   4.379  20.327  0.00  0.00    +0.000 Cl
ENDROOT
BRANCH   1  10
ATOM      8  O   UNL     1       1.465   8.732  18.498  0.00  0.00    +0.000 OA
ATOM      9  C   UNL     1       1.558   8.406  19.678  0.00  0.00    +0.000 C 
ATOM     10  N   UNL     1       2.200   7.268  20.138  0.00  0.00    +0.000 N 
ATOM     11  H   UNL     1       1.838   6.861  20.994  0.00  0.00    +0.000 HD
BRANCH   9  12
ATOM     12  C   UNL     1       0.829   9.211  20.692  0.00  0.00    +0.000 A 
ATOM     13  C   UNL     1       0.893   8.790  22.030  0.00  0.00    +0.000 A 
ATOM     14  C   UNL     1       0.219   9.489  23.033  0.00  0.00    +0.000 A 
ATOM     15  C   UNL     1      -0.532  10.615  22.705  0.00  0.00    +0.000 A 
ATOM     16  C   UNL     1      -0.611  11.030  21.367  0.00  0.00    +0.000 A 
ATOM     17  C   UNL     1       0.060  10.329  20.349  0.00  0.00    +0.000 A 
BRANCH  16  18
ATOM     18  N   UNL     1      -1.402  12.217  21.033  0.00  0.00    +0.000 N 
ATOM     19  O   UNL     1      -2.122  12.165  20.016  0.00  0.00    +0.000 OA
ATOM     20  O   UNL     1      -1.321  13.197  21.783  0.00  0.00    +0.000 OA
ENDBRANCH  16  18
ENDBRANCH   9  12
ENDBRANCH   1  10
BRANCH   3  21
ATOM     21  S   UNL     1       5.712   6.562  16.381  0.00  0.00    +0.000 S 
ATOM     22  O   UNL     1       5.061   7.006  15.166  0.00  0.00    +0.000 OA
ATOM     23  O   UNL     1       6.537   7.464  17.158  0.00  0.00    +0.000 OA
BRANCH  21  24
ATOM     24  N   UNL     1       6.683   5.220  16.036  0.00  0.00    +0.000 N 
ATOM     25  H   UNL     1       6.538   4.468  16.706  0.00  0.00    +0.000 HD
BRANCH  24  26
ATOM     26  C   UNL     1       6.828   4.827  14.669  0.00  0.00    +0.000 A 
ATOM     27  C   UNL     1       7.772   5.469  13.868  0.00  0.00    +0.000 A 
ATOM     28  C   UNL     1       7.877   5.137  12.515  0.00  0.00    +0.000 A 
ATOM     29  C   UNL     1       7.029   4.176  11.960  0.00  0.00    +0.000 A 
ATOM     30  C   UNL     1       6.087   3.532  12.761  0.00  0.00    +0.000 A 
ATOM     31  C   UNL     1       5.996   3.855  14.110  0.00  0.00    +0.000 A 
ATOM     32  F   UNL     1       5.081   3.238  14.873  0.00  0.00    +0.000 F 
ENDBRANCH  24  26
ENDBRANCH  21  24
ENDBRANCH   3  21
TORSDOF 6
ENDMDL
