MODEL 1
REMARK VINA RESULT:      -7.3      0.000      0.000
REMARK  Name = 
REMARK  4 active torsions:
REMARK  status: ('A' for Active; 'I' for Inactive)
REMARK    1  A    between atoms: C_1  and  C_2
REMARK    2  A    between atoms: C_7  and  C_8
REMARK    3  A    between atoms: C_11  and  C_12
REMARK    4  A    between atoms: C_13  and  C_14
REMARK                            x       y       z     vdW  Elec       q    Type
REMARK                         _______ _______ _______ _____ _____    ______ ____
ROOT
ATOM      1  C   UNL     1       7.299   4.817  16.322  0.00  0.00    +0.000 A 
ATOM      2  N   UNL     1       8.133   3.976  16.954  0.00  0.00    +0.000 NA
ATOM      3  O   UNL     1       8.235   4.391  18.245  0.00  0.00    +0.000 OA
ATOM      4  C   UNL     1       7.417   5.449  18.458  0.00  0.00    +0.000 A 
ATOM      5  C   UNL     1       7.475   5.963  19.840  0.00  0.00    +0.000 C 
ATOM      6  C   UNL     1       6.716   5.718  17.289  0.00  0.00    +0.000 A 
ENDROOT
BRANCH   6   7
ATOM      7  C   UNL     1       5.679   6.729  17.079  0.00  0.00    +0.000 C 
ATOM      8  O   UNL     1       5.910   7.707  16.372  0.00  0.00    +0.000 OA
ATOM      9  N   UNL     1       4.407   6.513  17.635  0.00  0.00    +0.000 N 
ATOM     10  C   UNL     1       3.315   7.437  17.326  0.00  0.00    +0.000 C 
ATOM     11  C   UNL     1       2.516   7.843  18.569  0.00  0.00    +0.000 C 
ATOM     12  C   UNL     1       2.189   6.701  19.534  0.00  0.00    +0.000 C 
ATOM     13  C   UNL     1       3.335   5.709  19.721  0.00  0.00    +0.000 C 
ATOM     14  C   UNL     1       2.827   4.338  20.106  0.00  0.00    +0.000 C 
ATOM     15  O   UNL     1       2.632   3.932  21.237  0.00  0.00    +0.000 OA
ATOM     16  N   UNL     1       2.607   3.621  18.938  0.00  0.00    +0.000 N 
ATOM     17  C   UNL     1       3.068   4.333  17.776  0.00  0.00    +0.000 C 
ATOM     18  C   UNL     1       4.030   5.340  18.406  0.00  0.00    +0.000 C 
ATOM     19  H   UNL     1       2.323   2.649  18.971  0.00  0.00    +0.000 HD
ENDBRANCH   6   7
BRANCH   1  26
ATOM     20  C   UNL     1       5.057   3.105  15.188  0.00  0.00    +0.000 C 
ATOM     21  C   UNL     1       6.047   3.854  14.330  0.00  0.00    +0.000 A 
ATOM     22  C   UNL     1       5.902   3.731  12.936  0.00  0.00    +0.000 A 
ATOM     23  C   UNL     1       6.759   4.389  12.062  0.00  0.00    +0.000 A 
ATOM     24  C   UNL     1       7.768   5.197  12.576  0.00  0.00    +0.000 A 
ATOM     25  C   UNL     1       7.924   5.342  13.957  0.00  0.00    +0.000 A 
ATOM     26  C   UNL     1       7.089   4.667  14.864  0.00  0.00    +0.000 A 
ENDBRANCH   1  26
TORSDOF 2
ENDMDL
MODEL 2
REMARK VINA RESULT:      -7.2      2.125      6.164
REMARK  Name = 
REMARK  4 active torsions:
REMARK  status: ('A' for Active; 'I' for Inactive)
REMARK    1  A    between atoms: C_1  and  C_2
REMARK    2  A    between atoms: C_7  and  C_8
REMARK    3  A    between atoms: C_11  and  C_12
REMARK    4  A    between atoms: C_13  and  C_14
REMARK                            x       y       z     vdW  Elec       q    Type
REMARK                         _______ _______ _______ _____ _____    ______ ____
ROOT
ATOM      1  C   UNL     1       2.422   4.285  18.657  0.00  0.00    +0.000 A 
ATOM      2  N   UNL     1       1.361   3.521  18.357  0.00  0.00    +0.000 NA
ATOM      3  O   UNL     1       1.810   2.256  18.143  0.00  0.00    +0.000 OA
ATOM      4  C   UNL     1       3.143   2.193  18.375  0.00  0.00    +0.000 A 
ATOM      5  C   UNL     1       3.711   0.848  18.159  0.00  0.00    +0.000 C 
ATOM      6  C   UNL     1       3.586   3.440  18.799  0.00  0.00    +0.000 A 
ENDROOT
BRANCH   6   7
ATOM      7  C   UNL     1       4.935   3.815  19.221  0.00  0.00    +0.000 C 
ATOM      8  O   UNL     1       5.354   3.465  20.322  0.00  0.00    +0.000 OA
ATOM      9  N   UNL     1       5.755   4.508  18.314  0.00  0.00    +0.000 N 
ATOM     10  C   UNL     1       7.153   4.774  18.658  0.00  0.00    +0.000 C 
ATOM     11  C   UNL     1       7.572   6.215  18.352  0.00  0.00    +0.000 C 
ATOM     12  C   UNL     1       7.085   6.763  17.007  0.00  0.00    +0.000 C 
ATOM     13  C   UNL     1       5.657   6.351  16.659  0.00  0.00    +0.000 C 
ATOM     14  C   UNL     1       5.435   6.325  15.163  0.00  0.00    +0.000 C 
ATOM     15  O   UNL     1       5.062   7.255  14.473  0.00  0.00    +0.000 OA
ATOM     16  N   UNL     1       5.745   5.052  14.708  0.00  0.00    +0.000 N 
ATOM     17  C   UNL     1       6.018   4.145  15.791  0.00  0.00    +0.000 C 
ATOM     18  C   UNL     1       5.366   4.877  16.963  0.00  0.00    +0.000 C 
ATOM     19  H   UNL     1       5.604   4.798  13.737  0.00  0.00    +0.000 HD
ENDBRANCH   6   7
BRANCH   1  26
ATOM     20  C   UNL     1       1.923   5.529  21.386  0.00  0.00    +0.000 C 
ATOM     21  C   UNL     1       1.990   6.327  20.107  0.00  0.00    +0.000 A 
ATOM     22  C   UNL     1       1.804   7.718  20.215  0.00  0.00    +0.000 A 
ATOM     23  C   UNL     1       1.857   8.540  19.096  0.00  0.00    +0.000 A 
ATOM     24  C   UNL     1       2.115   7.979  17.849  0.00  0.00    +0.000 A 
ATOM     25  C   UNL     1       2.313   6.602  17.720  0.00  0.00    +0.000 A 
ATOM     26  C   UNL     1       2.238   5.743  18.832  0.00  0.00    +0.000 A 
ENDBRANCH   1  26
TORSDOF 2
ENDMDL
MODEL 3
REMARK VINA RESULT:      -7.2      1.119      1.811
REMARK  Name = 
REMARK  4 active torsions:
REMARK  status: ('A' for Active; 'I' for Inactive)
REMARK    1  A    between atoms: C_1  and  C_2
REMARK    2  A    between atoms: C_7  and  C_8
REMARK    3  A    between atoms: C_11  and  C_12
REMARK    4  A    between atoms: C_13  and  C_14
REMARK                            x       y       z     vdW  Elec       q    Type
REMARK                         _______ _______ _______ _____ _____    ______ ____
ROOT
ATOM      1  C   UNL     1       6.966   4.554  16.032  0.00  0.00    +0.000 A 
ATOM      2  N   UNL     1       8.104   4.003  16.482  0.00  0.00    +0.000 NA
ATOM      3  O   UNL     1       8.312   4.461  17.745  0.00  0.00    +0.000 OA
ATOM      4  C   UNL     1       7.276   5.244  18.130  0.00  0.00    +0.000 A 
ATOM      5  C   UNL     1       7.430   5.787  19.494  0.00  0.00    +0.000 C 
ATOM      6  C   UNL     1       6.331   5.273  17.113  0.00  0.00    +0.000 A 
ENDROOT
BRANCH   6   7
ATOM      7  C   UNL     1       5.029   5.939  17.119  0.00  0.00    +0.000 C 
ATOM      8  O   UNL     1       4.859   6.962  16.461  0.00  0.00    +0.000 OA
ATOM      9  N   UNL     1       3.971   5.341  17.825  0.00  0.00    +0.000 N 
ATOM     10  C   UNL     1       2.626   5.911  17.736  0.00  0.00    +0.000 C 
ATOM     11  C   UNL     1       1.941   6.026  19.101  0.00  0.00    +0.000 C 
ATOM     12  C   UNL     1       2.106   4.810  20.016  0.00  0.00    +0.000 C 
ATOM     13  C   UNL     1       3.503   4.195  19.974  0.00  0.00    +0.000 C 
ATOM     14  C   UNL     1       3.474   2.724  20.323  0.00  0.00    +0.000 C 
ATOM     15  O   UNL     1       3.578   2.245  21.437  0.00  0.00    +0.000 OA
ATOM     16  N   UNL     1       3.297   2.009  19.147  0.00  0.00    +0.000 N 
ATOM     17  C   UNL     1       3.352   2.859  17.988  0.00  0.00    +0.000 C 
ATOM     18  C   UNL     1       4.068   4.086  18.553  0.00  0.00    +0.000 C 
ATOM     19  H   UNL     1       3.312   0.996  19.147  0.00  0.00    +0.000 HD
ENDBRANCH   6   7
BRANCH   1  26
ATOM     20  C   UNL     1       8.577   5.597  13.675  0.00  0.00    +0.000 C 
ATOM     21  C   UNL     1       7.296   4.814  13.525  0.00  0.00    +0.000 A 
ATOM     22  C   UNL     1       6.847   4.574  12.214  0.00  0.00    +0.000 A 
ATOM     23  C   UNL     1       5.683   3.855  11.972  0.00  0.00    +0.000 A 
ATOM     24  C   UNL     1       4.959   3.350  13.047  0.00  0.00    +0.000 A 
ATOM     25  C   UNL     1       5.391   3.568  14.357  0.00  0.00    +0.000 A 
ATOM     26  C   UNL     1       6.551   4.314  14.632  0.00  0.00    +0.000 A 
ENDBRANCH   1  26
TORSDOF 2
ENDMDL
MODEL 4
REMARK VINA RESULT:      -6.9     10.404     13.181
REMARK  Name = 
REMARK  4 active torsions:
REMARK  status: ('A' for Active; 'I' for Inactive)
REMARK    1  A    between atoms: C_1  and  C_2
REMARK    2  A    between atoms: C_7  and  C_8
REMARK    3  A    between atoms: C_11  and  C_12
REMARK    4  A    between atoms: C_13  and  C_14
REMARK                            x       y       z     vdW  Elec       q    Type
REMARK                         _______ _______ _______ _____ _____    ______ ____
ROOT
ATOM      1  C   UNL     1      -2.674  13.547  21.590  0.00  0.00    +0.000 A 
ATOM      2  N   UNL     1      -2.020  14.715  21.496  0.00  0.00    +0.000 NA
ATOM      3  O   UNL     1      -2.947  15.691  21.300  0.00  0.00    +0.000 OA
ATOM      4  C   UNL     1      -4.193  15.161  21.341  0.00  0.00    +0.000 A 
ATOM      5  C   UNL     1      -5.259  16.160  21.131  0.00  0.00    +0.000 C 
ATOM      6  C   UNL     1      -4.095  13.803  21.615  0.00  0.00    +0.000 A 
ENDROOT
BRANCH   6   7
ATOM      7  C   UNL     1      -5.187  12.849  21.813  0.00  0.00    +0.000 C 
ATOM      8  O   UNL     1      -5.596  12.610  22.947  0.00  0.00    +0.000 OA
ATOM      9  N   UNL     1      -5.798  12.283  20.681  0.00  0.00    +0.000 N 
ATOM     10  C   UNL     1      -6.979  11.434  20.844  0.00  0.00    +0.000 C 
ATOM     11  C   UNL     1      -6.902  10.149  20.014  0.00  0.00    +0.000 C 
ATOM     12  C   UNL     1      -6.383  10.328  18.585  0.00  0.00    +0.000 C 
ATOM     13  C   UNL     1      -5.224  11.315  18.472  0.00  0.00    +0.000 C 
ATOM     14  C   UNL     1      -5.165  11.949  17.100  0.00  0.00    +0.000 C 
ATOM     15  O   UNL     1      -4.559  11.524  16.134  0.00  0.00    +0.000 OA
ATOM     16  N   UNL     1      -5.937  13.102  17.130  0.00  0.00    +0.000 N 
ATOM     17  C   UNL     1      -6.404  13.402  18.457  0.00  0.00    +0.000 C 
ATOM     18  C   UNL     1      -5.433  12.583  19.307  0.00  0.00    +0.000 C 
ATOM     19  H   UNL     1      -5.983  13.717  16.326  0.00  0.00    +0.000 HD
ENDBRANCH   6   7
BRANCH   1  26
ATOM     20  C   UNL     1      -1.529  12.152  19.143  0.00  0.00    +0.000 C 
ATOM     21  C   UNL     1      -1.373  11.627  20.549  0.00  0.00    +0.000 A 
ATOM     22  C   UNL     1      -0.658  10.425  20.703  0.00  0.00    +0.000 A 
ATOM     23  C   UNL     1      -0.452   9.866  21.959  0.00  0.00    +0.000 A 
ATOM     24  C   UNL     1      -0.948  10.517  23.083  0.00  0.00    +0.000 A 
ATOM     25  C   UNL     1      -1.652  11.716  22.955  0.00  0.00    +0.000 A 
ATOM     26  C   UNL     1      -1.898  12.290  21.695  0.00  0.00    +0.000 A 
ENDBRANCH   1  26
TORSDOF 2
ENDMDL
MODEL 5
REMARK VINA RESULT:      -6.8      2.049      4.054
REMARK  Name = 
REMARK  4 active torsions:
REMARK  status: ('A' for Active; 'I' for Inactive)
REMARK    1  A    between atoms: C_1  and  C_2
REMARK    2  A    between atoms: C_7  and  C_8
REMARK    3  A    between atoms: C_11  and  C_12
REMARK    4  A    between atoms: C_13  and  C_14
REMARK                            x       y       z     vdW  Elec       q    Type
REMARK                         _______ _______ _______ _____ _____    ______ ____
ROOT
ATOM      1  C   UNL     1       6.906   6.124  16.365  0.00  0.00    +0.000 A 
ATOM      2  N   UNL     1       7.666   5.523  15.437  0.00  0.00    +0.000 NA
ATOM      3  O   UNL     1       6.874   4.652  14.757  0.00  0.00    +0.000 OA
ATOM      4  C   UNL     1       5.597   4.747  15.198  0.00  0.00    +0.000 A 
ATOM      5  C   UNL     1       4.671   3.826  14.510  0.00  0.00    +0.000 C 
ATOM      6  C   UNL     1       5.528   5.740  16.168  0.00  0.00    +0.000 A 
ENDROOT
BRANCH   6   7
ATOM      7  C   UNL     1       4.339   6.225  16.869  0.00  0.00    +0.000 C 
ATOM      8  O   UNL     1       3.860   7.319  16.580  0.00  0.00    +0.000 OA
ATOM      9  N   UNL     1       3.725   5.384  17.812  0.00  0.00    +0.000 N 
ATOM     10  C   UNL     1       2.459   5.788  18.427  0.00  0.00    +0.000 C 
ATOM     11  C   UNL     1       2.445   5.574  19.944  0.00  0.00    +0.000 C 
ATOM     12  C   UNL     1       3.040   4.246  20.419  0.00  0.00    +0.000 C 
ATOM     13  C   UNL     1       4.295   3.829  19.657  0.00  0.00    +0.000 C 
ATOM     14  C   UNL     1       4.476   2.328  19.663  0.00  0.00    +0.000 C 
ATOM     15  O   UNL     1       5.078   1.677  20.497  0.00  0.00    +0.000 OA
ATOM     16  N   UNL     1       3.823   1.814  18.552  0.00  0.00    +0.000 N 
ATOM     17  C   UNL     1       3.331   2.855  17.690  0.00  0.00    +0.000 C 
ATOM     18  C   UNL     1       4.178   4.044  18.144  0.00  0.00    +0.000 C 
ATOM     19  H   UNL     1       3.873   0.827  18.330  0.00  0.00    +0.000 HD
ENDBRANCH   6   7
BRANCH   1  26
ATOM     20  C   UNL     1       7.952   5.173  19.057  0.00  0.00    +0.000 C 
ATOM     21  C   UNL     1       8.019   6.609  18.599  0.00  0.00    +0.000 A 
ATOM     22  C   UNL     1       8.598   7.534  19.487  0.00  0.00    +0.000 A 
ATOM     23  C   UNL     1       8.713   8.878  19.154  0.00  0.00    +0.000 A 
ATOM     24  C   UNL     1       8.263   9.312  17.911  0.00  0.00    +0.000 A 
ATOM     25  C   UNL     1       7.695   8.410  17.009  0.00  0.00    +0.000 A 
ATOM     26  C   UNL     1       7.541   7.050  17.331  0.00  0.00    +0.000 A 
ENDBRANCH   1  26
TORSDOF 2
ENDMDL
MODEL 6
REMARK VINA RESULT:      -6.8      8.804     11.405
REMARK  Name = 
REMARK  4 active torsions:
REMARK  status: ('A' for Active; 'I' for Inactive)
REMARK    1  A    between atoms: C_1  and  C_2
REMARK    2  A    between atoms: C_7  and  C_8
REMARK    3  A    between atoms: C_11  and  C_12
REMARK    4  A    between atoms: C_13  and  C_14
REMARK                            x       y       z     vdW  Elec       q    Type
REMARK                         _______ _______ _______ _____ _____    ______ ____
ROOT
ATOM      1  C   UNL     1      -4.287  11.983  19.628  0.00  0.00    +0.000 A 
ATOM      2  N   UNL     1      -5.545  11.722  20.016  0.00  0.00    +0.000 NA
ATOM      3  O   UNL     1      -5.690  12.190  21.284  0.00  0.00    +0.000 OA
ATOM      4  C   UNL     1      -4.554  12.812  21.681  0.00  0.00    +0.000 A 
ATOM      5  C   UNL     1      -4.630  13.345  23.055  0.00  0.00    +0.000 C 
ATOM      6  C   UNL     1      -3.643  12.797  20.632  0.00  0.00    +0.000 A 
ENDROOT
BRANCH   6   7
ATOM      7  C   UNL     1      -2.314  13.408  20.592  0.00  0.00    +0.000 C 
ATOM      8  O   UNL     1      -2.185  14.572  20.220  0.00  0.00    +0.000 OA
ATOM      9  N   UNL     1      -1.218  12.664  21.060  0.00  0.00    +0.000 N 
ATOM     10  C   UNL     1       0.098  13.297  21.159  0.00  0.00    +0.000 C 
ATOM     11  C   UNL     1       1.220  12.420  20.595  0.00  0.00    +0.000 C 
ATOM     12  C   UNL     1       1.145  10.940  20.981  0.00  0.00    +0.000 C 
ATOM     13  C   UNL     1      -0.272  10.374  20.966  0.00  0.00    +0.000 C 
ATOM     14  C   UNL     1      -0.415   9.207  21.917  0.00  0.00    +0.000 C 
ATOM     15  O   UNL     1      -0.220   8.034  21.655  0.00  0.00    +0.000 OA
ATOM     16  N   UNL     1      -0.798   9.707  23.153  0.00  0.00    +0.000 N 
ATOM     17  C   UNL     1      -1.081  11.117  23.098  0.00  0.00    +0.000 C 
ATOM     18  C   UNL     1      -1.302  11.317  21.599  0.00  0.00    +0.000 C 
ATOM     19  H   UNL     1      -1.011   9.084  23.923  0.00  0.00    +0.000 HD
ENDBRANCH   6   7
BRANCH   1  26
ATOM     20  C   UNL     1      -5.822  12.507  17.056  0.00  0.00    +0.000 C 
ATOM     21  C   UNL     1      -4.540  11.713  17.113  0.00  0.00    +0.000 A 
ATOM     22  C   UNL     1      -4.057  11.198  15.896  0.00  0.00    +0.000 A 
ATOM     23  C   UNL     1      -2.879  10.461  15.843  0.00  0.00    +0.000 A 
ATOM     24  C   UNL     1      -2.158  10.245  17.013  0.00  0.00    +0.000 A 
ATOM     25  C   UNL     1      -2.614  10.756  18.230  0.00  0.00    +0.000 A 
ATOM     26  C   UNL     1      -3.815  11.481  18.317  0.00  0.00    +0.000 A 
ENDBRANCH   1  26
TORSDOF 2
ENDMDL
MODEL 7
REMARK VINA RESULT:      -6.8     11.746     14.543
REMARK  Name = 
REMARK  4 active torsions:
REMARK  status: ('A' for Active; 'I' for Inactive)
REMARK    1  A    between atoms: C_1  and  C_2
REMARK    2  A    between atoms: C_7  and  C_8
REMARK    3  A    between atoms: C_11  and  C_12
REMARK    4  A    between atoms: C_13  and  C_14
REMARK                            x       y       z     vdW  Elec       q    Type
REMARK                         _______ _______ _______ _____ _____    ______ ____
ROOT
ATOM      1  C   UNL     1      -4.613  14.177  22.012  0.00  0.00    +0.000 A 
ATOM      2  N   UNL     1      -4.382  15.498  22.061  0.00  0.00    +0.000 NA
ATOM      3  O   UNL     1      -5.579  16.131  21.938  0.00  0.00    +0.000 OA
ATOM      4  C   UNL     1      -6.580  15.221  21.882  0.00  0.00    +0.000 A 
ATOM      5  C   UNL     1      -7.917  15.832  21.742  0.00  0.00    +0.000 C 
ATOM      6  C   UNL     1      -6.040  13.948  22.017  0.00  0.00    +0.000 A 
ENDROOT
BRANCH   6   7
ATOM      7  C   UNL     1      -6.756  12.674  22.077  0.00  0.00    +0.000 C 
ATOM      8  O   UNL     1      -7.214  12.277  23.146  0.00  0.00    +0.000 OA
ATOM      9  N   UNL     1      -6.969  11.965  20.883  0.00  0.00    +0.000 N 
ATOM     10  C   UNL     1      -7.799  10.760  20.894  0.00  0.00    +0.000 C 
ATOM     11  C   UNL     1      -7.170   9.602  20.112  0.00  0.00    +0.000 C 
ATOM     12  C   UNL     1      -6.548   9.988  18.768  0.00  0.00    +0.000 C 
ATOM     13  C   UNL     1      -5.793  11.314  18.800  0.00  0.00    +0.000 C 
ATOM     14  C   UNL     1      -5.761  11.969  17.437  0.00  0.00    +0.000 C 
ATOM     15  O   UNL     1      -4.916  11.804  16.577  0.00  0.00    +0.000 OA
ATOM     16  N   UNL     1      -6.876  12.788  17.331  0.00  0.00    +0.000 N 
ATOM     17  C   UNL     1      -7.600  12.873  18.571  0.00  0.00    +0.000 C 
ATOM     18  C   UNL     1      -6.538  12.411  19.568  0.00  0.00    +0.000 C 
ATOM     19  H   UNL     1      -7.015  13.373  16.516  0.00  0.00    +0.000 HD
ENDBRANCH   6   7
BRANCH   1  26
ATOM     20  C   UNL     1      -3.813  12.612  24.492  0.00  0.00    +0.000 C 
ATOM     21  C   UNL     1      -3.081  12.517  23.176  0.00  0.00    +0.000 A 
ATOM     22  C   UNL     1      -1.971  11.653  23.127  0.00  0.00    +0.000 A 
ATOM     23  C   UNL     1      -1.237  11.490  21.958  0.00  0.00    +0.000 A 
ATOM     24  C   UNL     1      -1.618  12.182  20.813  0.00  0.00    +0.000 A 
ATOM     25  C   UNL     1      -2.722  13.037  20.836  0.00  0.00    +0.000 A 
ATOM     26  C   UNL     1      -3.467  13.241  22.011  0.00  0.00    +0.000 A 
ENDBRANCH   1  26
TORSDOF 2
ENDMDL
MODEL 8
REMARK VINA RESULT:      -6.7      2.039      6.340
REMARK  Name = 
REMARK  4 active torsions:
REMARK  status: ('A' for Active; 'I' for Inactive)
REMARK    1  A    between atoms: C_1  and  C_2
REMARK    2  A    between atoms: C_7  and  C_8
REMARK    3  A    between atoms: C_11  and  C_12
REMARK    4  A    between atoms: C_13  and  C_14
REMARK                            x       y       z     vdW  Elec       q    Type
REMARK                         _______ _______ _______ _____ _____    ______ ____
ROOT
ATOM      1  C   UNL     1       2.282   5.911  19.849  0.00  0.00    +0.000 A 
ATOM      2  N   UNL     1       2.222   5.705  21.174  0.00  0.00    +0.000 NA
ATOM      3  O   UNL     1       2.369   4.372  21.391  0.00  0.00    +0.000 OA
ATOM      4  C   UNL     1       2.594   3.733  20.218  0.00  0.00    +0.000 A 
ATOM      5  C   UNL     1       2.760   2.275  20.369  0.00  0.00    +0.000 C 
ATOM      6  C   UNL     1       2.643   4.673  19.197  0.00  0.00    +0.000 A 
ENDROOT
BRANCH   6   7
ATOM      7  C   UNL     1       2.926   4.442  17.780  0.00  0.00    +0.000 C 
ATOM      8  O   UNL     1       2.025   4.085  17.024  0.00  0.00    +0.000 OA
ATOM      9  N   UNL     1       4.218   4.714  17.300  0.00  0.00    +0.000 N 
ATOM     10  C   UNL     1       4.491   4.624  15.864  0.00  0.00    +0.000 C 
ATOM     11  C   UNL     1       5.788   3.869  15.557  0.00  0.00    +0.000 C 
ATOM     12  C   UNL     1       6.976   4.223  16.455  0.00  0.00    +0.000 C 
ATOM     13  C   UNL     1       6.599   4.415  17.922  0.00  0.00    +0.000 C 
ATOM     14  C   UNL     1       7.561   5.346  18.626  0.00  0.00    +0.000 C 
ATOM     15  O   UNL     1       8.586   5.027  19.198  0.00  0.00    +0.000 OA
ATOM     16  N   UNL     1       7.075   6.639  18.496  0.00  0.00    +0.000 N 
ATOM     17  C   UNL     1       5.771   6.665  17.889  0.00  0.00    +0.000 C 
ATOM     18  C   UNL     1       5.311   5.224  18.110  0.00  0.00    +0.000 C 
ATOM     19  H   UNL     1       7.537   7.417  18.953  0.00  0.00    +0.000 HD
ENDBRANCH   6   7
BRANCH   1  26
ATOM     20  C   UNL     1       1.000   8.094  21.532  0.00  0.00    +0.000 C 
ATOM     21  C   UNL     1       1.426   8.291  20.098  0.00  0.00    +0.000 A 
ATOM     22  C   UNL     1       1.201   9.562  19.537  0.00  0.00    +0.000 A 
ATOM     23  C   UNL     1       1.566   9.844  18.226  0.00  0.00    +0.000 A 
ATOM     24  C   UNL     1       2.180   8.857  17.462  0.00  0.00    +0.000 A 
ATOM     25  C   UNL     1       2.422   7.592  18.002  0.00  0.00    +0.000 A 
ATOM     26  C   UNL     1       2.039   7.270  19.316  0.00  0.00    +0.000 A 
ENDBRANCH   1  26
TORSDOF 2
ENDMDL
MODEL 9
REMARK VINA RESULT:      -6.6      9.164     10.479
REMARK  Name = 
REMARK  4 active torsions:
REMARK  status: ('A' for Active; 'I' for Inactive)
REMARK    1  A    between atoms: C_1  and  C_2
REMARK    2  A    between atoms: C_7  and  C_8
REMARK    3  A    between atoms: C_11  and  C_12
REMARK    4  A    between atoms: C_13  and  C_14
REMARK                            x       y       z     vdW  Elec       q    Type
REMARK                         _______ _______ _______ _____ _____    ______ ____
ROOT
ATOM      1  C   UNL     1       8.515  13.729  18.524  0.00  0.00    +0.000 A 
ATOM      2  N   UNL     1       7.887  13.187  17.469  0.00  0.00    +0.000 NA
ATOM      3  O   UNL     1       6.662  13.770  17.375  0.00  0.00    +0.000 OA
ATOM      4  C   UNL     1       6.533  14.732  18.320  0.00  0.00    +0.000 A 
ATOM      5  C   UNL     1       5.224  15.411  18.288  0.00  0.00    +0.000 C 
ATOM      6  C   UNL     1       7.721  14.822  19.035  0.00  0.00    +0.000 A 
ENDROOT
BRANCH   6   7
ATOM      7  C   UNL     1       8.054  15.765  20.103  0.00  0.00    +0.000 C 
ATOM      8  O   UNL     1       8.398  16.911  19.825  0.00  0.00    +0.000 OA
ATOM      9  N   UNL     1       7.895  15.353  21.437  0.00  0.00    +0.000 N 
ATOM     10  C   UNL     1       8.088  16.318  22.521  0.00  0.00    +0.000 C 
ATOM     11  C   UNL     1       8.940  15.758  23.664  0.00  0.00    +0.000 C 
ATOM     12  C   UNL     1       8.609  14.323  24.081  0.00  0.00    +0.000 C 
ATOM     13  C   UNL     1       8.306  13.398  22.905  0.00  0.00    +0.000 C 
ATOM     14  C   UNL     1       7.398  12.259  23.312  0.00  0.00    +0.000 C 
ATOM     15  O   UNL     1       7.747  11.176  23.742  0.00  0.00    +0.000 OA
ATOM     16  N   UNL     1       6.086  12.671  23.121  0.00  0.00    +0.000 N 
ATOM     17  C   UNL     1       6.014  13.951  22.469  0.00  0.00    +0.000 C 
ATOM     18  C   UNL     1       7.407  14.047  21.846  0.00  0.00    +0.000 C 
ATOM     19  H   UNL     1       5.314  12.033  23.274  0.00  0.00    +0.000 HD
ENDBRANCH   6   7
BRANCH   1  26
ATOM     20  C   UNL     1      11.108  14.778  17.333  0.00  0.00    +0.000 C 
ATOM     21  C   UNL     1      11.051  13.677  18.364  0.00  0.00    +0.000 A 
ATOM     22  C   UNL     1      12.279  13.125  18.772  0.00  0.00    +0.000 A 
ATOM     23  C   UNL     1      12.332  12.113  19.723  0.00  0.00    +0.000 A 
ATOM     24  C   UNL     1      11.151  11.650  20.293  0.00  0.00    +0.000 A 
ATOM     25  C   UNL     1       9.921  12.191  19.909  0.00  0.00    +0.000 A 
ATOM     26  C   UNL     1       9.836  13.197  18.930  0.00  0.00    +0.000 A 
ENDBRANCH   1  26
TORSDOF 2
ENDMDL
