MODEL 1
REMARK VINA RESULT:      -8.2      0.000      0.000
REMARK  Name = 
REMARK  9 active torsions:
REMARK  status: ('A' for Active; 'I' for Inactive)
REMARK    1  A    between atoms: C_1  and  C_2
REMARK    2  A    between atoms: C_2  and  C_3
REMARK    3  A    between atoms: C_3  and  C_4
REMARK    4  A    between atoms: C_3  and  C_23
REMARK    5  A    between atoms: C_8  and  N_9
REMARK    6  A    between atoms: C_10  and  C_12
REMARK    7  A    between atoms: C_16  and  C_17
REMARK    8  A    between atoms: C_18  and  C_19
REMARK    9  A    between atoms: N_27  and  C_28
REMARK                            x       y       z     vdW  Elec       q    Type
REMARK                         _______ _______ _______ _____ _____    ______ ____
ROOT
ATOM      1  C   UNL     1       9.671  12.416  18.468  0.00  0.00    +0.000 A 
ATOM      2  C   UNL     1       9.786  12.803  19.813  0.00  0.00    +0.000 A 
ATOM      3  C   UNL     1       9.680  11.862  20.831  0.00  0.00    +0.000 A 
ATOM      4  C   UNL     1       9.398  10.534  20.523  0.00  0.00    +0.000 A 
ATOM      5  C   UNL     1       9.202  10.130  19.200  0.00  0.00    +0.000 A 
ATOM      6  C   UNL     1       9.406  11.061  18.172  0.00  0.00    +0.000 A 
ENDROOT
BRANCH   5   7
ATOM      7  N   UNL     1       8.749   8.833  18.868  0.00  0.00    +0.000 N 
ATOM      8  C   UNL     1       7.775   8.542  17.922  0.00  0.00    +0.000 C 
ATOM      9  O   UNL     1       7.109   9.352  17.283  0.00  0.00    +0.000 OA
ATOM     10  H   UNL     1       9.278   8.032  19.202  0.00  0.00    +0.000 HD
BRANCH   8  11
ATOM     11  C   UNL     1       7.581   7.086  17.641  0.00  0.00    +0.000 A 
ATOM     12  C   UNL     1       7.956   6.157  18.606  0.00  0.00    +0.000 A 
ATOM     13  C   UNL     1       7.756   4.811  18.335  0.00  0.00    +0.000 A 
ATOM     14  C   UNL     1       7.193   4.444  17.119  0.00  0.00    +0.000 A 
ATOM     15  C   UNL     1       6.838   5.438  16.207  0.00  0.00    +0.000 A 
ATOM     16  N   UNL     1       7.020   6.760  16.448  0.00  0.00    +0.000 NA
BRANCH  15  17
ATOM     17  C   UNL     1       6.229   5.070  14.923  0.00  0.00    +0.000 C 
ATOM     18  C   UNL     1       6.632   4.029  14.176  0.00  0.00    +0.000 C 
BRANCH  18  19
ATOM     19  C   UNL     1       6.036   3.643  12.864  0.00  0.00    +0.000 C 
ATOM     20  F   UNL     1       4.687   3.824  12.853  0.00  0.00    +0.000 F 
ENDBRANCH  18  19
ENDBRANCH  15  17
ENDBRANCH   8  11
ENDBRANCH   5   7
BRANCH   1  21
ATOM     21  C   UNL     1       9.800  13.474  17.376  0.00  0.00    +0.000 C 
BRANCH  21  22
ATOM     22  C   UNL     1       9.378  14.833  17.871  0.00  0.00    +0.000 A 
ATOM     23  N   UNL     1      10.185  15.805  18.260  0.00  0.00    +0.000 NA
ATOM     24  N   UNL     1       9.425  16.896  18.599  0.00  0.00    +0.000 NA
ATOM     25  C   UNL     1       8.168  16.570  18.421  0.00  0.00    +0.000 A 
ATOM     26  N   UNL     1       8.085  15.289  17.971  0.00  0.00    +0.000 N 
ATOM     27  C   UNL     1       6.867  14.590  17.661  0.00  0.00    +0.000 C 
ENDBRANCH  21  22
BRANCH  21  29
ATOM     28  C   UNL     1      12.324  13.008  17.670  0.00  0.00    +0.000 C 
ATOM     29  C   UNL     1      11.222  13.549  16.765  0.00  0.00    +0.000 C 
ENDBRANCH  21  29
ENDBRANCH   1  21
TORSDOF 7
ENDMDL
MODEL 2
REMARK VINA RESULT:      -8.1      5.769      9.948
REMARK  Name = 
REMARK  9 active torsions:
REMARK  status: ('A' for Active; 'I' for Inactive)
REMARK    1  A    between atoms: C_1  and  C_2
REMARK    2  A    between atoms: C_2  and  C_3
REMARK    3  A    between atoms: C_3  and  C_4
REMARK    4  A    between atoms: C_3  and  C_23
REMARK    5  A    between atoms: C_8  and  N_9
REMARK    6  A    between atoms: C_10  and  C_12
REMARK    7  A    between atoms: C_16  and  C_17
REMARK    8  A    between atoms: C_18  and  C_19
REMARK    9  A    between atoms: N_27  and  C_28
REMARK                            x       y       z     vdW  Elec       q    Type
REMARK                         _______ _______ _______ _____ _____    ______ ____
ROOT
ATOM      1  C   UNL     1       4.420   5.294  17.168  0.00  0.00    +0.000 A 
ATOM      2  C   UNL     1       3.663   4.113  17.101  0.00  0.00    +0.000 A 
ATOM      3  C   UNL     1       2.342   4.095  17.534  0.00  0.00    +0.000 A 
ATOM      4  C   UNL     1       1.779   5.239  18.095  0.00  0.00    +0.000 A 
ATOM      5  C   UNL     1       2.529   6.407  18.247  0.00  0.00    +0.000 A 
ATOM      6  C   UNL     1       3.827   6.450  17.721  0.00  0.00    +0.000 A 
ENDROOT
BRANCH   5   7
ATOM      7  N   UNL     1       2.044   7.525  18.963  0.00  0.00    +0.000 N 
ATOM      8  C   UNL     1       1.800   8.780  18.419  0.00  0.00    +0.000 C 
ATOM      9  O   UNL     1       2.027   9.136  17.267  0.00  0.00    +0.000 OA
ATOM     10  H   UNL     1       1.675   7.383  19.899  0.00  0.00    +0.000 HD
BRANCH   8  11
ATOM     11  C   UNL     1       1.142   9.753  19.345  0.00  0.00    +0.000 A 
ATOM     12  C   UNL     1       0.639   9.295  20.559  0.00  0.00    +0.000 A 
ATOM     13  C   UNL     1       0.044  10.214  21.412  0.00  0.00    +0.000 A 
ATOM     14  C   UNL     1      -0.024  11.547  21.027  0.00  0.00    +0.000 A 
ATOM     15  C   UNL     1       0.510  11.926  19.795  0.00  0.00    +0.000 A 
ATOM     16  N   UNL     1       1.098  11.050  18.944  0.00  0.00    +0.000 NA
BRANCH  15  17
ATOM     17  C   UNL     1       0.459  13.333  19.377  0.00  0.00    +0.000 C 
ATOM     18  C   UNL     1       0.704  14.366  20.200  0.00  0.00    +0.000 C 
BRANCH  18  19
ATOM     19  C   UNL     1       0.646  15.802  19.801  0.00  0.00    +0.000 C 
ATOM     20  F   UNL     1       0.624  15.946  18.448  0.00  0.00    +0.000 F 
ENDBRANCH  18  19
ENDBRANCH  15  17
ENDBRANCH   8  11
ENDBRANCH   5   7
BRANCH   1  21
ATOM     21  C   UNL     1       5.865   5.280  16.678  0.00  0.00    +0.000 C 
BRANCH  21  22
ATOM     22  C   UNL     1       6.836   5.481  17.814  0.00  0.00    +0.000 A 
ATOM     23  N   UNL     1       7.198   4.568  18.698  0.00  0.00    +0.000 NA
ATOM     24  N   UNL     1       8.126   5.123  19.544  0.00  0.00    +0.000 NA
ATOM     25  C   UNL     1       8.306   6.366  19.170  0.00  0.00    +0.000 A 
ATOM     26  N   UNL     1       7.519   6.640  18.094  0.00  0.00    +0.000 N 
ATOM     27  C   UNL     1       7.453   7.903  17.408  0.00  0.00    +0.000 C 
ENDBRANCH  21  22
BRANCH  21  29
ATOM     28  C   UNL     1       6.090   4.126  14.378  0.00  0.00    +0.000 C 
ATOM     29  C   UNL     1       6.228   3.995  15.890  0.00  0.00    +0.000 C 
ENDBRANCH  21  29
ENDBRANCH   1  21
TORSDOF 7
ENDMDL
MODEL 3
REMARK VINA RESULT:      -8.0      6.456     10.327
REMARK  Name = 
REMARK  9 active torsions:
REMARK  status: ('A' for Active; 'I' for Inactive)
REMARK    1  A    between atoms: C_1  and  C_2
REMARK    2  A    between atoms: C_2  and  C_3
REMARK    3  A    between atoms: C_3  and  C_4
REMARK    4  A    between atoms: C_3  and  C_23
REMARK    5  A    between atoms: C_8  and  N_9
REMARK    6  A    between atoms: C_10  and  C_12
REMARK    7  A    between atoms: C_16  and  C_17
REMARK    8  A    between atoms: C_18  and  C_19
REMARK    9  A    between atoms: N_27  and  C_28
REMARK                            x       y       z     vdW  Elec       q    Type
REMARK                         _______ _______ _______ _____ _____    ______ ____
ROOT
ATOM      1  C   UNL     1       3.584   5.043  18.768  0.00  0.00    +0.000 A 
ATOM      2  C   UNL     1       3.199   3.767  19.211  0.00  0.00    +0.000 A 
ATOM      3  C   UNL     1       2.157   3.619  20.119  0.00  0.00    +0.000 A 
ATOM      4  C   UNL     1       1.525   4.744  20.641  0.00  0.00    +0.000 A 
ATOM      5  C   UNL     1       1.935   6.030  20.280  0.00  0.00    +0.000 A 
ATOM      6  C   UNL     1       2.919   6.173  19.292  0.00  0.00    +0.000 A 
ENDROOT
BRANCH   5   7
ATOM      7  N   UNL     1       1.432   7.187  20.917  0.00  0.00    +0.000 N 
ATOM      8  C   UNL     1       1.297   8.434  20.321  0.00  0.00    +0.000 C 
ATOM      9  O   UNL     1       1.651   8.748  19.188  0.00  0.00    +0.000 OA
ATOM     10  H   UNL     1       0.969   7.086  21.816  0.00  0.00    +0.000 HD
BRANCH   8  11
ATOM     11  C   UNL     1       0.596   9.460  21.154  0.00  0.00    +0.000 A 
ATOM     12  C   UNL     1       0.015   9.070  22.357  0.00  0.00    +0.000 A 
ATOM     13  C   UNL     1      -0.619  10.037  23.124  0.00  0.00    +0.000 A 
ATOM     14  C   UNL     1      -0.649  11.349  22.667  0.00  0.00    +0.000 A 
ATOM     15  C   UNL     1      -0.037  11.659  21.452  0.00  0.00    +0.000 A 
ATOM     16  N   UNL     1       0.591  10.734  20.685  0.00  0.00    +0.000 NA
BRANCH  15  17
ATOM     17  C   UNL     1      -0.046  13.042  20.960  0.00  0.00    +0.000 C 
ATOM     18  C   UNL     1       1.061  13.785  20.799  0.00  0.00    +0.000 C 
BRANCH  18  19
ATOM     19  C   UNL     1       1.075  15.195  20.312  0.00  0.00    +0.000 C 
ATOM     20  F   UNL     1       1.351  15.263  18.981  0.00  0.00    +0.000 F 
ENDBRANCH  18  19
ENDBRANCH  15  17
ENDBRANCH   8  11
ENDBRANCH   5   7
BRANCH   1  21
ATOM     21  C   UNL     1       4.728   5.169  17.766  0.00  0.00    +0.000 C 
BRANCH  21  22
ATOM     22  C   UNL     1       6.040   5.440  18.457  0.00  0.00    +0.000 A 
ATOM     23  N   UNL     1       6.552   4.741  19.456  0.00  0.00    +0.000 NA
ATOM     24  N   UNL     1       7.774   5.274  19.780  0.00  0.00    +0.000 NA
ATOM     25  C   UNL     1       7.984   6.293  18.982  0.00  0.00    +0.000 A 
ATOM     26  N   UNL     1       6.927   6.440  18.139  0.00  0.00    +0.000 N 
ATOM     27  C   UNL     1       6.806   7.449  17.121  0.00  0.00    +0.000 C 
ENDBRANCH  21  22
BRANCH  21  29
ATOM     28  C   UNL     1       5.932   4.074  15.760  0.00  0.00    +0.000 C 
ATOM     29  C   UNL     1       4.862   3.936  16.836  0.00  0.00    +0.000 C 
ENDBRANCH  21  29
ENDBRANCH   1  21
TORSDOF 7
ENDMDL
MODEL 4
REMARK VINA RESULT:      -7.8      5.975      9.715
REMARK  Name = 
REMARK  9 active torsions:
REMARK  status: ('A' for Active; 'I' for Inactive)
REMARK    1  A    between atoms: C_1  and  C_2
REMARK    2  A    between atoms: C_2  and  C_3
REMARK    3  A    between atoms: C_3  and  C_4
REMARK    4  A    between atoms: C_3  and  C_23
REMARK    5  A    between atoms: C_8  and  N_9
REMARK    6  A    between atoms: C_10  and  C_12
REMARK    7  A    between atoms: C_16  and  C_17
REMARK    8  A    between atoms: C_18  and  C_19
REMARK    9  A    between atoms: N_27  and  C_28
REMARK                            x       y       z     vdW  Elec       q    Type
REMARK                         _______ _______ _______ _____ _____    ______ ____
ROOT
ATOM      1  C   UNL     1       4.495   5.476  16.994  0.00  0.00    +0.000 A 
ATOM      2  C   UNL     1       3.954   4.180  16.982  0.00  0.00    +0.000 A 
ATOM      3  C   UNL     1       2.778   3.899  17.668  0.00  0.00    +0.000 A 
ATOM      4  C   UNL     1       2.159   4.892  18.423  0.00  0.00    +0.000 A 
ATOM      5  C   UNL     1       2.713   6.171  18.518  0.00  0.00    +0.000 A 
ATOM      6  C   UNL     1       3.843   6.477  17.748  0.00  0.00    +0.000 A 
ENDROOT
BRANCH   5   7
ATOM      7  N   UNL     1       2.206   7.146  19.407  0.00  0.00    +0.000 N 
ATOM      8  C   UNL     1       1.686   8.378  19.031  0.00  0.00    +0.000 C 
ATOM      9  O   UNL     1       1.646   8.842  17.896  0.00  0.00    +0.000 OA
ATOM     10  H   UNL     1       2.038   6.884  20.374  0.00  0.00    +0.000 HD
BRANCH   8  11
ATOM     11  C   UNL     1       1.070   9.169  20.142  0.00  0.00    +0.000 A 
ATOM     12  C   UNL     1       0.696   8.513  21.310  0.00  0.00    +0.000 A 
ATOM     13  C   UNL     1       0.139   9.264  22.336  0.00  0.00    +0.000 A 
ATOM     14  C   UNL     1      -0.021  10.633  22.160  0.00  0.00    +0.000 A 
ATOM     15  C   UNL     1       0.387  11.216  20.959  0.00  0.00    +0.000 A 
ATOM     16  N   UNL     1       0.935  10.505  19.943  0.00  0.00    +0.000 NA
BRANCH  15  17
ATOM     17  C   UNL     1       0.239  12.663  20.761  0.00  0.00    +0.000 C 
ATOM     18  C   UNL     1      -0.249  13.217  19.639  0.00  0.00    +0.000 C 
BRANCH  18  19
ATOM     19  C   UNL     1      -0.398  14.683  19.410  0.00  0.00    +0.000 C 
ATOM     20  F   UNL     1      -1.555  15.159  19.946  0.00  0.00    +0.000 F 
ENDBRANCH  18  19
ENDBRANCH  15  17
ENDBRANCH   8  11
ENDBRANCH   5   7
BRANCH   1  21
ATOM     21  C   UNL     1       5.784   5.752  16.225  0.00  0.00    +0.000 C 
BRANCH  21  22
ATOM     22  C   UNL     1       6.767   6.536  17.057  0.00  0.00    +0.000 A 
ATOM     23  N   UNL     1       7.106   7.800  16.875  0.00  0.00    +0.000 NA
ATOM     24  N   UNL     1       7.992   8.161  17.859  0.00  0.00    +0.000 NA
ATOM     25  C   UNL     1       8.186   7.111  18.619  0.00  0.00    +0.000 A 
ATOM     26  N   UNL     1       7.445   6.067  18.157  0.00  0.00    +0.000 N 
ATOM     27  C   UNL     1       7.400   4.753  18.739  0.00  0.00    +0.000 C 
ENDBRANCH  21  22
BRANCH  21  29
ATOM     28  C   UNL     1       6.297   4.262  14.179  0.00  0.00    +0.000 C 
ATOM     29  C   UNL     1       6.455   4.466  15.681  0.00  0.00    +0.000 C 
ENDBRANCH  21  29
ENDBRANCH   1  21
TORSDOF 7
ENDMDL
MODEL 5
REMARK VINA RESULT:      -7.8      1.291      1.508
REMARK  Name = 
REMARK  9 active torsions:
REMARK  status: ('A' for Active; 'I' for Inactive)
REMARK    1  A    between atoms: C_1  and  C_2
REMARK    2  A    between atoms: C_2  and  C_3
REMARK    3  A    between atoms: C_3  and  C_4
REMARK    4  A    between atoms: C_3  and  C_23
REMARK    5  A    between atoms: C_8  and  N_9
REMARK    6  A    between atoms: C_10  and  C_12
REMARK    7  A    between atoms: C_16  and  C_17
REMARK    8  A    between atoms: C_18  and  C_19
REMARK    9  A    between atoms: N_27  and  C_28
REMARK                            x       y       z     vdW  Elec       q    Type
REMARK                         _______ _______ _______ _____ _____    ______ ____
ROOT
ATOM      1  C   UNL     1       9.402  12.121  18.240  0.00  0.00    +0.000 A 
ATOM      2  C   UNL     1       9.755  12.004  19.595  0.00  0.00    +0.000 A 
ATOM      3  C   UNL     1       9.588  10.798  20.267  0.00  0.00    +0.000 A 
ATOM      4  C   UNL     1       9.012   9.712  19.613  0.00  0.00    +0.000 A 
ATOM      5  C   UNL     1       8.579   9.818  18.289  0.00  0.00    +0.000 A 
ATOM      6  C   UNL     1       8.838  11.003  17.587  0.00  0.00    +0.000 A 
ENDROOT
BRANCH   5   7
ATOM      7  N   UNL     1       7.841   8.794  17.654  0.00  0.00    +0.000 N 
ATOM      8  C   UNL     1       7.806   7.465  18.056  0.00  0.00    +0.000 C 
ATOM      9  O   UNL     1       8.454   6.958  18.967  0.00  0.00    +0.000 OA
ATOM     10  H   UNL     1       7.143   9.054  16.962  0.00  0.00    +0.000 HD
BRANCH   8  11
ATOM     11  C   UNL     1       6.830   6.607  17.317  0.00  0.00    +0.000 A 
ATOM     12  C   UNL     1       5.539   6.468  17.818  0.00  0.00    +0.000 A 
ATOM     13  C   UNL     1       4.641   5.679  17.112  0.00  0.00    +0.000 A 
ATOM     14  C   UNL     1       5.061   5.063  15.940  0.00  0.00    +0.000 A 
ATOM     15  C   UNL     1       6.371   5.257  15.502  0.00  0.00    +0.000 A 
ATOM     16  N   UNL     1       7.267   6.024  16.171  0.00  0.00    +0.000 NA
BRANCH  15  17
ATOM     17  C   UNL     1       6.829   4.625  14.258  0.00  0.00    +0.000 C 
ATOM     18  C   UNL     1       6.026   3.932  13.433  0.00  0.00    +0.000 C 
BRANCH  18  19
ATOM     19  C   UNL     1       6.470   3.272  12.172  0.00  0.00    +0.000 C 
ATOM     20  F   UNL     1       7.309   4.070  11.456  0.00  0.00    +0.000 F 
ENDBRANCH  18  19
ENDBRANCH  15  17
ENDBRANCH   8  11
ENDBRANCH   5   7
BRANCH   1  21
ATOM     21  C   UNL     1       9.603  13.457  17.531  0.00  0.00    +0.000 C 
BRANCH  21  22
ATOM     22  C   UNL     1       9.142  14.611  18.385  0.00  0.00    +0.000 A 
ATOM     23  N   UNL     1       9.914  15.391  19.122  0.00  0.00    +0.000 NA
ATOM     24  N   UNL     1       9.130  16.347  19.716  0.00  0.00    +0.000 NA
ATOM     25  C   UNL     1       7.892  16.130  19.341  0.00  0.00    +0.000 A 
ATOM     26  N   UNL     1       7.847  15.052  18.512  0.00  0.00    +0.000 N 
ATOM     27  C   UNL     1       6.659  14.520  17.899  0.00  0.00    +0.000 C 
ENDBRANCH  21  22
BRANCH  21  29
ATOM     28  C   UNL     1      12.055  12.645  17.578  0.00  0.00    +0.000 C 
ATOM     29  C   UNL     1      11.066  13.688  17.072  0.00  0.00    +0.000 C 
ENDBRANCH  21  29
ENDBRANCH   1  21
TORSDOF 7
ENDMDL
MODEL 6
REMARK VINA RESULT:      -7.8      2.030      3.198
REMARK  Name = 
REMARK  9 active torsions:
REMARK  status: ('A' for Active; 'I' for Inactive)
REMARK    1  A    between atoms: C_1  and  C_2
REMARK    2  A    between atoms: C_2  and  C_3
REMARK    3  A    between atoms: C_3  and  C_4
REMARK    4  A    between atoms: C_3  and  C_23
REMARK    5  A    between atoms: C_8  and  N_9
REMARK    6  A    between atoms: C_10  and  C_12
REMARK    7  A    between atoms: C_16  and  C_17
REMARK    8  A    between atoms: C_18  and  C_19
REMARK    9  A    between atoms: N_27  and  C_28
REMARK                            x       y       z     vdW  Elec       q    Type
REMARK                         _______ _______ _______ _____ _____    ______ ____
ROOT
ATOM      1  C   UNL     1       9.725  12.240  20.926  0.00  0.00    +0.000 A 
ATOM      2  C   UNL     1      10.795  12.732  20.159  0.00  0.00    +0.000 A 
ATOM      3  C   UNL     1      11.180  12.089  18.989  0.00  0.00    +0.000 A 
ATOM      4  C   UNL     1      10.542  10.914  18.599  0.00  0.00    +0.000 A 
ATOM      5  C   UNL     1       9.526  10.356  19.379  0.00  0.00    +0.000 A 
ATOM      6  C   UNL     1       9.075  11.058  20.504  0.00  0.00    +0.000 A 
ENDROOT
BRANCH   5   7
ATOM      7  N   UNL     1       8.978   9.083  19.103  0.00  0.00    +0.000 N 
ATOM      8  C   UNL     1       8.089   8.799  18.074  0.00  0.00    +0.000 C 
ATOM      9  O   UNL     1       7.588   9.605  17.295  0.00  0.00    +0.000 OA
ATOM     10  H   UNL     1       9.378   8.269  19.562  0.00  0.00    +0.000 HD
BRANCH   8  11
ATOM     11  C   UNL     1       7.774   7.349  17.892  0.00  0.00    +0.000 A 
ATOM     12  C   UNL     1       8.111   6.453  18.903  0.00  0.00    +0.000 A 
ATOM     13  C   UNL     1       7.800   5.113  18.723  0.00  0.00    +0.000 A 
ATOM     14  C   UNL     1       7.167   4.718  17.551  0.00  0.00    +0.000 A 
ATOM     15  C   UNL     1       6.857   5.680  16.589  0.00  0.00    +0.000 A 
ATOM     16  N   UNL     1       7.148   6.995  16.740  0.00  0.00    +0.000 NA
BRANCH  15  17
ATOM     17  C   UNL     1       6.175   5.283  15.351  0.00  0.00    +0.000 C 
ATOM     18  C   UNL     1       6.612   4.307  14.538  0.00  0.00    +0.000 C 
BRANCH  18  19
ATOM     19  C   UNL     1       5.943   3.894  13.270  0.00  0.00    +0.000 C 
ATOM     20  F   UNL     1       6.799   3.943  12.213  0.00  0.00    +0.000 F 
ENDBRANCH  18  19
ENDBRANCH  15  17
ENDBRANCH   8  11
ENDBRANCH   5   7
BRANCH   1  21
ATOM     21  C   UNL     1       9.324  12.974  22.202  0.00  0.00    +0.000 C 
BRANCH  21  22
ATOM     22  C   UNL     1       8.646  14.285  21.895  0.00  0.00    +0.000 A 
ATOM     23  N   UNL     1       7.393  14.439  21.503  0.00  0.00    +0.000 NA
ATOM     24  N   UNL     1       7.140  15.782  21.367  0.00  0.00    +0.000 NA
ATOM     25  C   UNL     1       8.243  16.423  21.668  0.00  0.00    +0.000 A 
ATOM     26  N   UNL     1       9.215  15.531  22.001  0.00  0.00    +0.000 N 
ATOM     27  C   UNL     1      10.558  15.868  22.392  0.00  0.00    +0.000 C 
ENDBRANCH  21  22
BRANCH  21  29
ATOM     28  C   UNL     1       8.303  12.672  24.555  0.00  0.00    +0.000 C 
ATOM     29  C   UNL     1       8.433  12.121  23.140  0.00  0.00    +0.000 C 
ENDBRANCH  21  29
ENDBRANCH   1  21
TORSDOF 7
ENDMDL
MODEL 7
REMARK VINA RESULT:      -7.8      6.829      8.115
REMARK  Name = 
REMARK  9 active torsions:
REMARK  status: ('A' for Active; 'I' for Inactive)
REMARK    1  A    between atoms: C_1  and  C_2
REMARK    2  A    between atoms: C_2  and  C_3
REMARK    3  A    between atoms: C_3  and  C_4
REMARK    4  A    between atoms: C_3  and  C_23
REMARK    5  A    between atoms: C_8  and  N_9
REMARK    6  A    between atoms: C_10  and  C_12
REMARK    7  A    between atoms: C_16  and  C_17
REMARK    8  A    between atoms: C_18  and  C_19
REMARK    9  A    between atoms: N_27  and  C_28
REMARK                            x       y       z     vdW  Elec       q    Type
REMARK                         _______ _______ _______ _____ _____    ______ ____
ROOT
ATOM      1  C   UNL     1      -0.381  10.259  20.325  0.00  0.00    +0.000 A 
ATOM      2  C   UNL     1      -0.504  10.377  21.720  0.00  0.00    +0.000 A 
ATOM      3  C   UNL     1       0.312   9.634  22.566  0.00  0.00    +0.000 A 
ATOM      4  C   UNL     1       1.218   8.721  22.034  0.00  0.00    +0.000 A 
ATOM      5  C   UNL     1       1.311   8.523  20.654  0.00  0.00    +0.000 A 
ATOM      6  C   UNL     1       0.558   9.342  19.802  0.00  0.00    +0.000 A 
ENDROOT
BRANCH   5   7
ATOM      7  N   UNL     1       2.093   7.489  20.093  0.00  0.00    +0.000 N 
ATOM      8  C   UNL     1       2.619   7.490  18.808  0.00  0.00    +0.000 C 
ATOM      9  O   UNL     1       2.435   8.339  17.941  0.00  0.00    +0.000 OA
ATOM     10  H   UNL     1       2.457   6.765  20.707  0.00  0.00    +0.000 HD
BRANCH   8  11
ATOM     11  C   UNL     1       3.542   6.353  18.501  0.00  0.00    +0.000 A 
ATOM     12  C   UNL     1       3.770   5.387  19.477  0.00  0.00    +0.000 A 
ATOM     13  C   UNL     1       4.617   4.332  19.171  0.00  0.00    +0.000 A 
ATOM     14  C   UNL     1       5.202   4.279  17.911  0.00  0.00    +0.000 A 
ATOM     15  C   UNL     1       4.916   5.284  16.987  0.00  0.00    +0.000 A 
ATOM     16  N   UNL     1       4.090   6.324  17.259  0.00  0.00    +0.000 NA
BRANCH  15  17
ATOM     17  C   UNL     1       5.513   5.237  15.647  0.00  0.00    +0.000 C 
ATOM     18  C   UNL     1       5.788   4.097  14.991  0.00  0.00    +0.000 C 
BRANCH  18  19
ATOM     19  C   UNL     1       6.404   4.025  13.635  0.00  0.00    +0.000 C 
ATOM     20  F   UNL     1       5.706   3.197  12.810  0.00  0.00    +0.000 F 
ENDBRANCH  18  19
ENDBRANCH  15  17
ENDBRANCH   8  11
ENDBRANCH   5   7
BRANCH   1  21
ATOM     21  C   UNL     1      -1.287  11.093  19.425  0.00  0.00    +0.000 C 
BRANCH  21  22
ATOM     22  C   UNL     1      -0.806  12.518  19.325  0.00  0.00    +0.000 A 
ATOM     23  N   UNL     1       0.236  12.940  18.630  0.00  0.00    +0.000 NA
ATOM     24  N   UNL     1       0.323  14.304  18.757  0.00  0.00    +0.000 NA
ATOM     25  C   UNL     1      -0.658  14.690  19.535  0.00  0.00    +0.000 A 
ATOM     26  N   UNL     1      -1.391  13.610  19.920  0.00  0.00    +0.000 N 
ATOM     27  C   UNL     1      -2.549  13.647  20.772  0.00  0.00    +0.000 C 
ENDBRANCH  21  22
BRANCH  21  29
ATOM     28  C   UNL     1      -2.841   9.903  17.738  0.00  0.00    +0.000 C 
ATOM     29  C   UNL     1      -1.460  10.490  18.008  0.00  0.00    +0.000 C 
ENDBRANCH  21  29
ENDBRANCH   1  21
TORSDOF 7
ENDMDL
MODEL 8
REMARK VINA RESULT:      -7.6      7.229      8.264
REMARK  Name = 
REMARK  9 active torsions:
REMARK  status: ('A' for Active; 'I' for Inactive)
REMARK    1  A    between atoms: C_1  and  C_2
REMARK    2  A    between atoms: C_2  and  C_3
REMARK    3  A    between atoms: C_3  and  C_4
REMARK    4  A    between atoms: C_3  and  C_23
REMARK    5  A    between atoms: C_8  and  N_9
REMARK    6  A    between atoms: C_10  and  C_12
REMARK    7  A    between atoms: C_16  and  C_17
REMARK    8  A    between atoms: C_18  and  C_19
REMARK    9  A    between atoms: N_27  and  C_28
REMARK                            x       y       z     vdW  Elec       q    Type
REMARK                         _______ _______ _______ _____ _____    ______ ____
ROOT
ATOM      1  C   UNL     1      -0.140   9.973  20.142  0.00  0.00    +0.000 A 
ATOM      2  C   UNL     1      -0.284  10.178  21.524  0.00  0.00    +0.000 A 
ATOM      3  C   UNL     1       0.519   9.493  22.428  0.00  0.00    +0.000 A 
ATOM      4  C   UNL     1       1.435   8.550  21.968  0.00  0.00    +0.000 A 
ATOM      5  C   UNL     1       1.549   8.266  20.605  0.00  0.00    +0.000 A 
ATOM      6  C   UNL     1       0.808   9.028  19.692  0.00  0.00    +0.000 A 
ENDROOT
BRANCH   5   7
ATOM      7  N   UNL     1       2.341   7.200  20.122  0.00  0.00    +0.000 N 
ATOM      8  C   UNL     1       2.020   5.853  20.225  0.00  0.00    +0.000 C 
ATOM      9  O   UNL     1       1.049   5.372  20.802  0.00  0.00    +0.000 OA
ATOM     10  H   UNL     1       3.117   7.412  19.501  0.00  0.00    +0.000 HD
BRANCH   8  11
ATOM     11  C   UNL     1       2.943   4.926  19.500  0.00  0.00    +0.000 A 
ATOM     12  C   UNL     1       3.176   3.658  20.026  0.00  0.00    +0.000 A 
ATOM     13  C   UNL     1       4.024   2.805  19.334  0.00  0.00    +0.000 A 
ATOM     14  C   UNL     1       4.604   3.245  18.149  0.00  0.00    +0.000 A 
ATOM     15  C   UNL     1       4.313   4.528  17.686  0.00  0.00    +0.000 A 
ATOM     16  N   UNL     1       3.487   5.380  18.342  0.00  0.00    +0.000 NA
BRANCH  15  17
ATOM     17  C   UNL     1       4.906   5.004  16.430  0.00  0.00    +0.000 C 
ATOM     18  C   UNL     1       5.568   4.214  15.570  0.00  0.00    +0.000 C 
BRANCH  18  19
ATOM     19  C   UNL     1       6.187   4.677  14.295  0.00  0.00    +0.000 C 
ATOM     20  F   UNL     1       7.479   5.066  14.477  0.00  0.00    +0.000 F 
ENDBRANCH  18  19
ENDBRANCH  15  17
ENDBRANCH   8  11
ENDBRANCH   5   7
BRANCH   1  21
ATOM     21  C   UNL     1      -1.033  10.747  19.178  0.00  0.00    +0.000 C 
BRANCH  21  22
ATOM     22  C   UNL     1      -0.654  12.205  19.123  0.00  0.00    +0.000 A 
ATOM     23  N   UNL     1       0.394  12.713  18.498  0.00  0.00    +0.000 NA
ATOM     24  N   UNL     1       0.372  14.078  18.645  0.00  0.00    +0.000 NA
ATOM     25  C   UNL     1      -0.681  14.379  19.364  0.00  0.00    +0.000 A 
ATOM     26  N   UNL     1      -1.354  13.242  19.691  0.00  0.00    +0.000 N 
ATOM     27  C   UNL     1      -2.561  13.182  20.471  0.00  0.00    +0.000 C 
ENDBRANCH  21  22
BRANCH  21  29
ATOM     28  C   UNL     1      -2.301  10.476  16.943  0.00  0.00    +0.000 C 
ATOM     29  C   UNL     1      -1.049  10.148  17.748  0.00  0.00    +0.000 C 
ENDBRANCH  21  29
ENDBRANCH   1  21
TORSDOF 7
ENDMDL
MODEL 9
REMARK VINA RESULT:      -7.6      5.656      9.815
REMARK  Name = 
REMARK  9 active torsions:
REMARK  status: ('A' for Active; 'I' for Inactive)
REMARK    1  A    between atoms: C_1  and  C_2
REMARK    2  A    between atoms: C_2  and  C_3
REMARK    3  A    between atoms: C_3  and  C_4
REMARK    4  A    between atoms: C_3  and  C_23
REMARK    5  A    between atoms: C_8  and  N_9
REMARK    6  A    between atoms: C_10  and  C_12
REMARK    7  A    between atoms: C_16  and  C_17
REMARK    8  A    between atoms: C_18  and  C_19
REMARK    9  A    between atoms: N_27  and  C_28
REMARK                            x       y       z     vdW  Elec       q    Type
REMARK                         _______ _______ _______ _____ _____    ______ ____
ROOT
ATOM      1  C   UNL     1       3.628   5.656  17.981  0.00  0.00    +0.000 A 
ATOM      2  C   UNL     1       3.201   4.518  18.686  0.00  0.00    +0.000 A 
ATOM      3  C   UNL     1       2.253   4.627  19.697  0.00  0.00    +0.000 A 
ATOM      4  C   UNL     1       1.763   5.880  20.058  0.00  0.00    +0.000 A 
ATOM      5  C   UNL     1       2.224   7.040  19.430  0.00  0.00    +0.000 A 
ATOM      6  C   UNL     1       3.105   6.916  18.347  0.00  0.00    +0.000 A 
ENDROOT
BRANCH   5   7
ATOM      7  N   UNL     1       1.877   8.331  19.886  0.00  0.00    +0.000 N 
ATOM      8  C   UNL     1       1.269   9.315  19.117  0.00  0.00    +0.000 C 
ATOM      9  O   UNL     1       1.003   9.251  17.920  0.00  0.00    +0.000 OA
ATOM     10  H   UNL     1       1.903   8.520  20.884  0.00  0.00    +0.000 HD
BRANCH   8  11
ATOM     11  C   UNL     1       0.862  10.543  19.868  0.00  0.00    +0.000 A 
ATOM     12  C   UNL     1       0.062  10.408  20.999  0.00  0.00    +0.000 A 
ATOM     13  C   UNL     1      -0.295  11.556  21.692  0.00  0.00    +0.000 A 
ATOM     14  C   UNL     1       0.157  12.788  21.235  0.00  0.00    +0.000 A 
ATOM     15  C   UNL     1       0.962  12.837  20.096  0.00  0.00    +0.000 A 
ATOM     16  N   UNL     1       1.327  11.731  19.402  0.00  0.00    +0.000 NA
BRANCH  15  17
ATOM     17  C   UNL     1       1.460  14.129  19.608  0.00  0.00    +0.000 C 
ATOM     18  C   UNL     1       2.358  14.256  18.617  0.00  0.00    +0.000 C 
BRANCH  18  19
ATOM     19  C   UNL     1       2.887  15.556  18.111  0.00  0.00    +0.000 C 
ATOM     20  F   UNL     1       3.475  15.418  16.892  0.00  0.00    +0.000 F 
ENDBRANCH  18  19
ENDBRANCH  15  17
ENDBRANCH   8  11
ENDBRANCH   5   7
BRANCH   1  21
ATOM     21  C   UNL     1       4.664   5.500  16.873  0.00  0.00    +0.000 C 
BRANCH  21  22
ATOM     22  C   UNL     1       5.932   6.250  17.193  0.00  0.00    +0.000 A 
ATOM     23  N   UNL     1       6.450   7.239  16.486  0.00  0.00    +0.000 NA
ATOM     24  N   UNL     1       7.581   7.686  17.123  0.00  0.00    +0.000 NA
ATOM     25  C   UNL     1       7.741   6.957  18.200  0.00  0.00    +0.000 A 
ATOM     26  N   UNL     1       6.737   6.041  18.287  0.00  0.00    +0.000 N 
ATOM     27  C   UNL     1       6.580   5.072  19.339  0.00  0.00    +0.000 C 
ENDBRANCH  21  22
BRANCH  21  29
ATOM     28  C   UNL     1       5.979   3.830  15.404  0.00  0.00    +0.000 C 
ATOM     29  C   UNL     1       4.990   4.020  16.549  0.00  0.00    +0.000 C 
ENDBRANCH  21  29
ENDBRANCH   1  21
TORSDOF 7
ENDMDL
