MODEL 1
REMARK VINA RESULT:      -8.1      0.000      0.000
REMARK  Name = 
REMARK  6 active torsions:
REMARK  status: ('A' for Active; 'I' for Inactive)
REMARK    1  A    between atoms: C_1  and  S_2
REMARK    2  A    between atoms: S_2  and  C_4
REMARK    3  A    between atoms: C_7  and  C_8
REMARK    4  A    between atoms: N_10  and  C_11
REMARK    5  A    between atoms: C_11  and  C_12
REMARK    6  A    between atoms: C_11  and  C_18
REMARK                            x       y       z     vdW  Elec       q    Type
REMARK                         _______ _______ _______ _____ _____    ______ ____
ROOT
ATOM      1  C   UNL     1       6.268   5.728  17.608  0.00  0.00    +0.000 C 
ENDROOT
BRANCH   1   2
ATOM      2  C   UNL     1       6.290   5.188  16.202  0.00  0.00    +0.000 A 
ATOM      3  C   UNL     1       5.494   4.295  15.504  0.00  0.00    +0.000 A 
ATOM      4  C   UNL     1       6.027   4.207  14.191  0.00  0.00    +0.000 A 
ATOM      5  C   UNL     1       5.721   3.494  13.016  0.00  0.00    +0.000 A 
ATOM      6  C   UNL     1       6.527   3.686  11.881  0.00  0.00    +0.000 A 
ATOM      7  C   UNL     1       7.603   4.577  11.901  0.00  0.00    +0.000 A 
ATOM      8  C   UNL     1       7.915   5.303  13.054  0.00  0.00    +0.000 A 
ATOM      9  C   UNL     1       7.111   5.076  14.167  0.00  0.00    +0.000 A 
ATOM     10  O   UNL     1       7.277   5.665  15.379  0.00  0.00    +0.000 OA
ENDBRANCH   1   2
BRANCH   1  11
ATOM     11  C   UNL     1       4.873   5.750  18.225  0.00  0.00    +0.000 A 
ATOM     12  C   UNL     1       3.868   6.629  17.784  0.00  0.00    +0.000 A 
ATOM     13  C   UNL     1       2.597   6.615  18.364  0.00  0.00    +0.000 A 
ATOM     14  C   UNL     1       2.311   5.738  19.404  0.00  0.00    +0.000 A 
ATOM     15  C   UNL     1       3.297   4.873  19.872  0.00  0.00    +0.000 A 
ATOM     16  C   UNL     1       4.569   4.884  19.291  0.00  0.00    +0.000 A 
ENDBRANCH   1  11
BRANCH   1  19
ATOM     17  C   UNL     1       7.894   7.407  18.420  0.00  0.00    +0.000 C 
ATOM     18  O   UNL     1       8.422   6.615  19.197  0.00  0.00    +0.000 OA
ATOM     19  N   UNL     1       6.855   7.062  17.593  0.00  0.00    +0.000 N 
ATOM     20  H   UNL     1       6.351   7.763  17.071  0.00  0.00    +0.000 HD
BRANCH  17  24
ATOM     21  C   UNL     1       9.061  11.560  18.290  0.00  0.00    +0.000 A 
ATOM     22  C   UNL     1       9.627  10.713  19.253  0.00  0.00    +0.000 A 
ATOM     23  C   UNL     1       9.298   9.344  19.290  0.00  0.00    +0.000 A 
ATOM     24  C   UNL     1       8.388   8.815  18.366  0.00  0.00    +0.000 A 
ATOM     25  C   UNL     1       7.831   9.663  17.400  0.00  0.00    +0.000 A 
ATOM     26  C   UNL     1       8.168  11.020  17.359  0.00  0.00    +0.000 A 
BRANCH  21  28
ATOM     27  C   UNL     1      10.210  13.478  19.922  0.00  0.00    +0.000 C 
ATOM     28  S   UNL     1       9.336  13.352  18.345  0.00  0.00    +0.000 S 
ATOM     29  O   UNL     1      10.330  13.654  17.261  0.00  0.00    +0.000 OA
ENDBRANCH  21  28
ENDBRANCH  17  24
ENDBRANCH   1  19
TORSDOF 5
ENDMDL
MODEL 2
REMARK VINA RESULT:      -8.0      0.752      1.236
REMARK  Name = 
REMARK  6 active torsions:
REMARK  status: ('A' for Active; 'I' for Inactive)
REMARK    1  A    between atoms: C_1  and  S_2
REMARK    2  A    between atoms: S_2  and  C_4
REMARK    3  A    between atoms: C_7  and  C_8
REMARK    4  A    between atoms: N_10  and  C_11
REMARK    5  A    between atoms: C_11  and  C_12
REMARK    6  A    between atoms: C_11  and  C_18
REMARK                            x       y       z     vdW  Elec       q    Type
REMARK                         _______ _______ _______ _____ _____    ______ ____
ROOT
ATOM      1  C   UNL     1       6.345   5.705  17.531  0.00  0.00    +0.000 C 
ENDROOT
BRANCH   1   2
ATOM      2  C   UNL     1       6.350   5.163  16.126  0.00  0.00    +0.000 A 
ATOM      3  C   UNL     1       5.546   4.267  15.440  0.00  0.00    +0.000 A 
ATOM      4  C   UNL     1       6.063   4.178  14.119  0.00  0.00    +0.000 A 
ATOM      5  C   UNL     1       5.744   3.463  12.949  0.00  0.00    +0.000 A 
ATOM      6  C   UNL     1       6.535   3.653  11.805  0.00  0.00    +0.000 A 
ATOM      7  C   UNL     1       7.610   4.546  11.810  0.00  0.00    +0.000 A 
ATOM      8  C   UNL     1       7.935   5.274  12.957  0.00  0.00    +0.000 A 
ATOM      9  C   UNL     1       7.145   5.048  14.080  0.00  0.00    +0.000 A 
ATOM     10  O   UNL     1       7.325   5.640  15.289  0.00  0.00    +0.000 OA
ENDBRANCH   1   2
BRANCH   1  11
ATOM     11  C   UNL     1       4.963   5.693  18.178  0.00  0.00    +0.000 A 
ATOM     12  C   UNL     1       4.606   4.767  19.174  0.00  0.00    +0.000 A 
ATOM     13  C   UNL     1       3.335   4.791  19.754  0.00  0.00    +0.000 A 
ATOM     14  C   UNL     1       2.394   5.726  19.339  0.00  0.00    +0.000 A 
ATOM     15  C   UNL     1       2.718   6.638  18.339  0.00  0.00    +0.000 A 
ATOM     16  C   UNL     1       3.990   6.618  17.758  0.00  0.00    +0.000 A 
ENDBRANCH   1  11
BRANCH   1  19
ATOM     17  C   UNL     1       7.891   7.451  18.358  0.00  0.00    +0.000 C 
ATOM     18  O   UNL     1       8.407   6.696  19.178  0.00  0.00    +0.000 OA
ATOM     19  N   UNL     1       6.896   7.054  17.500  0.00  0.00    +0.000 N 
ATOM     20  H   UNL     1       6.396   7.727  16.938  0.00  0.00    +0.000 HD
BRANCH  17  24
ATOM     21  C   UNL     1       8.957  11.630  18.192  0.00  0.00    +0.000 A 
ATOM     22  C   UNL     1       9.625  10.781  19.086  0.00  0.00    +0.000 A 
ATOM     23  C   UNL     1       9.329   9.404  19.129  0.00  0.00    +0.000 A 
ATOM     24  C   UNL     1       8.349   8.870  18.283  0.00  0.00    +0.000 A 
ATOM     25  C   UNL     1       7.691   9.720  17.385  0.00  0.00    +0.000 A 
ATOM     26  C   UNL     1       7.996  11.084  17.336  0.00  0.00    +0.000 A 
BRANCH  21  28
ATOM     27  C   UNL     1       7.575  13.973  17.684  0.00  0.00    +0.000 C 
ATOM     28  S   UNL     1       9.201  13.426  18.251  0.00  0.00    +0.000 S 
ATOM     29  O   UNL     1       9.308  13.785  19.706  0.00  0.00    +0.000 OA
ENDBRANCH  21  28
ENDBRANCH  17  24
ENDBRANCH   1  19
TORSDOF 5
ENDMDL
MODEL 3
REMARK VINA RESULT:      -8.0      6.071      9.619
REMARK  Name = 
REMARK  6 active torsions:
REMARK  status: ('A' for Active; 'I' for Inactive)
REMARK    1  A    between atoms: C_1  and  S_2
REMARK    2  A    between atoms: S_2  and  C_4
REMARK    3  A    between atoms: C_7  and  C_8
REMARK    4  A    between atoms: N_10  and  C_11
REMARK    5  A    between atoms: C_11  and  C_12
REMARK    6  A    between atoms: C_11  and  C_18
REMARK                            x       y       z     vdW  Elec       q    Type
REMARK                         _______ _______ _______ _____ _____    ______ ____
ROOT
ATOM      1  C   UNL     1       0.480  10.843  19.885  0.00  0.00    +0.000 C 
ENDROOT
BRANCH   1   2
ATOM      2  C   UNL     1      -0.809  10.991  19.122  0.00  0.00    +0.000 A 
ATOM      3  C   UNL     1      -1.999  11.656  19.366  0.00  0.00    +0.000 A 
ATOM      4  C   UNL     1      -2.840  11.423  18.245  0.00  0.00    +0.000 A 
ATOM      5  C   UNL     1      -4.147  11.781  17.862  0.00  0.00    +0.000 A 
ATOM      6  C   UNL     1      -4.638  11.326  16.628  0.00  0.00    +0.000 A 
ATOM      7  C   UNL     1      -3.847  10.547  15.779  0.00  0.00    +0.000 A 
ATOM      8  C   UNL     1      -2.543  10.191  16.135  0.00  0.00    +0.000 A 
ATOM      9  C   UNL     1      -2.094  10.640  17.373  0.00  0.00    +0.000 A 
ATOM     10  O   UNL     1      -0.871  10.372  17.900  0.00  0.00    +0.000 OA
ENDBRANCH   1   2
BRANCH   1  11
ATOM     11  C   UNL     1       1.431  12.022  19.699  0.00  0.00    +0.000 A 
ATOM     12  C   UNL     1       1.732  12.918  20.739  0.00  0.00    +0.000 A 
ATOM     13  C   UNL     1       2.617  13.981  20.537  0.00  0.00    +0.000 A 
ATOM     14  C   UNL     1       3.202  14.177  19.291  0.00  0.00    +0.000 A 
ATOM     15  C   UNL     1       2.901  13.315  18.240  0.00  0.00    +0.000 A 
ATOM     16  C   UNL     1       2.018  12.250  18.441  0.00  0.00    +0.000 A 
ENDBRANCH   1  11
BRANCH   1  19
ATOM     17  C   UNL     1       1.240   8.532  20.339  0.00  0.00    +0.000 C 
ATOM     18  O   UNL     1       0.807   8.546  21.488  0.00  0.00    +0.000 OA
ATOM     19  N   UNL     1       1.110   9.593  19.478  0.00  0.00    +0.000 N 
ATOM     20  H   UNL     1       1.595   9.607  18.593  0.00  0.00    +0.000 HD
BRANCH  17  24
ATOM     21  C   UNL     1       3.520   5.164  18.896  0.00  0.00    +0.000 A 
ATOM     22  C   UNL     1       2.791   5.045  20.087  0.00  0.00    +0.000 A 
ATOM     23  C   UNL     1       2.002   6.113  20.558  0.00  0.00    +0.000 A 
ATOM     24  C   UNL     1       1.948   7.316  19.841  0.00  0.00    +0.000 A 
ATOM     25  C   UNL     1       2.671   7.427  18.647  0.00  0.00    +0.000 A 
ATOM     26  C   UNL     1       3.444   6.360  18.176  0.00  0.00    +0.000 A 
BRANCH  21  28
ATOM     27  C   UNL     1       4.814   4.269  16.619  0.00  0.00    +0.000 C 
ATOM     28  S   UNL     1       4.676   3.866  18.375  0.00  0.00    +0.000 S 
ATOM     29  O   UNL     1       5.993   4.201  19.013  0.00  0.00    +0.000 OA
ENDBRANCH  21  28
ENDBRANCH  17  24
ENDBRANCH   1  19
TORSDOF 5
ENDMDL
MODEL 4
REMARK VINA RESULT:      -8.0      0.649      1.441
REMARK  Name = 
REMARK  6 active torsions:
REMARK  status: ('A' for Active; 'I' for Inactive)
REMARK    1  A    between atoms: C_1  and  S_2
REMARK    2  A    between atoms: S_2  and  C_4
REMARK    3  A    between atoms: C_7  and  C_8
REMARK    4  A    between atoms: N_10  and  C_11
REMARK    5  A    between atoms: C_11  and  C_12
REMARK    6  A    between atoms: C_11  and  C_18
REMARK                            x       y       z     vdW  Elec       q    Type
REMARK                         _______ _______ _______ _____ _____    ______ ____
ROOT
ATOM      1  C   UNL     1       6.298   5.720  17.595  0.00  0.00    +0.000 C 
ENDROOT
BRANCH   1   2
ATOM      2  C   UNL     1       6.334   5.188  16.187  0.00  0.00    +0.000 A 
ATOM      3  C   UNL     1       5.564   4.275  15.485  0.00  0.00    +0.000 A 
ATOM      4  C   UNL     1       6.098   4.209  14.170  0.00  0.00    +0.000 A 
ATOM      5  C   UNL     1       5.812   3.493  12.992  0.00  0.00    +0.000 A 
ATOM      6  C   UNL     1       6.611   3.713  11.858  0.00  0.00    +0.000 A 
ATOM      7  C   UNL     1       7.659   4.637  11.881  0.00  0.00    +0.000 A 
ATOM      8  C   UNL     1       7.951   5.366  13.037  0.00  0.00    +0.000 A 
ATOM      9  C   UNL     1       7.155   5.110  14.150  0.00  0.00    +0.000 A 
ATOM     10  O   UNL     1       7.305   5.698  15.364  0.00  0.00    +0.000 OA
ENDBRANCH   1   2
BRANCH   1  11
ATOM     11  C   UNL     1       4.918   5.629  18.240  0.00  0.00    +0.000 A 
ATOM     12  C   UNL     1       4.607   4.673  19.223  0.00  0.00    +0.000 A 
ATOM     13  C   UNL     1       3.336   4.625  19.801  0.00  0.00    +0.000 A 
ATOM     14  C   UNL     1       2.349   5.517  19.397  0.00  0.00    +0.000 A 
ATOM     15  C   UNL     1       2.627   6.457  18.409  0.00  0.00    +0.000 A 
ATOM     16  C   UNL     1       3.899   6.509  17.831  0.00  0.00    +0.000 A 
ENDBRANCH   1  11
BRANCH   1  19
ATOM     17  C   UNL     1       7.835   7.509  18.343  0.00  0.00    +0.000 C 
ATOM     18  O   UNL     1       8.472   6.748  19.067  0.00  0.00    +0.000 OA
ATOM     19  N   UNL     1       6.776   7.097  17.574  0.00  0.00    +0.000 N 
ATOM     20  H   UNL     1       6.186   7.765  17.101  0.00  0.00    +0.000 HD
BRANCH  17  24
ATOM     21  C   UNL     1       9.184  11.603  18.139  0.00  0.00    +0.000 A 
ATOM     22  C   UNL     1       8.150  11.174  17.296  0.00  0.00    +0.000 A 
ATOM     23  C   UNL     1       7.659   9.856  17.373  0.00  0.00    +0.000 A 
ATOM     24  C   UNL     1       8.212   8.953  18.290  0.00  0.00    +0.000 A 
ATOM     25  C   UNL     1       9.240   9.388  19.136  0.00  0.00    +0.000 A 
ATOM     26  C   UNL     1       9.717  10.702  19.066  0.00  0.00    +0.000 A 
BRANCH  21  28
ATOM     27  C   UNL     1       8.482  14.280  18.127  0.00  0.00    +0.000 C 
ATOM     28  S   UNL     1       9.944  13.237  17.928  0.00  0.00    +0.000 S 
ATOM     29  O   UNL     1      10.811  13.453  19.135  0.00  0.00    +0.000 OA
ENDBRANCH  21  28
ENDBRANCH  17  24
ENDBRANCH   1  19
TORSDOF 5
ENDMDL
MODEL 5
REMARK VINA RESULT:      -8.0      4.837      6.817
REMARK  Name = 
REMARK  6 active torsions:
REMARK  status: ('A' for Active; 'I' for Inactive)
REMARK    1  A    between atoms: C_1  and  S_2
REMARK    2  A    between atoms: S_2  and  C_4
REMARK    3  A    between atoms: C_7  and  C_8
REMARK    4  A    between atoms: N_10  and  C_11
REMARK    5  A    between atoms: C_11  and  C_12
REMARK    6  A    between atoms: C_11  and  C_18
REMARK                            x       y       z     vdW  Elec       q    Type
REMARK                         _______ _______ _______ _____ _____    ______ ____
ROOT
ATOM      1  C   UNL     1       3.314   5.869  19.893  0.00  0.00    +0.000 C 
ENDROOT
BRANCH   1   2
ATOM      2  C   UNL     1       4.363   5.595  18.848  0.00  0.00    +0.000 A 
ATOM      3  C   UNL     1       5.667   5.130  18.895  0.00  0.00    +0.000 A 
ATOM      4  C   UNL     1       6.133   5.075  17.554  0.00  0.00    +0.000 A 
ATOM      5  C   UNL     1       7.333   4.719  16.909  0.00  0.00    +0.000 A 
ATOM      6  C   UNL     1       7.401   4.813  15.509  0.00  0.00    +0.000 A 
ATOM      7  C   UNL     1       6.299   5.232  14.759  0.00  0.00    +0.000 A 
ATOM      8  C   UNL     1       5.095   5.578  15.380  0.00  0.00    +0.000 A 
ATOM      9  C   UNL     1       5.067   5.494  16.768  0.00  0.00    +0.000 A 
ATOM     10  O   UNL     1       3.999   5.814  17.544  0.00  0.00    +0.000 OA
ENDBRANCH   1   2
BRANCH   1  11
ATOM     11  C   UNL     1       2.451   4.652  20.216  0.00  0.00    +0.000 A 
ATOM     12  C   UNL     1       2.477   4.023  21.473  0.00  0.00    +0.000 A 
ATOM     13  C   UNL     1       1.665   2.917  21.739  0.00  0.00    +0.000 A 
ATOM     14  C   UNL     1       0.828   2.410  20.751  0.00  0.00    +0.000 A 
ATOM     15  C   UNL     1       0.803   3.003  19.492  0.00  0.00    +0.000 A 
ATOM     16  C   UNL     1       1.613   4.111  19.225  0.00  0.00    +0.000 A 
ENDBRANCH   1  11
BRANCH   1  19
ATOM     17  C   UNL     1       1.840   7.812  20.313  0.00  0.00    +0.000 C 
ATOM     18  O   UNL     1       1.926   7.695  21.533  0.00  0.00    +0.000 OA
ATOM     19  N   UNL     1       2.495   6.984  19.436  0.00  0.00    +0.000 N 
ATOM     20  H   UNL     1       2.296   7.014  18.447  0.00  0.00    +0.000 HD
BRANCH  17  24
ATOM     21  C   UNL     1      -0.758  10.745  18.505  0.00  0.00    +0.000 A 
ATOM     22  C   UNL     1      -0.751  10.594  19.898  0.00  0.00    +0.000 A 
ATOM     23  C   UNL     1       0.120   9.676  20.519  0.00  0.00    +0.000 A 
ATOM     24  C   UNL     1       0.983   8.892  19.742  0.00  0.00    +0.000 A 
ATOM     25  C   UNL     1       0.979   9.052  18.351  0.00  0.00    +0.000 A 
ATOM     26  C   UNL     1       0.121   9.973  17.739  0.00  0.00    +0.000 A 
BRANCH  21  28
ATOM     27  C   UNL     1      -2.481  10.685  16.340  0.00  0.00    +0.000 C 
ATOM     28  S   UNL     1      -1.994  11.789  17.685  0.00  0.00    +0.000 S 
ATOM     29  O   UNL     1      -3.157  11.878  18.630  0.00  0.00    +0.000 OA
ENDBRANCH  21  28
ENDBRANCH  17  24
ENDBRANCH   1  19
TORSDOF 5
ENDMDL
MODEL 6
REMARK VINA RESULT:      -8.0      6.085      9.735
REMARK  Name = 
REMARK  6 active torsions:
REMARK  status: ('A' for Active; 'I' for Inactive)
REMARK    1  A    between atoms: C_1  and  S_2
REMARK    2  A    between atoms: S_2  and  C_4
REMARK    3  A    between atoms: C_7  and  C_8
REMARK    4  A    between atoms: N_10  and  C_11
REMARK    5  A    between atoms: C_11  and  C_12
REMARK    6  A    between atoms: C_11  and  C_18
REMARK                            x       y       z     vdW  Elec       q    Type
REMARK                         _______ _______ _______ _____ _____    ______ ____
ROOT
ATOM      1  C   UNL     1       0.554  10.778  19.772  0.00  0.00    +0.000 C 
ENDROOT
BRANCH   1   2
ATOM      2  C   UNL     1      -0.737  10.905  19.006  0.00  0.00    +0.000 A 
ATOM      3  C   UNL     1      -1.938  11.552  19.249  0.00  0.00    +0.000 A 
ATOM      4  C   UNL     1      -2.773  11.304  18.127  0.00  0.00    +0.000 A 
ATOM      5  C   UNL     1      -4.085  11.642  17.743  0.00  0.00    +0.000 A 
ATOM      6  C   UNL     1      -4.567  11.178  16.508  0.00  0.00    +0.000 A 
ATOM      7  C   UNL     1      -3.763  10.411  15.660  0.00  0.00    +0.000 A 
ATOM      8  C   UNL     1      -2.454  10.076  16.018  0.00  0.00    +0.000 A 
ATOM      9  C   UNL     1      -2.013  10.533  17.256  0.00  0.00    +0.000 A 
ATOM     10  O   UNL     1      -0.787  10.285  17.784  0.00  0.00    +0.000 OA
ENDBRANCH   1   2
BRANCH   1  11
ATOM     11  C   UNL     1       1.469  11.990  19.618  0.00  0.00    +0.000 A 
ATOM     12  C   UNL     1       2.133  12.284  18.415  0.00  0.00    +0.000 A 
ATOM     13  C   UNL     1       2.955  13.409  18.306  0.00  0.00    +0.000 A 
ATOM     14  C   UNL     1       3.142  14.248  19.398  0.00  0.00    +0.000 A 
ATOM     15  C   UNL     1       2.512  13.963  20.606  0.00  0.00    +0.000 A 
ATOM     16  C   UNL     1       1.687  12.840  20.717  0.00  0.00    +0.000 A 
ENDBRANCH   1  11
BRANCH   1  19
ATOM     17  C   UNL     1       1.423   8.498  20.184  0.00  0.00    +0.000 C 
ATOM     18  O   UNL     1       1.024   8.486  21.346  0.00  0.00    +0.000 OA
ATOM     19  N   UNL     1       1.223   9.559  19.336  0.00  0.00    +0.000 N 
ATOM     20  H   UNL     1       1.681   9.599  18.438  0.00  0.00    +0.000 HD
BRANCH  17  24
ATOM     21  C   UNL     1       3.338   4.941  18.665  0.00  0.00    +0.000 A 
ATOM     22  C   UNL     1       3.412   6.133  17.931  0.00  0.00    +0.000 A 
ATOM     23  C   UNL     1       2.835   7.320  18.424  0.00  0.00    +0.000 A 
ATOM     24  C   UNL     1       2.167   7.316  19.656  0.00  0.00    +0.000 A 
ATOM     25  C   UNL     1       2.103   6.125  20.390  0.00  0.00    +0.000 A 
ATOM     26  C   UNL     1       2.687   4.951  19.903  0.00  0.00    +0.000 A 
BRANCH  21  28
ATOM     27  C   UNL     1       2.330   2.551  17.699  0.00  0.00    +0.000 C 
ATOM     28  S   UNL     1       3.918   3.373  17.961  0.00  0.00    +0.000 S 
ATOM     29  O   UNL     1       4.475   3.705  16.607  0.00  0.00    +0.000 OA
ENDBRANCH  21  28
ENDBRANCH  17  24
ENDBRANCH   1  19
TORSDOF 5
ENDMDL
MODEL 7
REMARK VINA RESULT:      -7.9      6.176      9.773
REMARK  Name = 
REMARK  6 active torsions:
REMARK  status: ('A' for Active; 'I' for Inactive)
REMARK    1  A    between atoms: C_1  and  S_2
REMARK    2  A    between atoms: S_2  and  C_4
REMARK    3  A    between atoms: C_7  and  C_8
REMARK    4  A    between atoms: N_10  and  C_11
REMARK    5  A    between atoms: C_11  and  C_12
REMARK    6  A    between atoms: C_11  and  C_18
REMARK                            x       y       z     vdW  Elec       q    Type
REMARK                         _______ _______ _______ _____ _____    ______ ____
ROOT
ATOM      1  C   UNL     1       0.516  10.948  19.921  0.00  0.00    +0.000 C 
ENDROOT
BRANCH   1   2
ATOM      2  C   UNL     1      -0.758  11.036  19.123  0.00  0.00    +0.000 A 
ATOM      3  C   UNL     1      -1.960  11.701  19.303  0.00  0.00    +0.000 A 
ATOM      4  C   UNL     1      -2.774  11.392  18.180  0.00  0.00    +0.000 A 
ATOM      5  C   UNL     1      -4.076  11.712  17.751  0.00  0.00    +0.000 A 
ATOM      6  C   UNL     1      -4.536  11.179  16.535  0.00  0.00    +0.000 A 
ATOM      7  C   UNL     1      -3.719  10.360  15.751  0.00  0.00    +0.000 A 
ATOM      8  C   UNL     1      -2.420  10.040  16.155  0.00  0.00    +0.000 A 
ATOM      9  C   UNL     1      -2.002  10.567  17.372  0.00  0.00    +0.000 A 
ATOM     10  O   UNL     1      -0.788  10.345  17.939  0.00  0.00    +0.000 OA
ENDBRANCH   1   2
BRANCH   1  11
ATOM     11  C   UNL     1       1.430  12.156  19.734  0.00  0.00    +0.000 A 
ATOM     12  C   UNL     1       1.655  13.096  20.755  0.00  0.00    +0.000 A 
ATOM     13  C   UNL     1       2.507  14.185  20.554  0.00  0.00    +0.000 A 
ATOM     14  C   UNL     1       3.135  14.364  19.327  0.00  0.00    +0.000 A 
ATOM     15  C   UNL     1       2.910  13.459  18.294  0.00  0.00    +0.000 A 
ATOM     16  C   UNL     1       2.059  12.367  18.494  0.00  0.00    +0.000 A 
ENDBRANCH   1  11
BRANCH   1  19
ATOM     17  C   UNL     1       1.179   8.605  20.363  0.00  0.00    +0.000 C 
ATOM     18  O   UNL     1       0.561   8.563  21.424  0.00  0.00    +0.000 OA
ATOM     19  N   UNL     1       1.199   9.714  19.554  0.00  0.00    +0.000 N 
ATOM     20  H   UNL     1       1.825   9.769  18.764  0.00  0.00    +0.000 HD
BRANCH  17  24
ATOM     21  C   UNL     1       3.187   5.001  19.098  0.00  0.00    +0.000 A 
ATOM     22  C   UNL     1       3.264   6.151  18.300  0.00  0.00    +0.000 A 
ATOM     23  C   UNL     1       2.656   7.354  18.711  0.00  0.00    +0.000 A 
ATOM     24  C   UNL     1       1.955   7.409  19.922  0.00  0.00    +0.000 A 
ATOM     25  C   UNL     1       1.888   6.259  20.720  0.00  0.00    +0.000 A 
ATOM     26  C   UNL     1       2.503   5.070  20.315  0.00  0.00    +0.000 A 
BRANCH  21  28
ATOM     27  C   UNL     1       4.542   3.934  16.933  0.00  0.00    +0.000 C 
ATOM     28  S   UNL     1       3.809   3.406  18.498  0.00  0.00    +0.000 S 
ATOM     29  O   UNL     1       4.939   3.029  19.413  0.00  0.00    +0.000 OA
ENDBRANCH  21  28
ENDBRANCH  17  24
ENDBRANCH   1  19
TORSDOF 5
ENDMDL
MODEL 8
REMARK VINA RESULT:      -7.9      6.104      9.717
REMARK  Name = 
REMARK  6 active torsions:
REMARK  status: ('A' for Active; 'I' for Inactive)
REMARK    1  A    between atoms: C_1  and  S_2
REMARK    2  A    between atoms: S_2  and  C_4
REMARK    3  A    between atoms: C_7  and  C_8
REMARK    4  A    between atoms: N_10  and  C_11
REMARK    5  A    between atoms: C_11  and  C_12
REMARK    6  A    between atoms: C_11  and  C_18
REMARK                            x       y       z     vdW  Elec       q    Type
REMARK                         _______ _______ _______ _____ _____    ______ ____
ROOT
ATOM      1  C   UNL     1       0.476  10.843  19.860  0.00  0.00    +0.000 C 
ENDROOT
BRANCH   1   2
ATOM      2  C   UNL     1      -0.813  10.987  19.094  0.00  0.00    +0.000 A 
ATOM      3  C   UNL     1      -2.011  11.636  19.343  0.00  0.00    +0.000 A 
ATOM      4  C   UNL     1      -2.846  11.408  18.216  0.00  0.00    +0.000 A 
ATOM      5  C   UNL     1      -4.155  11.757  17.835  0.00  0.00    +0.000 A 
ATOM      6  C   UNL     1      -4.637  11.312  16.593  0.00  0.00    +0.000 A 
ATOM      7  C   UNL     1      -3.836  10.553  15.736  0.00  0.00    +0.000 A 
ATOM      8  C   UNL     1      -2.529  10.206  16.092  0.00  0.00    +0.000 A 
ATOM      9  C   UNL     1      -2.088  10.645  17.337  0.00  0.00    +0.000 A 
ATOM     10  O   UNL     1      -0.864  10.383  17.864  0.00  0.00    +0.000 OA
ENDBRANCH   1   2
BRANCH   1  11
ATOM     11  C   UNL     1       1.434  12.014  19.655  0.00  0.00    +0.000 A 
ATOM     12  C   UNL     1       2.065  12.263  18.424  0.00  0.00    +0.000 A 
ATOM     13  C   UNL     1       2.929  13.351  18.268  0.00  0.00    +0.000 A 
ATOM     14  C   UNL     1       3.190  14.197  19.339  0.00  0.00    +0.000 A 
ATOM     15  C   UNL     1       2.593  13.956  20.574  0.00  0.00    +0.000 A 
ATOM     16  C   UNL     1       1.727  12.870  20.732  0.00  0.00    +0.000 A 
ENDBRANCH   1  11
BRANCH   1  19
ATOM     17  C   UNL     1       1.256   8.549  20.359  0.00  0.00    +0.000 C 
ATOM     18  O   UNL     1       0.855   8.595  21.519  0.00  0.00    +0.000 OA
ATOM     19  N   UNL     1       1.098   9.584  19.472  0.00  0.00    +0.000 N 
ATOM     20  H   UNL     1       1.558   9.573  18.574  0.00  0.00    +0.000 HD
BRANCH  17  24
ATOM     21  C   UNL     1       3.509   5.142  18.965  0.00  0.00    +0.000 A 
ATOM     22  C   UNL     1       2.761   5.039  20.146  0.00  0.00    +0.000 A 
ATOM     23  C   UNL     1       1.980   6.120  20.600  0.00  0.00    +0.000 A 
ATOM     24  C   UNL     1       1.954   7.320  19.877  0.00  0.00    +0.000 A 
ATOM     25  C   UNL     1       2.697   7.416  18.693  0.00  0.00    +0.000 A 
ATOM     26  C   UNL     1       3.462   6.336  18.239  0.00  0.00    +0.000 A 
BRANCH  21  28
ATOM     27  C   UNL     1       4.269   2.593  19.731  0.00  0.00    +0.000 C 
ATOM     28  S   UNL     1       4.654   3.826  18.467  0.00  0.00    +0.000 S 
ATOM     29  O   UNL     1       4.139   3.298  17.159  0.00  0.00    +0.000 OA
ENDBRANCH  21  28
ENDBRANCH  17  24
ENDBRANCH   1  19
TORSDOF 5
ENDMDL
MODEL 9
REMARK VINA RESULT:      -7.9      4.886      7.027
REMARK  Name = 
REMARK  6 active torsions:
REMARK  status: ('A' for Active; 'I' for Inactive)
REMARK    1  A    between atoms: C_1  and  S_2
REMARK    2  A    between atoms: S_2  and  C_4
REMARK    3  A    between atoms: C_7  and  C_8
REMARK    4  A    between atoms: N_10  and  C_11
REMARK    5  A    between atoms: C_11  and  C_12
REMARK    6  A    between atoms: C_11  and  C_18
REMARK                            x       y       z     vdW  Elec       q    Type
REMARK                         _______ _______ _______ _____ _____    ______ ____
ROOT
ATOM      1  C   UNL     1       3.127   6.182  19.674  0.00  0.00    +0.000 C 
ENDROOT
BRANCH   1   2
ATOM      2  C   UNL     1       3.988   5.952  18.461  0.00  0.00    +0.000 A 
ATOM      3  C   UNL     1       3.892   6.324  17.130  0.00  0.00    +0.000 A 
ATOM      4  C   UNL     1       5.040   5.807  16.473  0.00  0.00    +0.000 A 
ATOM      5  C   UNL     1       5.544   5.805  15.158  0.00  0.00    +0.000 A 
ATOM      6  C   UNL     1       6.760   5.150  14.902  0.00  0.00    +0.000 A 
ATOM      7  C   UNL     1       7.473   4.524  15.928  0.00  0.00    +0.000 A 
ATOM      8  C   UNL     1       6.995   4.525  17.242  0.00  0.00    +0.000 A 
ATOM      9  C   UNL     1       5.779   5.165  17.459  0.00  0.00    +0.000 A 
ATOM     10  O   UNL     1       5.146   5.244  18.658  0.00  0.00    +0.000 OA
ENDBRANCH   1   2
BRANCH   1  11
ATOM     11  C   UNL     1       2.376   4.933  20.127  0.00  0.00    +0.000 A 
ATOM     12  C   UNL     1       2.531   4.386  21.413  0.00  0.00    +0.000 A 
ATOM     13  C   UNL     1       1.818   3.247  21.799  0.00  0.00    +0.000 A 
ATOM     14  C   UNL     1       0.954   2.625  20.905  0.00  0.00    +0.000 A 
ATOM     15  C   UNL     1       0.802   3.137  19.619  0.00  0.00    +0.000 A 
ATOM     16  C   UNL     1       1.512   4.277  19.231  0.00  0.00    +0.000 A 
ENDBRANCH   1  11
BRANCH   1  19
ATOM     17  C   UNL     1       1.708   8.089  20.360  0.00  0.00    +0.000 C 
ATOM     18  O   UNL     1       2.033   7.991  21.540  0.00  0.00    +0.000 OA
ATOM     19  N   UNL     1       2.203   7.269  19.377  0.00  0.00    +0.000 N 
ATOM     20  H   UNL     1       1.814   7.281  18.446  0.00  0.00    +0.000 HD
BRANCH  17  24
ATOM     21  C   UNL     1      -1.262  10.934  19.051  0.00  0.00    +0.000 A 
ATOM     22  C   UNL     1      -1.067  10.721  20.423  0.00  0.00    +0.000 A 
ATOM     23  C   UNL     1      -0.074   9.832  20.879  0.00  0.00    +0.000 A 
ATOM     24  C   UNL     1       0.725   9.139  19.960  0.00  0.00    +0.000 A 
ATOM     25  C   UNL     1       0.533   9.362  18.590  0.00  0.00    +0.000 A 
ATOM     26  C   UNL     1      -0.447  10.255  18.141  0.00  0.00    +0.000 A 
BRANCH  21  28
ATOM     27  C   UNL     1      -3.636  10.645  17.658  0.00  0.00    +0.000 C 
ATOM     28  S   UNL     1      -2.650  11.936  18.450  0.00  0.00    +0.000 S 
ATOM     29  O   UNL     1      -3.401  12.382  19.671  0.00  0.00    +0.000 OA
ENDBRANCH  21  28
ENDBRANCH  17  24
ENDBRANCH   1  19
TORSDOF 5
ENDMDL
