MODEL 1
REMARK VINA RESULT:      -9.4      0.000      0.000
REMARK  Name = 
REMARK  6 active torsions:
REMARK  status: ('A' for Active; 'I' for Inactive)
REMARK    1  A    between atoms: C_1  and  N_2
REMARK    2  A    between atoms: N_2  and  C_3
REMARK    3  A    between atoms: N_2  and  S_15
REMARK    4  A    between atoms: C_3  and  C_4
REMARK    5  A    between atoms: N_6  and  C_7
REMARK    6  A    between atoms: S_15  and  C_18
REMARK                            x       y       z     vdW  Elec       q    Type
REMARK                         _______ _______ _______ _____ _____    ______ ____
ROOT
ATOM      1  C   UNL     1       5.589   6.987  17.443  0.00  0.00    +0.000 C 
ATOM      2  N   UNL     1       6.991   6.486  17.352  0.00  0.00    +0.000 NA
ENDROOT
BRANCH   2   3
ATOM      3  S   UNL     1       7.094   4.764  17.427  0.00  0.00    +0.000 S 
ATOM      4  O   UNL     1       7.449   4.288  16.106  0.00  0.00    +0.000 OA
ATOM      5  O   UNL     1       7.894   4.427  18.585  0.00  0.00    +0.000 OA
BRANCH   3   6
ATOM      6  C   UNL     1       5.419   4.265  17.723  0.00  0.00    +0.000 A 
ATOM      7  C   UNL     1       4.583   3.918  16.661  0.00  0.00    +0.000 A 
ATOM      8  C   UNL     1       3.251   3.584  16.921  0.00  0.00    +0.000 A 
ATOM      9  C   UNL     1       2.748   3.598  18.235  0.00  0.00    +0.000 A 
ATOM     10  C   UNL     1       1.412   3.265  18.512  0.00  0.00    +0.000 A 
ATOM     11  C   UNL     1       0.925   3.290  19.821  0.00  0.00    +0.000 A 
ATOM     12  C   UNL     1       1.767   3.655  20.869  0.00  0.00    +0.000 A 
ATOM     13  C   UNL     1       3.096   3.990  20.613  0.00  0.00    +0.000 A 
ATOM     14  C   UNL     1       3.603   3.963  19.303  0.00  0.00    +0.000 A 
ATOM     15  C   UNL     1       4.936   4.298  19.037  0.00  0.00    +0.000 A 
ENDBRANCH   3   6
ENDBRANCH   2   3
BRANCH   2  16
ATOM     16  C   UNL     1       7.866   7.105  18.399  0.00  0.00    +0.000 C 
BRANCH  16  17
ATOM     17  C   UNL     1       8.196   8.567  18.149  0.00  0.00    +0.000 C 
ATOM     18  O   UNL     1       7.729   9.149  17.173  0.00  0.00    +0.000 OA
ATOM     19  N   UNL     1       9.039   9.130  19.094  0.00  0.00    +0.000 N 
ATOM     20  H   UNL     1       9.503   8.488  19.734  0.00  0.00    +0.000 HD
BRANCH  19  21
ATOM     21  C   UNL     1       9.467  10.479  19.130  0.00  0.00    +0.000 A 
ATOM     22  C   UNL     1       9.878  11.189  17.999  0.00  0.00    +0.000 A 
ATOM     23  C   UNL     1      10.325  12.503  18.122  0.00  0.00    +0.000 A 
ATOM     24  F   UNL     1      10.722  13.168  17.028  0.00  0.00    +0.000 F 
ATOM     25  C   UNL     1      10.366  13.142  19.357  0.00  0.00    +0.000 A 
ATOM     26  C   UNL     1       9.933  12.460  20.490  0.00  0.00    +0.000 A 
ATOM     27  C   UNL     1       9.480  11.143  20.368  0.00  0.00    +0.000 A 
ATOM     28  F   UNL     1       9.070  10.496  21.471  0.00  0.00    +0.000 F 
ENDBRANCH  19  21
ENDBRANCH  16  17
ENDBRANCH   2  16
TORSDOF 5
ENDMDL
MODEL 2
REMARK VINA RESULT:      -9.2      3.933      6.334
REMARK  Name = 
REMARK  6 active torsions:
REMARK  status: ('A' for Active; 'I' for Inactive)
REMARK    1  A    between atoms: C_1  and  N_2
REMARK    2  A    between atoms: N_2  and  C_3
REMARK    3  A    between atoms: N_2  and  S_15
REMARK    4  A    between atoms: C_3  and  C_4
REMARK    5  A    between atoms: N_6  and  C_7
REMARK    6  A    between atoms: S_15  and  C_18
REMARK                            x       y       z     vdW  Elec       q    Type
REMARK                         _______ _______ _______ _____ _____    ______ ____
ROOT
ATOM      1  C   UNL     1       7.591   7.158  17.072  0.00  0.00    +0.000 C 
ATOM      2  N   UNL     1       6.502   6.655  17.958  0.00  0.00    +0.000 NA
ENDROOT
BRANCH   2   3
ATOM      3  S   UNL     1       6.892   5.152  18.714  0.00  0.00    +0.000 S 
ATOM      4  O   UNL     1       7.739   4.410  17.803  0.00  0.00    +0.000 OA
ATOM      5  O   UNL     1       7.319   5.443  20.065  0.00  0.00    +0.000 OA
BRANCH   3   6
ATOM      6  C   UNL     1       5.335   4.307  18.774  0.00  0.00    +0.000 A 
ATOM      7  C   UNL     1       5.083   3.221  17.936  0.00  0.00    +0.000 A 
ATOM      8  C   UNL     1       3.826   2.611  17.967  0.00  0.00    +0.000 A 
ATOM      9  C   UNL     1       2.818   3.082  18.828  0.00  0.00    +0.000 A 
ATOM     10  C   UNL     1       1.550   2.479  18.870  0.00  0.00    +0.000 A 
ATOM     11  C   UNL     1       0.556   2.963  19.725  0.00  0.00    +0.000 A 
ATOM     12  C   UNL     1       0.816   4.058  20.544  0.00  0.00    +0.000 A 
ATOM     13  C   UNL     1       2.070   4.670  20.514  0.00  0.00    +0.000 A 
ATOM     14  C   UNL     1       3.081   4.192  19.665  0.00  0.00    +0.000 A 
ATOM     15  C   UNL     1       4.342   4.801  19.630  0.00  0.00    +0.000 A 
ENDBRANCH   3   6
ENDBRANCH   2   3
BRANCH   2  16
ATOM     16  C   UNL     1       5.201   6.545  17.223  0.00  0.00    +0.000 C 
BRANCH  16  17
ATOM     17  C   UNL     1       5.348   6.283  15.733  0.00  0.00    +0.000 C 
ATOM     18  O   UNL     1       5.085   7.166  14.921  0.00  0.00    +0.000 OA
ATOM     19  N   UNL     1       5.784   5.005  15.421  0.00  0.00    +0.000 N 
ATOM     20  H   UNL     1       5.776   4.321  16.175  0.00  0.00    +0.000 HD
BRANCH  19  21
ATOM     21  C   UNL     1       6.051   4.511  14.121  0.00  0.00    +0.000 A 
ATOM     22  C   UNL     1       5.167   3.701  13.406  0.00  0.00    +0.000 A 
ATOM     23  C   UNL     1       5.519   3.220  12.146  0.00  0.00    +0.000 A 
ATOM     24  F   UNL     1       4.662   2.438  11.477  0.00  0.00    +0.000 F 
ATOM     25  C   UNL     1       6.744   3.537  11.567  0.00  0.00    +0.000 A 
ATOM     26  C   UNL     1       7.626   4.367  12.253  0.00  0.00    +0.000 A 
ATOM     27  C   UNL     1       7.271   4.854  13.514  0.00  0.00    +0.000 A 
ATOM     28  F   UNL     1       8.134   5.650  14.165  0.00  0.00    +0.000 F 
ENDBRANCH  19  21
ENDBRANCH  16  17
ENDBRANCH   2  16
TORSDOF 5
ENDMDL
MODEL 3
REMARK VINA RESULT:      -9.1      1.383      2.374
REMARK  Name = 
REMARK  6 active torsions:
REMARK  status: ('A' for Active; 'I' for Inactive)
REMARK    1  A    between atoms: C_1  and  N_2
REMARK    2  A    between atoms: N_2  and  C_3
REMARK    3  A    between atoms: N_2  and  S_15
REMARK    4  A    between atoms: C_3  and  C_4
REMARK    5  A    between atoms: N_6  and  C_7
REMARK    6  A    between atoms: S_15  and  C_18
REMARK                            x       y       z     vdW  Elec       q    Type
REMARK                         _______ _______ _______ _____ _____    ______ ____
ROOT
ATOM      1  C   UNL     1       7.100   5.706  19.274  0.00  0.00    +0.000 C 
ATOM      2  N   UNL     1       6.877   6.684  18.171  0.00  0.00    +0.000 NA
ENDROOT
BRANCH   2   3
ATOM      3  S   UNL     1       6.109   5.978  16.794  0.00  0.00    +0.000 S 
ATOM      4  O   UNL     1       5.792   7.049  15.872  0.00  0.00    +0.000 OA
ATOM      5  O   UNL     1       6.911   4.847  16.382  0.00  0.00    +0.000 OA
BRANCH   3   6
ATOM      6  C   UNL     1       4.571   5.383  17.443  0.00  0.00    +0.000 A 
ATOM      7  C   UNL     1       3.635   6.269  17.979  0.00  0.00    +0.000 A 
ATOM      8  C   UNL     1       2.456   5.764  18.534  0.00  0.00    +0.000 A 
ATOM      9  C   UNL     1       2.207   4.380  18.561  0.00  0.00    +0.000 A 
ATOM     10  C   UNL     1       1.027   3.858  19.115  0.00  0.00    +0.000 A 
ATOM     11  C   UNL     1       0.797   2.481  19.141  0.00  0.00    +0.000 A 
ATOM     12  C   UNL     1       1.746   1.607  18.618  0.00  0.00    +0.000 A 
ATOM     13  C   UNL     1       2.925   2.108  18.064  0.00  0.00    +0.000 A 
ATOM     14  C   UNL     1       3.168   3.490  18.024  0.00  0.00    +0.000 A 
ATOM     15  C   UNL     1       4.349   4.001  17.470  0.00  0.00    +0.000 A 
ENDBRANCH   3   6
ENDBRANCH   2   3
BRANCH   2  16
ATOM     16  C   UNL     1       8.152   7.358  17.766  0.00  0.00    +0.000 C 
BRANCH  16  17
ATOM     17  C   UNL     1       8.213   8.836  18.115  0.00  0.00    +0.000 C 
ATOM     18  O   UNL     1       7.413   9.623  17.614  0.00  0.00    +0.000 OA
ATOM     19  N   UNL     1       9.219   9.169  19.007  0.00  0.00    +0.000 N 
ATOM     20  H   UNL     1       9.925   8.458  19.187  0.00  0.00    +0.000 HD
BRANCH  19  21
ATOM     21  C   UNL     1       9.469  10.459  19.535  0.00  0.00    +0.000 A 
ATOM     22  C   UNL     1       9.157  10.831  20.845  0.00  0.00    +0.000 A 
ATOM     23  C   UNL     1       9.396  12.133  21.279  0.00  0.00    +0.000 A 
ATOM     24  F   UNL     1       9.084  12.475  22.536  0.00  0.00    +0.000 F 
ATOM     25  C   UNL     1       9.954  13.088  20.434  0.00  0.00    +0.000 A 
ATOM     26  C   UNL     1      10.299  12.726  19.134  0.00  0.00    +0.000 A 
ATOM     27  C   UNL     1      10.064  11.419  18.699  0.00  0.00    +0.000 A 
ATOM     28  F   UNL     1      10.397  11.088  17.442  0.00  0.00    +0.000 F 
ENDBRANCH  19  21
ENDBRANCH  16  17
ENDBRANCH   2  16
TORSDOF 5
ENDMDL
MODEL 4
REMARK VINA RESULT:      -9.1      4.554      6.856
REMARK  Name = 
REMARK  6 active torsions:
REMARK  status: ('A' for Active; 'I' for Inactive)
REMARK    1  A    between atoms: C_1  and  N_2
REMARK    2  A    between atoms: N_2  and  C_3
REMARK    3  A    between atoms: N_2  and  S_15
REMARK    4  A    between atoms: C_3  and  C_4
REMARK    5  A    between atoms: N_6  and  C_7
REMARK    6  A    between atoms: S_15  and  C_18
REMARK                            x       y       z     vdW  Elec       q    Type
REMARK                         _______ _______ _______ _____ _____    ______ ____
ROOT
ATOM      1  C   UNL     1       1.898   1.969  21.181  0.00  0.00    +0.000 C 
ATOM      2  N   UNL     1       2.467   2.918  20.182  0.00  0.00    +0.000 NA
ENDROOT
BRANCH   2   3
ATOM      3  S   UNL     1       3.910   2.326  19.440  0.00  0.00    +0.000 S 
ATOM      4  O   UNL     1       4.816   1.930  20.498  0.00  0.00    +0.000 OA
ATOM      5  O   UNL     1       3.515   1.396  18.404  0.00  0.00    +0.000 OA
BRANCH   3   6
ATOM      6  C   UNL     1       4.603   3.770  18.680  0.00  0.00    +0.000 A 
ATOM      7  C   UNL     1       4.032   4.310  17.527  0.00  0.00    +0.000 A 
ATOM      8  C   UNL     1       4.634   5.415  16.920  0.00  0.00    +0.000 A 
ATOM      9  C   UNL     1       5.805   5.982  17.454  0.00  0.00    +0.000 A 
ATOM     10  C   UNL     1       6.421   7.093  16.855  0.00  0.00    +0.000 A 
ATOM     11  C   UNL     1       7.587   7.641  17.393  0.00  0.00    +0.000 A 
ATOM     12  C   UNL     1       8.155   7.082  18.535  0.00  0.00    +0.000 A 
ATOM     13  C   UNL     1       7.558   5.978  19.143  0.00  0.00    +0.000 A 
ATOM     14  C   UNL     1       6.381   5.419  18.618  0.00  0.00    +0.000 A 
ATOM     15  C   UNL     1       5.775   4.311  19.223  0.00  0.00    +0.000 A 
ENDBRANCH   3   6
ENDBRANCH   2   3
BRANCH   2  16
ATOM     16  C   UNL     1       2.708   4.270  20.781  0.00  0.00    +0.000 C 
BRANCH  16  17
ATOM     17  C   UNL     1       1.989   5.404  20.070  0.00  0.00    +0.000 C 
ATOM     18  O   UNL     1       1.135   5.159  19.222  0.00  0.00    +0.000 OA
ATOM     19  N   UNL     1       2.391   6.670  20.466  0.00  0.00    +0.000 N 
ATOM     20  H   UNL     1       3.238   6.726  21.029  0.00  0.00    +0.000 HD
BRANCH  19  21
ATOM     21  C   UNL     1       1.856   7.896  20.003  0.00  0.00    +0.000 A 
ATOM     22  C   UNL     1       2.146   8.442  18.751  0.00  0.00    +0.000 A 
ATOM     23  C   UNL     1       1.612   9.675  18.383  0.00  0.00    +0.000 A 
ATOM     24  F   UNL     1       1.907  10.188  17.181  0.00  0.00    +0.000 F 
ATOM     25  C   UNL     1       0.776  10.386  19.238  0.00  0.00    +0.000 A 
ATOM     26  C   UNL     1       0.451   9.843  20.478  0.00  0.00    +0.000 A 
ATOM     27  C   UNL     1       0.983   8.604  20.846  0.00  0.00    +0.000 A 
ATOM     28  F   UNL     1       0.665   8.096  22.047  0.00  0.00    +0.000 F 
ENDBRANCH  19  21
ENDBRANCH  16  17
ENDBRANCH   2  16
TORSDOF 5
ENDMDL
MODEL 5
REMARK VINA RESULT:      -8.9      1.443      2.247
REMARK  Name = 
REMARK  6 active torsions:
REMARK  status: ('A' for Active; 'I' for Inactive)
REMARK    1  A    between atoms: C_1  and  N_2
REMARK    2  A    between atoms: N_2  and  C_3
REMARK    3  A    between atoms: N_2  and  S_15
REMARK    4  A    between atoms: C_3  and  C_4
REMARK    5  A    between atoms: N_6  and  C_7
REMARK    6  A    between atoms: S_15  and  C_18
REMARK                            x       y       z     vdW  Elec       q    Type
REMARK                         _______ _______ _______ _____ _____    ______ ____
ROOT
ATOM      1  C   UNL     1       7.743   5.621  18.218  0.00  0.00    +0.000 C 
ATOM      2  N   UNL     1       6.768   6.589  17.638  0.00  0.00    +0.000 NA
ENDROOT
BRANCH   2   3
ATOM      3  S   UNL     1       5.857   5.923  16.331  0.00  0.00    +0.000 S 
ATOM      4  O   UNL     1       5.217   7.022  15.638  0.00  0.00    +0.000 OA
ATOM      5  O   UNL     1       6.718   4.994  15.631  0.00  0.00    +0.000 OA
BRANCH   3   6
ATOM      6  C   UNL     1       4.575   5.011  17.147  0.00  0.00    +0.000 A 
ATOM      7  C   UNL     1       4.127   3.795  16.630  0.00  0.00    +0.000 A 
ATOM      8  C   UNL     1       3.077   3.128  17.265  0.00  0.00    +0.000 A 
ATOM      9  C   UNL     1       2.468   3.669  18.412  0.00  0.00    +0.000 A 
ATOM     10  C   UNL     1       1.411   3.009  19.061  0.00  0.00    +0.000 A 
ATOM     11  C   UNL     1       0.811   3.563  20.194  0.00  0.00    +0.000 A 
ATOM     12  C   UNL     1       1.257   4.785  20.690  0.00  0.00    +0.000 A 
ATOM     13  C   UNL     1       2.304   5.455  20.058  0.00  0.00    +0.000 A 
ATOM     14  C   UNL     1       2.922   4.909  18.921  0.00  0.00    +0.000 A 
ATOM     15  C   UNL     1       3.975   5.575  18.280  0.00  0.00    +0.000 A 
ENDBRANCH   3   6
ENDBRANCH   2   3
BRANCH   2  16
ATOM     16  C   UNL     1       7.440   7.858  17.210  0.00  0.00    +0.000 C 
BRANCH  16  17
ATOM     17  C   UNL     1       8.323   8.486  18.276  0.00  0.00    +0.000 C 
ATOM     18  O   UNL     1       8.801   7.792  19.170  0.00  0.00    +0.000 OA
ATOM     19  N   UNL     1       8.508   9.851  18.129  0.00  0.00    +0.000 N 
ATOM     20  H   UNL     1       7.901  10.327  17.465  0.00  0.00    +0.000 HD
BRANCH  19  21
ATOM     21  C   UNL     1       9.318  10.673  18.950  0.00  0.00    +0.000 A 
ATOM     22  C   UNL     1       9.039  10.940  20.292  0.00  0.00    +0.000 A 
ATOM     23  C   UNL     1       9.862  11.794  21.023  0.00  0.00    +0.000 A 
ATOM     24  F   UNL     1       9.576  12.044  22.307  0.00  0.00    +0.000 F 
ATOM     25  C   UNL     1      10.978  12.392  20.447  0.00  0.00    +0.000 A 
ATOM     26  C   UNL     1      11.289  12.115  19.118  0.00  0.00    +0.000 A 
ATOM     27  C   UNL     1      10.466  11.255  18.386  0.00  0.00    +0.000 A 
ATOM     28  F   UNL     1      10.776  11.002  17.104  0.00  0.00    +0.000 F 
ENDBRANCH  19  21
ENDBRANCH  16  17
ENDBRANCH   2  16
TORSDOF 5
ENDMDL
MODEL 6
REMARK VINA RESULT:      -8.8      1.719      2.530
REMARK  Name = 
REMARK  6 active torsions:
REMARK  status: ('A' for Active; 'I' for Inactive)
REMARK    1  A    between atoms: C_1  and  N_2
REMARK    2  A    between atoms: N_2  and  C_3
REMARK    3  A    between atoms: N_2  and  S_15
REMARK    4  A    between atoms: C_3  and  C_4
REMARK    5  A    between atoms: N_6  and  C_7
REMARK    6  A    between atoms: S_15  and  C_18
REMARK                            x       y       z     vdW  Elec       q    Type
REMARK                         _______ _______ _______ _____ _____    ______ ____
ROOT
ATOM      1  C   UNL     1       7.699   4.970  17.685  0.00  0.00    +0.000 C 
ATOM      2  N   UNL     1       6.800   6.115  17.366  0.00  0.00    +0.000 NA
ENDROOT
BRANCH   2   3
ATOM      3  S   UNL     1       5.504   5.678  16.312  0.00  0.00    +0.000 S 
ATOM      4  O   UNL     1       5.126   6.861  15.568  0.00  0.00    +0.000 OA
ATOM      5  O   UNL     1       5.887   4.457  15.636  0.00  0.00    +0.000 OA
BRANCH   3   6
ATOM      6  C   UNL     1       4.172   5.321  17.426  0.00  0.00    +0.000 A 
ATOM      7  C   UNL     1       3.789   6.249  18.396  0.00  0.00    +0.000 A 
ATOM      8  C   UNL     1       2.773   5.916  19.295  0.00  0.00    +0.000 A 
ATOM      9  C   UNL     1       2.140   4.661  19.236  0.00  0.00    +0.000 A 
ATOM     10  C   UNL     1       1.118   4.313  20.134  0.00  0.00    +0.000 A 
ATOM     11  C   UNL     1       0.503   3.060  20.067  0.00  0.00    +0.000 A 
ATOM     12  C   UNL     1       0.907   2.138  19.105  0.00  0.00    +0.000 A 
ATOM     13  C   UNL     1       1.922   2.466  18.206  0.00  0.00    +0.000 A 
ATOM     14  C   UNL     1       2.545   3.724  18.256  0.00  0.00    +0.000 A 
ATOM     15  C   UNL     1       3.564   4.062  17.356  0.00  0.00    +0.000 A 
ENDBRANCH   3   6
ENDBRANCH   2   3
BRANCH   2  16
ATOM     16  C   UNL     1       7.563   7.273  16.799  0.00  0.00    +0.000 C 
BRANCH  16  17
ATOM     17  C   UNL     1       8.123   8.222  17.845  0.00  0.00    +0.000 C 
ATOM     18  O   UNL     1       8.477   7.796  18.941  0.00  0.00    +0.000 OA
ATOM     19  N   UNL     1       8.179   9.547  17.440  0.00  0.00    +0.000 N 
ATOM     20  H   UNL     1       7.676   9.787  16.588  0.00  0.00    +0.000 HD
BRANCH  19  21
ATOM     21  C   UNL     1       8.698  10.626  18.195  0.00  0.00    +0.000 A 
ATOM     22  C   UNL     1       9.535  10.463  19.301  0.00  0.00    +0.000 A 
ATOM     23  C   UNL     1       9.973  11.575  20.018  0.00  0.00    +0.000 A 
ATOM     24  F   UNL     1      10.769  11.400  21.081  0.00  0.00    +0.000 F 
ATOM     25  C   UNL     1       9.600  12.865  19.654  0.00  0.00    +0.000 A 
ATOM     26  C   UNL     1       8.791  13.048  18.536  0.00  0.00    +0.000 A 
ATOM     27  C   UNL     1       8.355  11.934  17.813  0.00  0.00    +0.000 A 
ATOM     28  F   UNL     1       7.571  12.127  16.741  0.00  0.00    +0.000 F 
ENDBRANCH  19  21
ENDBRANCH  16  17
ENDBRANCH   2  16
TORSDOF 5
ENDMDL
MODEL 7
REMARK VINA RESULT:      -8.8      0.897      1.668
REMARK  Name = 
REMARK  6 active torsions:
REMARK  status: ('A' for Active; 'I' for Inactive)
REMARK    1  A    between atoms: C_1  and  N_2
REMARK    2  A    between atoms: N_2  and  C_3
REMARK    3  A    between atoms: N_2  and  S_15
REMARK    4  A    between atoms: C_3  and  C_4
REMARK    5  A    between atoms: N_6  and  C_7
REMARK    6  A    between atoms: S_15  and  C_18
REMARK                            x       y       z     vdW  Elec       q    Type
REMARK                         _______ _______ _______ _____ _____    ______ ____
ROOT
ATOM      1  C   UNL     1       6.025   7.212  17.013  0.00  0.00    +0.000 C 
ATOM      2  N   UNL     1       7.392   6.641  17.181  0.00  0.00    +0.000 NA
ENDROOT
BRANCH   2   3
ATOM      3  S   UNL     1       7.393   4.915  17.265  0.00  0.00    +0.000 S 
ATOM      4  O   UNL     1       7.701   4.413  15.942  0.00  0.00    +0.000 OA
ATOM      5  O   UNL     1       8.185   4.536  18.414  0.00  0.00    +0.000 OA
BRANCH   3   6
ATOM      6  C   UNL     1       5.695   4.520  17.584  0.00  0.00    +0.000 A 
ATOM      7  C   UNL     1       4.896   3.958  16.587  0.00  0.00    +0.000 A 
ATOM      8  C   UNL     1       3.547   3.710  16.852  0.00  0.00    +0.000 A 
ATOM      9  C   UNL     1       2.989   4.023  18.105  0.00  0.00    +0.000 A 
ATOM     10  C   UNL     1       1.634   3.780  18.385  0.00  0.00    +0.000 A 
ATOM     11  C   UNL     1       1.092   4.102  19.632  0.00  0.00    +0.000 A 
ATOM     12  C   UNL     1       1.897   4.678  20.611  0.00  0.00    +0.000 A 
ATOM     13  C   UNL     1       3.244   4.928  20.350  0.00  0.00    +0.000 A 
ATOM     14  C   UNL     1       3.805   4.603  19.104  0.00  0.00    +0.000 A 
ATOM     15  C   UNL     1       5.157   4.851  18.834  0.00  0.00    +0.000 A 
ENDBRANCH   3   6
ENDBRANCH   2   3
BRANCH   2  16
ATOM     16  C   UNL     1       8.088   7.219  18.376  0.00  0.00    +0.000 C 
BRANCH  16  17
ATOM     17  C   UNL     1       8.238   8.730  18.338  0.00  0.00    +0.000 C 
ATOM     18  O   UNL     1       7.568   9.399  17.555  0.00  0.00    +0.000 OA
ATOM     19  N   UNL     1       9.169   9.232  19.233  0.00  0.00    +0.000 N 
ATOM     20  H   UNL     1       9.787   8.557  19.678  0.00  0.00    +0.000 HD
BRANCH  19  21
ATOM     21  C   UNL     1       9.472  10.600  19.439  0.00  0.00    +0.000 A 
ATOM     22  C   UNL     1       9.174  11.288  20.617  0.00  0.00    +0.000 A 
ATOM     23  C   UNL     1       9.466  12.646  20.729  0.00  0.00    +0.000 A 
ATOM     24  F   UNL     1       9.167  13.293  21.863  0.00  0.00    +0.000 F 
ATOM     25  C   UNL     1      10.064  13.346  19.686  0.00  0.00    +0.000 A 
ATOM     26  C   UNL     1      10.395  12.670  18.515  0.00  0.00    +0.000 A 
ATOM     27  C   UNL     1      10.107  11.307  18.404  0.00  0.00    +0.000 A 
ATOM     28  F   UNL     1      10.427  10.669  17.267  0.00  0.00    +0.000 F 
ENDBRANCH  19  21
ENDBRANCH  16  17
ENDBRANCH   2  16
TORSDOF 5
ENDMDL
MODEL 8
REMARK VINA RESULT:      -8.7      1.127      1.285
REMARK  Name = 
REMARK  6 active torsions:
REMARK  status: ('A' for Active; 'I' for Inactive)
REMARK    1  A    between atoms: C_1  and  N_2
REMARK    2  A    between atoms: N_2  and  C_3
REMARK    3  A    between atoms: N_2  and  S_15
REMARK    4  A    between atoms: C_3  and  C_4
REMARK    5  A    between atoms: N_6  and  C_7
REMARK    6  A    between atoms: S_15  and  C_18
REMARK                            x       y       z     vdW  Elec       q    Type
REMARK                         _______ _______ _______ _____ _____    ______ ____
ROOT
ATOM      1  C   UNL     1       7.340   5.655  19.337  0.00  0.00    +0.000 C 
ATOM      2  N   UNL     1       7.058   6.629  18.244  0.00  0.00    +0.000 NA
ENDROOT
BRANCH   2   3
ATOM      3  S   UNL     1       6.382   5.884  16.840  0.00  0.00    +0.000 S 
ATOM      4  O   UNL     1       5.845   6.936  16.002  0.00  0.00    +0.000 OA
ATOM      5  O   UNL     1       7.360   4.946  16.333  0.00  0.00    +0.000 OA
BRANCH   3   6
ATOM      6  C   UNL     1       4.999   4.980  17.481  0.00  0.00    +0.000 A 
ATOM      7  C   UNL     1       4.605   3.775  16.898  0.00  0.00    +0.000 A 
ATOM      8  C   UNL     1       3.477   3.113  17.390  0.00  0.00    +0.000 A 
ATOM      9  C   UNL     1       2.738   3.649  18.460  0.00  0.00    +0.000 A 
ATOM     10  C   UNL     1       1.602   2.996  18.966  0.00  0.00    +0.000 A 
ATOM     11  C   UNL     1       0.873   3.544  20.024  0.00  0.00    +0.000 A 
ATOM     12  C   UNL     1       1.268   4.755  20.586  0.00  0.00    +0.000 A 
ATOM     13  C   UNL     1       2.393   5.419  20.096  0.00  0.00    +0.000 A 
ATOM     14  C   UNL     1       3.140   4.878  19.037  0.00  0.00    +0.000 A 
ATOM     15  C   UNL     1       4.270   5.538  18.539  0.00  0.00    +0.000 A 
ENDBRANCH   3   6
ENDBRANCH   2   3
BRANCH   2  16
ATOM     16  C   UNL     1       8.279   7.415  17.878  0.00  0.00    +0.000 C 
BRANCH  16  17
ATOM     17  C   UNL     1       8.126   8.917  18.049  0.00  0.00    +0.000 C 
ATOM     18  O   UNL     1       7.135   9.493  17.606  0.00  0.00    +0.000 OA
ATOM     19  N   UNL     1       9.177   9.524  18.718  0.00  0.00    +0.000 N 
ATOM     20  H   UNL     1      10.017   8.965  18.855  0.00  0.00    +0.000 HD
BRANCH  19  21
ATOM     21  C   UNL     1       9.268  10.897  19.054  0.00  0.00    +0.000 A 
ATOM     22  C   UNL     1       9.359  11.919  18.106  0.00  0.00    +0.000 A 
ATOM     23  C   UNL     1       9.487  13.245  18.516  0.00  0.00    +0.000 A 
ATOM     24  F   UNL     1       9.580  14.212  17.594  0.00  0.00    +0.000 F 
ATOM     25  C   UNL     1       9.521  13.586  19.865  0.00  0.00    +0.000 A 
ATOM     26  C   UNL     1       9.402  12.583  20.823  0.00  0.00    +0.000 A 
ATOM     27  C   UNL     1       9.268  11.254  20.413  0.00  0.00    +0.000 A 
ATOM     28  F   UNL     1       9.160  10.297  21.349  0.00  0.00    +0.000 F 
ENDBRANCH  19  21
ENDBRANCH  16  17
ENDBRANCH   2  16
TORSDOF 5
ENDMDL
MODEL 9
REMARK VINA RESULT:      -8.6      1.472      2.313
REMARK  Name = 
REMARK  6 active torsions:
REMARK  status: ('A' for Active; 'I' for Inactive)
REMARK    1  A    between atoms: C_1  and  N_2
REMARK    2  A    between atoms: N_2  and  C_3
REMARK    3  A    between atoms: N_2  and  S_15
REMARK    4  A    between atoms: C_3  and  C_4
REMARK    5  A    between atoms: N_6  and  C_7
REMARK    6  A    between atoms: S_15  and  C_18
REMARK                            x       y       z     vdW  Elec       q    Type
REMARK                         _______ _______ _______ _____ _____    ______ ____
ROOT
ATOM      1  C   UNL     1       7.217   5.365  18.539  0.00  0.00    +0.000 C 
ATOM      2  N   UNL     1       6.824   6.734  18.101  0.00  0.00    +0.000 NA
ENDROOT
BRANCH   2   3
ATOM      3  S   UNL     1       5.481   6.731  17.014  0.00  0.00    +0.000 S 
ATOM      4  O   UNL     1       4.733   7.950  17.238  0.00  0.00    +0.000 OA
ATOM      5  O   UNL     1       5.986   6.392  15.701  0.00  0.00    +0.000 OA
BRANCH   3   6
ATOM      6  C   UNL     1       4.479   5.394  17.605  0.00  0.00    +0.000 A 
ATOM      7  C   UNL     1       4.438   4.179  16.919  0.00  0.00    +0.000 A 
ATOM      8  C   UNL     1       3.596   3.163  17.378  0.00  0.00    +0.000 A 
ATOM      9  C   UNL     1       2.791   3.354  18.516  0.00  0.00    +0.000 A 
ATOM     10  C   UNL     1       1.939   2.342  18.989  0.00  0.00    +0.000 A 
ATOM     11  C   UNL     1       1.140   2.549  20.116  0.00  0.00    +0.000 A 
ATOM     12  C   UNL     1       1.179   3.772  20.781  0.00  0.00    +0.000 A 
ATOM     13  C   UNL     1       2.018   4.789  20.324  0.00  0.00    +0.000 A 
ATOM     14  C   UNL     1       2.832   4.594  19.197  0.00  0.00    +0.000 A 
ATOM     15  C   UNL     1       3.677   5.610  18.732  0.00  0.00    +0.000 A 
ENDBRANCH   3   6
ENDBRANCH   2   3
BRANCH   2  16
ATOM     16  C   UNL     1       7.979   7.472  17.497  0.00  0.00    +0.000 C 
BRANCH  16  17
ATOM     17  C   UNL     1       8.102   8.916  17.953  0.00  0.00    +0.000 C 
ATOM     18  O   UNL     1       7.320   9.766  17.533  0.00  0.00    +0.000 OA
ATOM     19  N   UNL     1       9.141   9.147  18.840  0.00  0.00    +0.000 N 
ATOM     20  H   UNL     1       9.824   8.400  18.949  0.00  0.00    +0.000 HD
BRANCH  19  21
ATOM     21  C   UNL     1       9.451  10.383  19.457  0.00  0.00    +0.000 A 
ATOM     22  C   UNL     1       9.106  10.698  20.773  0.00  0.00    +0.000 A 
ATOM     23  C   UNL     1       9.410  11.954  21.295  0.00  0.00    +0.000 A 
ATOM     24  F   UNL     1       9.066  12.242  22.558  0.00  0.00    +0.000 F 
ATOM     25  C   UNL     1      10.064  12.916  20.533  0.00  0.00    +0.000 A 
ATOM     26  C   UNL     1      10.441  12.610  19.229  0.00  0.00    +0.000 A 
ATOM     27  C   UNL     1      10.142  11.349  18.705  0.00  0.00    +0.000 A 
ATOM     28  F   UNL     1      10.507  11.070  17.444  0.00  0.00    +0.000 F 
ENDBRANCH  19  21
ENDBRANCH  16  17
ENDBRANCH   2  16
TORSDOF 5
ENDMDL
