MODEL 1
REMARK VINA RESULT:      -8.0      0.000      0.000
REMARK  Name = 
REMARK  6 active torsions:
REMARK  status: ('A' for Active; 'I' for Inactive)
REMARK    1  A    between atoms: C_1  and  C_2
REMARK    2  A    between atoms: C_2  and  C_3
REMARK    3  A    between atoms: N_7  and  C_8
REMARK    4  A    between atoms: C_8  and  C_9
REMARK    5  A    between atoms: C_13  and  N_14
REMARK    6  A    between atoms: C_22  and  C_23
REMARK                            x       y       z     vdW  Elec       q    Type
REMARK                         _______ _______ _______ _____ _____    ______ ____
ROOT
ATOM      1  N   UNL     1      -1.534  12.528  18.888  0.00  0.00    +0.000 N 
ATOM      2  C   UNL     1      -0.162  12.075  18.556  0.00  0.00    +0.000 C 
ATOM      3  C   UNL     1       0.163  11.189  19.722  0.00  0.00    +0.000 A 
ATOM      4  C   UNL     1      -0.577  11.659  20.815  0.00  0.00    +0.000 A 
ATOM      5  C   UNL     1      -0.666  10.981  22.014  0.00  0.00    +0.000 A 
ATOM      6  C   UNL     1       0.014   9.775  22.094  0.00  0.00    +0.000 A 
ATOM      7  F   UNL     1      -0.109   9.026  23.197  0.00  0.00    +0.000 F 
ATOM      8  C   UNL     1       0.753   9.272  21.011  0.00  0.00    +0.000 A 
ATOM      9  C   UNL     1       0.840   9.974  19.792  0.00  0.00    +0.000 A 
ATOM     10  C   UNL     1      -1.554  12.647  20.303  0.00  0.00    +0.000 C 
ATOM     11  O   UNL     1      -2.344  13.250  21.003  0.00  0.00    +0.000 OA
ENDROOT
BRANCH   1  16
ATOM     12  C   UNL     1      -4.852  11.564  17.706  0.00  0.00    +0.000 A 
ATOM     13  C   UNL     1      -4.483  11.091  16.439  0.00  0.00    +0.000 A 
ATOM     14  C   UNL     1      -3.172  10.701  16.191  0.00  0.00    +0.000 A 
ATOM     15  C   UNL     1      -2.199  10.882  17.167  0.00  0.00    +0.000 A 
ATOM     16  C   UNL     1      -2.513  11.601  18.330  0.00  0.00    +0.000 A 
ATOM     17  C   UNL     1      -3.856  11.797  18.664  0.00  0.00    +0.000 A 
BRANCH  12  18
ATOM     18  C   UNL     1      -6.296  11.835  18.030  0.00  0.00    +0.000 C 
BRANCH  18  23
ATOM     19  C   UNL     1      -6.871  11.577  20.484  0.00  0.00    +0.000 A 
ATOM     20  N   UNL     1      -7.245  10.573  21.250  0.00  0.00    +0.000 NA
ATOM     21  N   UNL     1      -7.308   9.435  20.483  0.00  0.00    +0.000 NA
ATOM     22  C   UNL     1      -6.972   9.767  19.262  0.00  0.00    +0.000 A 
ATOM     23  N   UNL     1      -6.694  11.095  19.207  0.00  0.00    +0.000 N 
BRANCH  19  25
ATOM     24  C   UNL     1      -7.895  13.604  21.540  0.00  0.00    +0.000 C 
ATOM     25  C   UNL     1      -6.667  12.996  20.885  0.00  0.00    +0.000 C 
ENDBRANCH  19  25
ENDBRANCH  18  23
ENDBRANCH  12  18
ENDBRANCH   1  16
BRANCH   9  26
ATOM     26  C   UNL     1       1.535   9.329  18.621  0.00  0.00    +0.000 C 
ATOM     27  F   UNL     1       2.199   8.181  18.931  0.00  0.00    +0.000 F 
ATOM     28  F   UNL     1       0.672   9.000  17.626  0.00  0.00    +0.000 F 
ATOM     29  F   UNL     1       2.467  10.149  18.059  0.00  0.00    +0.000 F 
ENDBRANCH   9  26
TORSDOF 5
ENDMDL
MODEL 2
REMARK VINA RESULT:      -8.0      4.375      7.555
REMARK  Name = 
REMARK  6 active torsions:
REMARK  status: ('A' for Active; 'I' for Inactive)
REMARK    1  A    between atoms: C_1  and  C_2
REMARK    2  A    between atoms: C_2  and  C_3
REMARK    3  A    between atoms: N_7  and  C_8
REMARK    4  A    between atoms: C_8  and  C_9
REMARK    5  A    between atoms: C_13  and  N_14
REMARK    6  A    between atoms: C_22  and  C_23
REMARK                            x       y       z     vdW  Elec       q    Type
REMARK                         _______ _______ _______ _____ _____    ______ ____
ROOT
ATOM      1  N   UNL     1       0.073   9.256  20.773  0.00  0.00    +0.000 N 
ATOM      2  C   UNL     1      -1.128   9.170  19.909  0.00  0.00    +0.000 C 
ATOM      3  C   UNL     1      -1.234  10.573  19.386  0.00  0.00    +0.000 A 
ATOM      4  C   UNL     1      -0.662  11.415  20.348  0.00  0.00    +0.000 A 
ATOM      5  C   UNL     1      -0.422  12.756  20.130  0.00  0.00    +0.000 A 
ATOM      6  C   UNL     1      -0.766  13.251  18.881  0.00  0.00    +0.000 A 
ATOM      7  F   UNL     1      -0.474  14.522  18.577  0.00  0.00    +0.000 F 
ATOM      8  C   UNL     1      -1.329  12.428  17.892  0.00  0.00    +0.000 A 
ATOM      9  C   UNL     1      -1.573  11.060  18.126  0.00  0.00    +0.000 A 
ATOM     10  C   UNL     1       0.036  10.558  21.336  0.00  0.00    +0.000 C 
ATOM     11  O   UNL     1       0.629  10.984  22.308  0.00  0.00    +0.000 OA
ENDROOT
BRANCH   1  16
ATOM     12  C   UNL     1       2.519   7.019  19.243  0.00  0.00    +0.000 A 
ATOM     13  C   UNL     1       2.451   7.513  17.932  0.00  0.00    +0.000 A 
ATOM     14  C   UNL     1       1.966   8.794  17.691  0.00  0.00    +0.000 A 
ATOM     15  C   UNL     1       1.447   9.546  18.738  0.00  0.00    +0.000 A 
ATOM     16  C   UNL     1       1.269   8.950  19.996  0.00  0.00    +0.000 A 
ATOM     17  C   UNL     1       1.943   7.760  20.282  0.00  0.00    +0.000 A 
BRANCH  12  18
ATOM     18  C   UNL     1       3.190   5.702  19.527  0.00  0.00    +0.000 C 
BRANCH  18  23
ATOM     19  C   UNL     1       1.539   3.827  19.104  0.00  0.00    +0.000 A 
ATOM     20  N   UNL     1       1.292   3.016  18.096  0.00  0.00    +0.000 NA
ATOM     21  N   UNL     1       2.173   3.298  17.080  0.00  0.00    +0.000 NA
ATOM     22  C   UNL     1       2.940   4.278  17.488  0.00  0.00    +0.000 A 
ATOM     23  N   UNL     1       2.582   4.649  18.744  0.00  0.00    +0.000 N 
BRANCH  19  25
ATOM     24  C   UNL     1       1.514   3.040  21.483  0.00  0.00    +0.000 C 
ATOM     25  C   UNL     1       0.836   3.883  20.415  0.00  0.00    +0.000 C 
ENDBRANCH  19  25
ENDBRANCH  18  23
ENDBRANCH  12  18
ENDBRANCH   1  16
BRANCH   9  26
ATOM     26  C   UNL     1      -2.055  10.196  16.990  0.00  0.00    +0.000 C 
ATOM     27  F   UNL     1      -1.163   9.245  16.596  0.00  0.00    +0.000 F 
ATOM     28  F   UNL     1      -3.196   9.528  17.298  0.00  0.00    +0.000 F 
ATOM     29  F   UNL     1      -2.332  10.923  15.871  0.00  0.00    +0.000 F 
ENDBRANCH   9  26
TORSDOF 5
ENDMDL
MODEL 3
REMARK VINA RESULT:      -7.9      1.732      2.560
REMARK  Name = 
REMARK  6 active torsions:
REMARK  status: ('A' for Active; 'I' for Inactive)
REMARK    1  A    between atoms: C_1  and  C_2
REMARK    2  A    between atoms: C_2  and  C_3
REMARK    3  A    between atoms: N_7  and  C_8
REMARK    4  A    between atoms: C_8  and  C_9
REMARK    5  A    between atoms: C_13  and  N_14
REMARK    6  A    between atoms: C_22  and  C_23
REMARK                            x       y       z     vdW  Elec       q    Type
REMARK                         _______ _______ _______ _____ _____    ______ ____
ROOT
ATOM      1  N   UNL     1      -0.365  11.677  18.638  0.00  0.00    +0.000 N 
ATOM      2  C   UNL     1       0.455  10.886  19.586  0.00  0.00    +0.000 C 
ATOM      3  C   UNL     1      -0.037  11.385  20.913  0.00  0.00    +0.000 A 
ATOM      4  C   UNL     1      -0.485  12.698  20.718  0.00  0.00    +0.000 A 
ATOM      5  C   UNL     1      -1.169  13.412  21.680  0.00  0.00    +0.000 A 
ATOM      6  C   UNL     1      -1.416  12.757  22.878  0.00  0.00    +0.000 A 
ATOM      7  F   UNL     1      -2.154  13.364  23.815  0.00  0.00    +0.000 F 
ATOM      8  C   UNL     1      -0.990  11.437  23.097  0.00  0.00    +0.000 A 
ATOM      9  C   UNL     1      -0.289  10.717  22.108  0.00  0.00    +0.000 A 
ATOM     10  C   UNL     1      -0.533  12.943  19.258  0.00  0.00    +0.000 C 
ATOM     11  O   UNL     1      -0.873  13.997  18.755  0.00  0.00    +0.000 OA
ENDROOT
BRANCH   1  16
ATOM     12  C   UNL     1      -3.897  11.454  17.740  0.00  0.00    +0.000 A 
ATOM     13  C   UNL     1      -3.770  10.598  16.636  0.00  0.00    +0.000 A 
ATOM     14  C   UNL     1      -2.641   9.798  16.497  0.00  0.00    +0.000 A 
ATOM     15  C   UNL     1      -1.588   9.924  17.395  0.00  0.00    +0.000 A 
ATOM     16  C   UNL     1      -1.602  10.966  18.335  0.00  0.00    +0.000 A 
ATOM     17  C   UNL     1      -2.808  11.617  18.606  0.00  0.00    +0.000 A 
BRANCH  12  18
ATOM     18  C   UNL     1      -5.180  12.201  17.982  0.00  0.00    +0.000 C 
BRANCH  18  23
ATOM     19  C   UNL     1      -6.090  11.956  20.334  0.00  0.00    +0.000 A 
ATOM     20  N   UNL     1      -6.881  11.093  20.940  0.00  0.00    +0.000 NA
ATOM     21  N   UNL     1      -7.251  10.128  20.035  0.00  0.00    +0.000 NA
ATOM     22  C   UNL     1      -6.680  10.420  18.894  0.00  0.00    +0.000 A 
ATOM     23  N   UNL     1      -5.948  11.556  19.025  0.00  0.00    +0.000 N 
BRANCH  19  25
ATOM     24  C   UNL     1      -5.076  12.980  22.384  0.00  0.00    +0.000 C 
ATOM     25  C   UNL     1      -5.447  13.163  20.922  0.00  0.00    +0.000 C 
ENDBRANCH  19  25
ENDBRANCH  18  23
ENDBRANCH  12  18
ENDBRANCH   1  16
BRANCH   9  26
ATOM     26  C   UNL     1       0.028   9.264  22.345  0.00  0.00    +0.000 C 
ATOM     27  F   UNL     1       1.302   8.911  22.021  0.00  0.00    +0.000 F 
ATOM     28  F   UNL     1      -0.137   8.905  23.644  0.00  0.00    +0.000 F 
ATOM     29  F   UNL     1      -0.776   8.436  21.619  0.00  0.00    +0.000 F 
ENDBRANCH   9  26
TORSDOF 5
ENDMDL
MODEL 4
REMARK VINA RESULT:      -7.9      0.640      1.687
REMARK  Name = 
REMARK  6 active torsions:
REMARK  status: ('A' for Active; 'I' for Inactive)
REMARK    1  A    between atoms: C_1  and  C_2
REMARK    2  A    between atoms: C_2  and  C_3
REMARK    3  A    between atoms: N_7  and  C_8
REMARK    4  A    between atoms: C_8  and  C_9
REMARK    5  A    between atoms: C_13  and  N_14
REMARK    6  A    between atoms: C_22  and  C_23
REMARK                            x       y       z     vdW  Elec       q    Type
REMARK                         _______ _______ _______ _____ _____    ______ ____
ROOT
ATOM      1  N   UNL     1      -1.758  12.548  19.146  0.00  0.00    +0.000 N 
ATOM      2  C   UNL     1      -0.383  12.161  18.747  0.00  0.00    +0.000 C 
ATOM      3  C   UNL     1       0.017  11.244  19.865  0.00  0.00    +0.000 A 
ATOM      4  C   UNL     1      -0.698  11.643  21.001  0.00  0.00    +0.000 A 
ATOM      5  C   UNL     1      -0.718  10.917  22.175  0.00  0.00    +0.000 A 
ATOM      6  C   UNL     1       0.008   9.735  22.182  0.00  0.00    +0.000 A 
ATOM      7  F   UNL     1      -0.047   8.941  23.259  0.00  0.00    +0.000 F 
ATOM      8  C   UNL     1       0.724   9.303  21.055  0.00  0.00    +0.000 A 
ATOM      9  C   UNL     1       0.740  10.054  19.862  0.00  0.00    +0.000 A 
ATOM     10  C   UNL     1      -1.730  12.612  20.564  0.00  0.00    +0.000 C 
ATOM     11  O   UNL     1      -2.515  13.157  21.315  0.00  0.00    +0.000 OA
ENDROOT
BRANCH   1  16
ATOM     12  C   UNL     1      -4.993  11.592  17.750  0.00  0.00    +0.000 A 
ATOM     13  C   UNL     1      -4.533  10.985  16.573  0.00  0.00    +0.000 A 
ATOM     14  C   UNL     1      -3.223  10.526  16.488  0.00  0.00    +0.000 A 
ATOM     15  C   UNL     1      -2.336  10.767  17.530  0.00  0.00    +0.000 A 
ATOM     16  C   UNL     1      -2.722  11.606  18.587  0.00  0.00    +0.000 A 
ATOM     17  C   UNL     1      -4.079  11.882  18.771  0.00  0.00    +0.000 A 
BRANCH  12  18
ATOM     18  C   UNL     1      -6.448  11.944  17.908  0.00  0.00    +0.000 C 
BRANCH  18  23
ATOM     19  C   UNL     1      -7.142  10.748  20.031  0.00  0.00    +0.000 A 
ATOM     20  N   UNL     1      -7.428  11.126  21.260  0.00  0.00    +0.000 NA
ATOM     21  N   UNL     1      -7.314  12.494  21.336  0.00  0.00    +0.000 NA
ATOM     22  C   UNL     1      -6.960  12.923  20.151  0.00  0.00    +0.000 A 
ATOM     23  N   UNL     1      -6.833  11.873  19.301  0.00  0.00    +0.000 N 
BRANCH  19  25
ATOM     24  C   UNL     1      -7.511   8.320  20.529  0.00  0.00    +0.000 C 
ATOM     25  C   UNL     1      -7.137   9.362  19.488  0.00  0.00    +0.000 C 
ENDBRANCH  19  25
ENDBRANCH  18  23
ENDBRANCH  12  18
ENDBRANCH   1  16
BRANCH   9  26
ATOM     26  C   UNL     1       1.415   9.481  18.643  0.00  0.00    +0.000 C 
ATOM     27  F   UNL     1       0.558   9.134  17.643  0.00  0.00    +0.000 F 
ATOM     28  F   UNL     1       2.300  10.347  18.088  0.00  0.00    +0.000 F 
ATOM     29  F   UNL     1       2.120   8.350  18.928  0.00  0.00    +0.000 F 
ENDBRANCH   9  26
TORSDOF 5
ENDMDL
MODEL 5
REMARK VINA RESULT:      -7.8      4.564      7.668
REMARK  Name = 
REMARK  6 active torsions:
REMARK  status: ('A' for Active; 'I' for Inactive)
REMARK    1  A    between atoms: C_1  and  C_2
REMARK    2  A    between atoms: C_2  and  C_3
REMARK    3  A    between atoms: N_7  and  C_8
REMARK    4  A    between atoms: C_8  and  C_9
REMARK    5  A    between atoms: C_13  and  N_14
REMARK    6  A    between atoms: C_22  and  C_23
REMARK                            x       y       z     vdW  Elec       q    Type
REMARK                         _______ _______ _______ _____ _____    ______ ____
ROOT
ATOM      1  N   UNL     1       0.278   8.704  21.135  0.00  0.00    +0.000 N 
ATOM      2  C   UNL     1      -0.934   8.946  20.316  0.00  0.00    +0.000 C 
ATOM      3  C   UNL     1      -0.921  10.440  20.177  0.00  0.00    +0.000 A 
ATOM      4  C   UNL     1      -0.268  10.952  21.306  0.00  0.00    +0.000 A 
ATOM      5  C   UNL     1       0.086  12.280  21.436  0.00  0.00    +0.000 A 
ATOM      6  C   UNL     1      -0.225  13.110  20.368  0.00  0.00    +0.000 A 
ATOM      7  F   UNL     1       0.176  14.387  20.394  0.00  0.00    +0.000 F 
ATOM      8  C   UNL     1      -0.867  12.622  19.218  0.00  0.00    +0.000 A 
ATOM      9  C   UNL     1      -1.227  11.265  19.098  0.00  0.00    +0.000 A 
ATOM     10  C   UNL     1       0.360   9.814  22.017  0.00  0.00    +0.000 C 
ATOM     11  O   UNL     1       0.996   9.922  23.047  0.00  0.00    +0.000 OA
ENDROOT
BRANCH   1  16
ATOM     12  C   UNL     1       2.704   6.706  19.278  0.00  0.00    +0.000 A 
ATOM     13  C   UNL     1       2.541   7.308  18.022  0.00  0.00    +0.000 A 
ATOM     14  C   UNL     1       1.999   8.584  17.923  0.00  0.00    +0.000 A 
ATOM     15  C   UNL     1       1.517   9.223  19.060  0.00  0.00    +0.000 A 
ATOM     16  C   UNL     1       1.435   8.514  20.268  0.00  0.00    +0.000 A 
ATOM     17  C   UNL     1       2.165   7.331  20.410  0.00  0.00    +0.000 A 
BRANCH  12  18
ATOM     18  C   UNL     1       3.436   5.397  19.408  0.00  0.00    +0.000 C 
BRANCH  18  23
ATOM     19  C   UNL     1       1.646   3.626  19.123  0.00  0.00    +0.000 A 
ATOM     20  N   UNL     1       1.310   2.790  18.162  0.00  0.00    +0.000 NA
ATOM     21  N   UNL     1       2.175   2.963  17.109  0.00  0.00    +0.000 NA
ATOM     22  C   UNL     1       3.021   3.903  17.446  0.00  0.00    +0.000 A 
ATOM     23  N   UNL     1       2.731   4.355  18.693  0.00  0.00    +0.000 N 
BRANCH  19  25
ATOM     24  C   UNL     1       1.465   2.769  21.470  0.00  0.00    +0.000 C 
ATOM     25  C   UNL     1       0.992   3.791  20.450  0.00  0.00    +0.000 C 
ENDBRANCH  19  25
ENDBRANCH  18  23
ENDBRANCH  12  18
ENDBRANCH   1  16
BRANCH   9  26
ATOM     26  C   UNL     1      -1.793  10.769  17.793  0.00  0.00    +0.000 C 
ATOM     27  F   UNL     1      -2.979  10.111  17.914  0.00  0.00    +0.000 F 
ATOM     28  F   UNL     1      -2.018  11.777  16.912  0.00  0.00    +0.000 F 
ATOM     29  F   UNL     1      -0.954   9.897  17.165  0.00  0.00    +0.000 F 
ENDBRANCH   9  26
TORSDOF 5
ENDMDL
MODEL 6
REMARK VINA RESULT:      -7.7      5.104      7.812
REMARK  Name = 
REMARK  6 active torsions:
REMARK  status: ('A' for Active; 'I' for Inactive)
REMARK    1  A    between atoms: C_1  and  C_2
REMARK    2  A    between atoms: C_2  and  C_3
REMARK    3  A    between atoms: N_7  and  C_8
REMARK    4  A    between atoms: C_8  and  C_9
REMARK    5  A    between atoms: C_13  and  N_14
REMARK    6  A    between atoms: C_22  and  C_23
REMARK                            x       y       z     vdW  Elec       q    Type
REMARK                         _______ _______ _______ _____ _____    ______ ____
ROOT
ATOM      1  N   UNL     1       2.882   5.759  17.367  0.00  0.00    +0.000 N 
ATOM      2  C   UNL     1       1.839   4.756  17.688  0.00  0.00    +0.000 C 
ATOM      3  C   UNL     1       2.585   3.805  18.576  0.00  0.00    +0.000 A 
ATOM      4  C   UNL     1       3.935   3.869  18.205  0.00  0.00    +0.000 A 
ATOM      5  C   UNL     1       4.945   3.261  18.923  0.00  0.00    +0.000 A 
ATOM      6  C   UNL     1       4.564   2.576  20.067  0.00  0.00    +0.000 A 
ATOM      7  F   UNL     1       5.506   2.044  20.856  0.00  0.00    +0.000 F 
ATOM      8  C   UNL     1       3.221   2.506  20.471  0.00  0.00    +0.000 A 
ATOM      9  C   UNL     1       2.197   3.128  19.729  0.00  0.00    +0.000 A 
ATOM     10  C   UNL     1       4.094   5.024  17.291  0.00  0.00    +0.000 C 
ATOM     11  O   UNL     1       5.149   5.348  16.780  0.00  0.00    +0.000 OA
ENDROOT
BRANCH   1  16
ATOM     12  C   UNL     1       1.840   8.995  18.699  0.00  0.00    +0.000 A 
ATOM     13  C   UNL     1       1.390   8.559  19.954  0.00  0.00    +0.000 A 
ATOM     14  C   UNL     1       1.833   7.349  20.476  0.00  0.00    +0.000 A 
ATOM     15  C   UNL     1       2.639   6.517  19.708  0.00  0.00    +0.000 A 
ATOM     16  C   UNL     1       2.867   6.828  18.359  0.00  0.00    +0.000 A 
ATOM     17  C   UNL     1       2.605   8.126  17.910  0.00  0.00    +0.000 A 
BRANCH  12  18
ATOM     18  C   UNL     1       1.494  10.371  18.200  0.00  0.00    +0.000 C 
BRANCH  18  23
ATOM     19  C   UNL     1      -0.974  10.755  18.625  0.00  0.00    +0.000 A 
ATOM     20  N   UNL     1      -1.672  11.382  19.549  0.00  0.00    +0.000 NA
ATOM     21  N   UNL     1      -0.799  11.943  20.451  0.00  0.00    +0.000 NA
ATOM     22  C   UNL     1       0.414  11.645  20.060  0.00  0.00    +0.000 A 
ATOM     23  N   UNL     1       0.361  10.899  18.927  0.00  0.00    +0.000 N 
BRANCH  19  25
ATOM     24  C   UNL     1      -2.976   9.684  17.565  0.00  0.00    +0.000 C 
ATOM     25  C   UNL     1      -1.496  10.005  17.449  0.00  0.00    +0.000 C 
ENDBRANCH  19  25
ENDBRANCH  18  23
ENDBRANCH  12  18
ENDBRANCH   1  16
BRANCH   9  26
ATOM     26  C   UNL     1       0.794   3.133  20.277  0.00  0.00    +0.000 C 
ATOM     27  F   UNL     1       0.277   4.378  20.474  0.00  0.00    +0.000 F 
ATOM     28  F   UNL     1      -0.082   2.495  19.459  0.00  0.00    +0.000 F 
ATOM     29  F   UNL     1       0.709   2.507  21.485  0.00  0.00    +0.000 F 
ENDBRANCH   9  26
TORSDOF 5
ENDMDL
MODEL 7
REMARK VINA RESULT:      -7.6      4.345      7.574
REMARK  Name = 
REMARK  6 active torsions:
REMARK  status: ('A' for Active; 'I' for Inactive)
REMARK    1  A    between atoms: C_1  and  C_2
REMARK    2  A    between atoms: C_2  and  C_3
REMARK    3  A    between atoms: N_7  and  C_8
REMARK    4  A    between atoms: C_8  and  C_9
REMARK    5  A    between atoms: C_13  and  N_14
REMARK    6  A    between atoms: C_22  and  C_23
REMARK                            x       y       z     vdW  Elec       q    Type
REMARK                         _______ _______ _______ _____ _____    ______ ____
ROOT
ATOM      1  N   UNL     1       0.047   9.137  20.876  0.00  0.00    +0.000 N 
ATOM      2  C   UNL     1      -1.141   9.085  19.989  0.00  0.00    +0.000 C 
ATOM      3  C   UNL     1      -1.244  10.509  19.526  0.00  0.00    +0.000 A 
ATOM      4  C   UNL     1      -0.691  11.310  20.534  0.00  0.00    +0.000 A 
ATOM      5  C   UNL     1      -0.453  12.661  20.379  0.00  0.00    +0.000 A 
ATOM      6  C   UNL     1      -0.780  13.209  19.147  0.00  0.00    +0.000 A 
ATOM      7  F   UNL     1      -0.488  14.492  18.903  0.00  0.00    +0.000 F 
ATOM      8  C   UNL     1      -1.324  12.428  18.114  0.00  0.00    +0.000 A 
ATOM      9  C   UNL     1      -1.565  11.050  18.284  0.00  0.00    +0.000 A 
ATOM     10  C   UNL     1      -0.006  10.414  21.494  0.00  0.00    +0.000 C 
ATOM     11  O   UNL     1       0.570  10.799  22.493  0.00  0.00    +0.000 OA
ENDROOT
BRANCH   1  16
ATOM     12  C   UNL     1       2.585   6.981  19.380  0.00  0.00    +0.000 A 
ATOM     13  C   UNL     1       2.500   7.455  18.062  0.00  0.00    +0.000 A 
ATOM     14  C   UNL     1       1.964   8.712  17.804  0.00  0.00    +0.000 A 
ATOM     15  C   UNL     1       1.412   9.456  18.840  0.00  0.00    +0.000 A 
ATOM     16  C   UNL     1       1.256   8.870  20.105  0.00  0.00    +0.000 A 
ATOM     17  C   UNL     1       1.976   7.712  20.408  0.00  0.00    +0.000 A 
BRANCH  12  18
ATOM     18  C   UNL     1       3.307   5.697  19.683  0.00  0.00    +0.000 C 
BRANCH  18  23
ATOM     19  C   UNL     1       1.578   3.911  19.189  0.00  0.00    +0.000 A 
ATOM     20  N   UNL     1       0.871   3.075  19.921  0.00  0.00    +0.000 NA
ATOM     21  N   UNL     1       1.183   3.277  21.244  0.00  0.00    +0.000 NA
ATOM     22  C   UNL     1       2.076   4.233  21.294  0.00  0.00    +0.000 A 
ATOM     23  N   UNL     1       2.362   4.660  20.037  0.00  0.00    +0.000 N 
BRANCH  19  25
ATOM     24  C   UNL     1       2.692   3.283  17.035  0.00  0.00    +0.000 C 
ATOM     25  C   UNL     1       1.567   4.052  17.708  0.00  0.00    +0.000 C 
ENDBRANCH  19  25
ENDBRANCH  18  23
ENDBRANCH  12  18
ENDBRANCH   1  16
BRANCH   9  26
ATOM     26  C   UNL     1      -2.026  10.234  17.104  0.00  0.00    +0.000 C 
ATOM     27  F   UNL     1      -2.315  10.971  15.996  0.00  0.00    +0.000 F 
ATOM     28  F   UNL     1      -1.097   9.325  16.712  0.00  0.00    +0.000 F 
ATOM     29  F   UNL     1      -3.157   9.526  17.377  0.00  0.00    +0.000 F 
ENDBRANCH   9  26
TORSDOF 5
ENDMDL
MODEL 8
REMARK VINA RESULT:      -7.6      5.100      7.715
REMARK  Name = 
REMARK  6 active torsions:
REMARK  status: ('A' for Active; 'I' for Inactive)
REMARK    1  A    between atoms: C_1  and  C_2
REMARK    2  A    between atoms: C_2  and  C_3
REMARK    3  A    between atoms: N_7  and  C_8
REMARK    4  A    between atoms: C_8  and  C_9
REMARK    5  A    between atoms: C_13  and  N_14
REMARK    6  A    between atoms: C_22  and  C_23
REMARK                            x       y       z     vdW  Elec       q    Type
REMARK                         _______ _______ _______ _____ _____    ______ ____
ROOT
ATOM      1  N   UNL     1       2.877   5.785  17.426  0.00  0.00    +0.000 N 
ATOM      2  C   UNL     1       1.831   4.777  17.727  0.00  0.00    +0.000 C 
ATOM      3  C   UNL     1       2.574   3.814  18.605  0.00  0.00    +0.000 A 
ATOM      4  C   UNL     1       3.925   3.883  18.242  0.00  0.00    +0.000 A 
ATOM      5  C   UNL     1       4.931   3.265  18.956  0.00  0.00    +0.000 A 
ATOM      6  C   UNL     1       4.544   2.563  20.089  0.00  0.00    +0.000 A 
ATOM      7  F   UNL     1       5.482   2.020  20.874  0.00  0.00    +0.000 F 
ATOM      8  C   UNL     1       3.199   2.487  20.485  0.00  0.00    +0.000 A 
ATOM      9  C   UNL     1       2.179   3.120  19.746  0.00  0.00    +0.000 A 
ATOM     10  C   UNL     1       4.089   5.051  17.346  0.00  0.00    +0.000 C 
ATOM     11  O   UNL     1       5.147   5.382  16.845  0.00  0.00    +0.000 OA
ENDROOT
BRANCH   1  16
ATOM     12  C   UNL     1       1.780   8.973  18.828  0.00  0.00    +0.000 A 
ATOM     13  C   UNL     1       1.371   8.508  20.087  0.00  0.00    +0.000 A 
ATOM     14  C   UNL     1       1.859   7.303  20.581  0.00  0.00    +0.000 A 
ATOM     15  C   UNL     1       2.668   6.504  19.782  0.00  0.00    +0.000 A 
ATOM     16  C   UNL     1       2.856   6.840  18.433  0.00  0.00    +0.000 A 
ATOM     17  C   UNL     1       2.548   8.136  18.009  0.00  0.00    +0.000 A 
BRANCH  12  18
ATOM     18  C   UNL     1       1.386  10.346  18.357  0.00  0.00    +0.000 C 
BRANCH  18  23
ATOM     19  C   UNL     1      -0.726  11.267  19.413  0.00  0.00    +0.000 A 
ATOM     20  N   UNL     1      -2.013  11.171  19.153  0.00  0.00    +0.000 NA
ATOM     21  N   UNL     1      -2.179  10.365  18.052  0.00  0.00    +0.000 NA
ATOM     22  C   UNL     1      -0.989   9.986  17.661  0.00  0.00    +0.000 A 
ATOM     23  N   UNL     1      -0.045  10.526  18.474  0.00  0.00    +0.000 N 
BRANCH  19  25
ATOM     24  C   UNL     1      -0.311  11.412  21.880  0.00  0.00    +0.000 C 
ATOM     25  C   UNL     1      -0.078  12.033  20.513  0.00  0.00    +0.000 C 
ENDBRANCH  19  25
ENDBRANCH  18  23
ENDBRANCH  12  18
ENDBRANCH   1  16
BRANCH   9  26
ATOM     26  C   UNL     1       0.773   3.117  20.286  0.00  0.00    +0.000 C 
ATOM     27  F   UNL     1      -0.125   2.457  19.503  0.00  0.00    +0.000 F 
ATOM     28  F   UNL     1       0.691   2.538  21.511  0.00  0.00    +0.000 F 
ATOM     29  F   UNL     1       0.274   4.378  20.430  0.00  0.00    +0.000 F 
ENDBRANCH   9  26
TORSDOF 5
ENDMDL
MODEL 9
REMARK VINA RESULT:      -7.5      4.432      7.930
REMARK  Name = 
REMARK  6 active torsions:
REMARK  status: ('A' for Active; 'I' for Inactive)
REMARK    1  A    between atoms: C_1  and  C_2
REMARK    2  A    between atoms: C_2  and  C_3
REMARK    3  A    between atoms: N_7  and  C_8
REMARK    4  A    between atoms: C_8  and  C_9
REMARK    5  A    between atoms: C_13  and  N_14
REMARK    6  A    between atoms: C_22  and  C_23
REMARK                            x       y       z     vdW  Elec       q    Type
REMARK                         _______ _______ _______ _____ _____    ______ ____
ROOT
ATOM      1  N   UNL     1       0.053   9.207  20.834  0.00  0.00    +0.000 N 
ATOM      2  C   UNL     1      -1.144   9.132  19.962  0.00  0.00    +0.000 C 
ATOM      3  C   UNL     1      -1.231  10.534  19.434  0.00  0.00    +0.000 A 
ATOM      4  C   UNL     1      -0.656  11.373  20.398  0.00  0.00    +0.000 A 
ATOM      5  C   UNL     1      -0.400  12.711  20.177  0.00  0.00    +0.000 A 
ATOM      6  C   UNL     1      -0.732  13.206  18.924  0.00  0.00    +0.000 A 
ATOM      7  F   UNL     1      -0.424  14.472  18.618  0.00  0.00    +0.000 F 
ATOM      8  C   UNL     1      -1.298  12.385  17.935  0.00  0.00    +0.000 A 
ATOM      9  C   UNL     1      -1.558  11.021  18.171  0.00  0.00    +0.000 A 
ATOM     10  C   UNL     1       0.026  10.512  21.392  0.00  0.00    +0.000 C 
ATOM     11  O   UNL     1       0.618  10.935  22.366  0.00  0.00    +0.000 OA
ENDROOT
BRANCH   1  16
ATOM     12  C   UNL     1       2.494   6.940  19.340  0.00  0.00    +0.000 A 
ATOM     13  C   UNL     1       2.432   7.418  18.023  0.00  0.00    +0.000 A 
ATOM     14  C   UNL     1       1.954   8.698  17.764  0.00  0.00    +0.000 A 
ATOM     15  C   UNL     1       1.435   9.466  18.800  0.00  0.00    +0.000 A 
ATOM     16  C   UNL     1       1.250   8.886  20.064  0.00  0.00    +0.000 A 
ATOM     17  C   UNL     1       1.917   7.696  20.368  0.00  0.00    +0.000 A 
BRANCH  12  18
ATOM     18  C   UNL     1       3.157   5.624  19.643  0.00  0.00    +0.000 C 
BRANCH  18  23
ATOM     19  C   UNL     1       3.310   3.922  17.772  0.00  0.00    +0.000 A 
ATOM     20  N   UNL     1       2.477   3.053  17.236  0.00  0.00    +0.000 NA
ATOM     21  N   UNL     1       1.265   3.154  17.876  0.00  0.00    +0.000 NA
ATOM     22  C   UNL     1       1.382   4.081  18.792  0.00  0.00    +0.000 A 
ATOM     23  N   UNL     1       2.641   4.589  18.773  0.00  0.00    +0.000 N 
BRANCH  19  25
ATOM     24  C   UNL     1       4.872   4.866  16.057  0.00  0.00    +0.000 C 
ATOM     25  C   UNL     1       4.729   4.166  17.398  0.00  0.00    +0.000 C 
ENDBRANCH  19  25
ENDBRANCH  18  23
ENDBRANCH  12  18
ENDBRANCH   1  16
BRANCH   9  26
ATOM     26  C   UNL     1      -2.043  10.158  17.035  0.00  0.00    +0.000 C 
ATOM     27  F   UNL     1      -1.145   9.219  16.626  0.00  0.00    +0.000 F 
ATOM     28  F   UNL     1      -3.173   9.476  17.351  0.00  0.00    +0.000 F 
ATOM     29  F   UNL     1      -2.339  10.889  15.923  0.00  0.00    +0.000 F 
ENDBRANCH   9  26
TORSDOF 5
ENDMDL
