MODEL 1
REMARK VINA RESULT:      -8.5      0.000      0.000
REMARK  Name = 
REMARK  4 active torsions:
REMARK  status: ('A' for Active; 'I' for Inactive)
REMARK    1  A    between atoms: S_2  and  N_4
REMARK    2  A    between atoms: S_2  and  C_17
REMARK    3  A    between atoms: N_9  and  C_10
REMARK    4  A    between atoms: C_10  and  C_11
REMARK                            x       y       z     vdW  Elec       q    Type
REMARK                         _______ _______ _______ _____ _____    ______ ____
ROOT
ATOM      1  O   UNL     1       1.465   5.638  20.541  0.00  0.00    +0.000 OA
ATOM      2  S   UNL     1       2.409   6.299  19.660  0.00  0.00    +0.000 S 
ATOM      3  O   UNL     1       3.826   6.240  19.950  0.00  0.00    +0.000 OA
ENDROOT
BRANCH   2   4
ATOM      4  C   UNL     1       1.898   8.019  19.487  0.00  0.00    +0.000 A 
ATOM      5  C   UNL     1       2.037   8.529  18.189  0.00  0.00    +0.000 A 
ATOM      6  C   UNL     1       1.473   9.751  17.870  0.00  0.00    +0.000 A 
ATOM      7  C   UNL     1       0.625  10.367  18.782  0.00  0.00    +0.000 A 
ATOM      8 CL   UNL     1      -0.029  11.909  18.318  0.00  0.00    +0.000 Cl
ATOM      9  C   UNL     1       0.429   9.838  20.076  0.00  0.00    +0.000 A 
ATOM     10  C   UNL     1      -0.495  10.424  20.966  0.00  0.00    +0.000 A 
ATOM     11  C   UNL     1      -0.377  10.251  22.335  0.00  0.00    +0.000 A 
ATOM     12  C   UNL     1       0.549   9.343  22.815  0.00  0.00    +0.000 A 
ATOM     13  C   UNL     1       1.246   8.520  21.915  0.00  0.00    +0.000 A 
ATOM     14  C   UNL     1       1.206   8.735  20.499  0.00  0.00    +0.000 A 
ENDBRANCH   2   4
BRANCH   2  15
ATOM     15  N   UNL     1       2.316   5.658  18.091  0.00  0.00    +0.000 N 
ATOM     16  C   UNL     1       2.222   4.239  18.082  0.00  0.00    +0.000 A 
ATOM     17  N   UNL     1       1.059   3.630  18.024  0.00  0.00    +0.000 NA
ATOM     18  N   UNL     1       1.285   2.277  17.963  0.00  0.00    +0.000 NA
ATOM     19  C   UNL     1       2.583   2.094  18.005  0.00  0.00    +0.000 A 
ATOM     20  N   UNL     1       3.219   3.297  18.071  0.00  0.00    +0.000 N 
ATOM     21  H   UNL     1       3.139   6.013  17.602  0.00  0.00    +0.000 HD
BRANCH  20  22
ATOM     22  C   UNL     1       4.628   3.484  18.332  0.00  0.00    +0.000 C 
BRANCH  22  23
ATOM     23  C   UNL     1       5.365   4.094  17.180  0.00  0.00    +0.000 A 
ATOM     24  C   UNL     1       6.325   5.108  17.416  0.00  0.00    +0.000 A 
ATOM     25  C   UNL     1       7.087   5.625  16.364  0.00  0.00    +0.000 A 
ATOM     26  C   UNL     1       6.898   5.159  15.064  0.00  0.00    +0.000 A 
ATOM     27  C   UNL     1       5.948   4.174  14.813  0.00  0.00    +0.000 A 
ATOM     28  C   UNL     1       5.187   3.650  15.862  0.00  0.00    +0.000 A 
ENDBRANCH  22  23
ENDBRANCH  20  22
ENDBRANCH   2  15
TORSDOF 4
ENDMDL
MODEL 2
REMARK VINA RESULT:      -7.9      1.243      2.006
REMARK  Name = 
REMARK  4 active torsions:
REMARK  status: ('A' for Active; 'I' for Inactive)
REMARK    1  A    between atoms: S_2  and  N_4
REMARK    2  A    between atoms: S_2  and  C_17
REMARK    3  A    between atoms: N_9  and  C_10
REMARK    4  A    between atoms: C_10  and  C_11
REMARK                            x       y       z     vdW  Elec       q    Type
REMARK                         _______ _______ _______ _____ _____    ______ ____
ROOT
ATOM      1  O   UNL     1       1.381   5.604  20.794  0.00  0.00    +0.000 OA
ATOM      2  S   UNL     1       2.265   6.126  19.769  0.00  0.00    +0.000 S 
ATOM      3  O   UNL     1       3.694   5.933  19.885  0.00  0.00    +0.000 OA
ENDROOT
BRANCH   2   4
ATOM      4  C   UNL     1       1.905   7.880  19.565  0.00  0.00    +0.000 A 
ATOM      5  C   UNL     1       2.151   8.368  18.274  0.00  0.00    +0.000 A 
ATOM      6  C   UNL     1       1.704   9.629  17.923  0.00  0.00    +0.000 A 
ATOM      7  C   UNL     1       0.865  10.319  18.789  0.00  0.00    +0.000 A 
ATOM      8 CL   UNL     1       0.363  11.906  18.288  0.00  0.00    +0.000 Cl
ATOM      9  C   UNL     1       0.562   9.817  20.073  0.00  0.00    +0.000 A 
ATOM     10  C   UNL     1      -0.355  10.483  20.914  0.00  0.00    +0.000 A 
ATOM     11  C   UNL     1      -0.320  10.310  22.288  0.00  0.00    +0.000 A 
ATOM     12  C   UNL     1       0.504   9.333  22.817  0.00  0.00    +0.000 A 
ATOM     13  C   UNL     1       1.175   8.450  21.955  0.00  0.00    +0.000 A 
ATOM     14  C   UNL     1       1.224   8.658  20.538  0.00  0.00    +0.000 A 
ENDBRANCH   2   4
BRANCH   2  15
ATOM     15  N   UNL     1       1.910   5.431  18.261  0.00  0.00    +0.000 N 
ATOM     16  C   UNL     1       2.936   4.561  17.802  0.00  0.00    +0.000 A 
ATOM     17  N   UNL     1       2.884   3.266  18.019  0.00  0.00    +0.000 NA
ATOM     18  N   UNL     1       3.966   2.683  17.407  0.00  0.00    +0.000 NA
ATOM     19  C   UNL     1       4.663   3.643  16.847  0.00  0.00    +0.000 A 
ATOM     20  N   UNL     1       4.054   4.843  17.058  0.00  0.00    +0.000 N 
ATOM     21  H   UNL     1       1.733   6.218  17.634  0.00  0.00    +0.000 HD
BRANCH  20  22
ATOM     22  C   UNL     1       4.630   6.136  16.766  0.00  0.00    +0.000 C 
BRANCH  22  23
ATOM     23  C   UNL     1       5.940   6.364  17.454  0.00  0.00    +0.000 A 
ATOM     24  C   UNL     1       6.695   7.527  17.162  0.00  0.00    +0.000 A 
ATOM     25  C   UNL     1       7.875   7.803  17.859  0.00  0.00    +0.000 A 
ATOM     26  C   UNL     1       8.332   6.927  18.843  0.00  0.00    +0.000 A 
ATOM     27  C   UNL     1       7.609   5.773  19.132  0.00  0.00    +0.000 A 
ATOM     28  C   UNL     1       6.427   5.495  18.440  0.00  0.00    +0.000 A 
ENDBRANCH  22  23
ENDBRANCH  20  22
ENDBRANCH   2  15
TORSDOF 4
ENDMDL
MODEL 3
REMARK VINA RESULT:      -7.8      1.629      3.359
REMARK  Name = 
REMARK  4 active torsions:
REMARK  status: ('A' for Active; 'I' for Inactive)
REMARK    1  A    between atoms: S_2  and  N_4
REMARK    2  A    between atoms: S_2  and  C_17
REMARK    3  A    between atoms: N_9  and  C_10
REMARK    4  A    between atoms: C_10  and  C_11
REMARK                            x       y       z     vdW  Elec       q    Type
REMARK                         _______ _______ _______ _____ _____    ______ ____
ROOT
ATOM      1  O   UNL     1       1.805   5.858  18.134  0.00  0.00    +0.000 OA
ATOM      2  S   UNL     1       2.506   6.531  19.212  0.00  0.00    +0.000 S 
ATOM      3  O   UNL     1       2.442   5.998  20.555  0.00  0.00    +0.000 OA
ENDROOT
BRANCH   2   4
ATOM      4  C   UNL     1       1.987   8.257  19.220  0.00  0.00    +0.000 A 
ATOM      5  C   UNL     1       2.163   8.912  17.993  0.00  0.00    +0.000 A 
ATOM      6  C   UNL     1       1.598  10.160  17.799  0.00  0.00    +0.000 A 
ATOM      7  C   UNL     1       0.718  10.664  18.747  0.00  0.00    +0.000 A 
ATOM      8 CL   UNL     1       0.066  12.247  18.441  0.00  0.00    +0.000 Cl
ATOM      9  C   UNL     1       0.485   9.991  19.965  0.00  0.00    +0.000 A 
ATOM     10  C   UNL     1      -0.471  10.467  20.887  0.00  0.00    +0.000 A 
ATOM     11  C   UNL     1      -0.394  10.139  22.230  0.00  0.00    +0.000 A 
ATOM     12  C   UNL     1       0.524   9.186  22.633  0.00  0.00    +0.000 A 
ATOM     13  C   UNL     1       1.255   8.475  21.667  0.00  0.00    +0.000 A 
ATOM     14  C   UNL     1       1.258   8.850  20.284  0.00  0.00    +0.000 A 
ENDBRANCH   2   4
BRANCH   2  15
ATOM     15  N   UNL     1       4.174   6.580  18.902  0.00  0.00    +0.000 N 
ATOM     16  C   UNL     1       4.571   5.671  17.884  0.00  0.00    +0.000 A 
ATOM     17  N   UNL     1       4.682   6.051  16.631  0.00  0.00    +0.000 NA
ATOM     18  N   UNL     1       5.142   4.985  15.897  0.00  0.00    +0.000 NA
ATOM     19  C   UNL     1       5.283   3.974  16.721  0.00  0.00    +0.000 A 
ATOM     20  N   UNL     1       4.946   4.355  17.985  0.00  0.00    +0.000 N 
ATOM     21  H   UNL     1       4.624   6.404  19.802  0.00  0.00    +0.000 HD
BRANCH  20  22
ATOM     22  C   UNL     1       4.785   3.463  19.111  0.00  0.00    +0.000 C 
BRANCH  22  23
ATOM     23  C   UNL     1       3.369   3.015  19.308  0.00  0.00    +0.000 A 
ATOM     24  C   UNL     1       2.815   2.986  20.611  0.00  0.00    +0.000 A 
ATOM     25  C   UNL     1       1.470   2.657  20.805  0.00  0.00    +0.000 A 
ATOM     26  C   UNL     1       0.660   2.338  19.717  0.00  0.00    +0.000 A 
ATOM     27  C   UNL     1       1.193   2.348  18.431  0.00  0.00    +0.000 A 
ATOM     28  C   UNL     1       2.536   2.680  18.231  0.00  0.00    +0.000 A 
ENDBRANCH  22  23
ENDBRANCH  20  22
ENDBRANCH   2  15
TORSDOF 4
ENDMDL
MODEL 4
REMARK VINA RESULT:      -7.7      2.453      4.353
REMARK  Name = 
REMARK  4 active torsions:
REMARK  status: ('A' for Active; 'I' for Inactive)
REMARK    1  A    between atoms: S_2  and  N_4
REMARK    2  A    between atoms: S_2  and  C_17
REMARK    3  A    between atoms: N_9  and  C_10
REMARK    4  A    between atoms: C_10  and  C_11
REMARK                            x       y       z     vdW  Elec       q    Type
REMARK                         _______ _______ _______ _____ _____    ______ ____
ROOT
ATOM      1  O   UNL     1       2.711   9.357  17.436  0.00  0.00    +0.000 OA
ATOM      2  S   UNL     1       2.186   8.165  18.073  0.00  0.00    +0.000 S 
ATOM      3  O   UNL     1       1.482   7.177  17.283  0.00  0.00    +0.000 OA
ENDROOT
BRANCH   2   4
ATOM      4  C   UNL     1       1.150   8.684  19.455  0.00  0.00    +0.000 A 
ATOM      5  C   UNL     1       1.544   8.157  20.693  0.00  0.00    +0.000 A 
ATOM      6  C   UNL     1       0.981   8.652  21.855  0.00  0.00    +0.000 A 
ATOM      7  C   UNL     1       0.176   9.782  21.794  0.00  0.00    +0.000 A 
ATOM      8 CL   UNL     1      -0.510  10.332  23.295  0.00  0.00    +0.000 Cl
ATOM      9  C   UNL     1      -0.185  10.361  20.559  0.00  0.00    +0.000 A 
ATOM     10  C   UNL     1      -0.935  11.555  20.508  0.00  0.00    +0.000 A 
ATOM     11  C   UNL     1      -1.687  11.880  19.392  0.00  0.00    +0.000 A 
ATOM     12  C   UNL     1      -1.550  11.113  18.249  0.00  0.00    +0.000 A 
ATOM     13  C   UNL     1      -0.561  10.118  18.195  0.00  0.00    +0.000 A 
ATOM     14  C   UNL     1       0.170   9.705  19.357  0.00  0.00    +0.000 A 
ENDBRANCH   2   4
BRANCH   2  15
ATOM     15  N   UNL     1       3.437   7.263  18.782  0.00  0.00    +0.000 N 
ATOM     16  C   UNL     1       4.155   6.482  17.836  0.00  0.00    +0.000 A 
ATOM     17  N   UNL     1       5.261   6.925  17.281  0.00  0.00    +0.000 NA
ATOM     18  N   UNL     1       5.761   5.936  16.470  0.00  0.00    +0.000 NA
ATOM     19  C   UNL     1       4.935   4.920  16.537  0.00  0.00    +0.000 A 
ATOM     20  N   UNL     1       3.913   5.208  17.390  0.00  0.00    +0.000 N 
ATOM     21  H   UNL     1       2.991   6.706  19.513  0.00  0.00    +0.000 HD
BRANCH  20  22
ATOM     22  C   UNL     1       2.716   4.415  17.558  0.00  0.00    +0.000 C 
BRANCH  22  23
ATOM     23  C   UNL     1       2.545   3.898  18.953  0.00  0.00    +0.000 A 
ATOM     24  C   UNL     1       1.387   4.241  19.694  0.00  0.00    +0.000 A 
ATOM     25  C   UNL     1       1.166   3.697  20.962  0.00  0.00    +0.000 A 
ATOM     26  C   UNL     1       2.093   2.818  21.521  0.00  0.00    +0.000 A 
ATOM     27  C   UNL     1       3.243   2.482  20.813  0.00  0.00    +0.000 A 
ATOM     28  C   UNL     1       3.466   3.021  19.543  0.00  0.00    +0.000 A 
ENDBRANCH  22  23
ENDBRANCH  20  22
ENDBRANCH   2  15
TORSDOF 4
ENDMDL
MODEL 5
REMARK VINA RESULT:      -7.7      4.442      9.421
REMARK  Name = 
REMARK  4 active torsions:
REMARK  status: ('A' for Active; 'I' for Inactive)
REMARK    1  A    between atoms: S_2  and  N_4
REMARK    2  A    between atoms: S_2  and  C_17
REMARK    3  A    between atoms: N_9  and  C_10
REMARK    4  A    between atoms: C_10  and  C_11
REMARK                            x       y       z     vdW  Elec       q    Type
REMARK                         _______ _______ _______ _____ _____    ______ ____
ROOT
ATOM      1  O   UNL     1       1.580   9.618  22.176  0.00  0.00    +0.000 OA
ATOM      2  S   UNL     1       0.568   9.166  21.240  0.00  0.00    +0.000 S 
ATOM      3  O   UNL     1      -0.545   8.370  21.712  0.00  0.00    +0.000 OA
ENDROOT
BRANCH   2   4
ATOM      4  C   UNL     1       1.402   8.303  19.895  0.00  0.00    +0.000 A 
ATOM      5  C   UNL     1       1.676   9.110  18.782  0.00  0.00    +0.000 A 
ATOM      6  C   UNL     1       2.509   8.636  17.784  0.00  0.00    +0.000 A 
ATOM      7  C   UNL     1       3.203   7.450  17.983  0.00  0.00    +0.000 A 
ATOM      8 CL   UNL     1       4.213   6.910  16.675  0.00  0.00    +0.000 Cl
ATOM      9  C   UNL     1       2.981   6.651  19.125  0.00  0.00    +0.000 A 
ATOM     10  C   UNL     1       3.748   5.491  19.359  0.00  0.00    +0.000 A 
ATOM     11  C   UNL     1       3.270   4.468  20.161  0.00  0.00    +0.000 A 
ATOM     12  C   UNL     1       2.109   4.674  20.884  0.00  0.00    +0.000 A 
ATOM     13  C   UNL     1       1.519   5.948  20.902  0.00  0.00    +0.000 A 
ATOM     14  C   UNL     1       1.941   6.996  20.019  0.00  0.00    +0.000 A 
ENDBRANCH   2   4
BRANCH   2  15
ATOM     15  N   UNL     1      -0.198  10.487  20.500  0.00  0.00    +0.000 N 
ATOM     16  C   UNL     1      -0.024  11.699  21.224  0.00  0.00    +0.000 A 
ATOM     17  N   UNL     1       0.941  12.541  20.929  0.00  0.00    +0.000 NA
ATOM     18  N   UNL     1       0.819  13.639  21.745  0.00  0.00    +0.000 NA
ATOM     19  C   UNL     1      -0.211  13.430  22.530  0.00  0.00    +0.000 A 
ATOM     20  N   UNL     1      -0.782  12.228  22.238  0.00  0.00    +0.000 N 
ATOM     21  H   UNL     1      -1.176  10.213  20.397  0.00  0.00    +0.000 HD
BRANCH  20  22
ATOM     22  C   UNL     1      -1.804  11.575  23.024  0.00  0.00    +0.000 C 
BRANCH  22  23
ATOM     23  C   UNL     1      -3.127  12.275  22.967  0.00  0.00    +0.000 A 
ATOM     24  C   UNL     1      -3.674  12.644  21.713  0.00  0.00    +0.000 A 
ATOM     25  C   UNL     1      -4.947  13.217  21.634  0.00  0.00    +0.000 A 
ATOM     26  C   UNL     1      -5.689  13.446  22.792  0.00  0.00    +0.000 A 
ATOM     27  C   UNL     1      -5.159  13.103  24.032  0.00  0.00    +0.000 A 
ATOM     28  C   UNL     1      -3.888  12.527  24.116  0.00  0.00    +0.000 A 
ENDBRANCH  22  23
ENDBRANCH  20  22
ENDBRANCH   2  15
TORSDOF 4
ENDMDL
MODEL 6
REMARK VINA RESULT:      -7.3      1.581      2.701
REMARK  Name = 
REMARK  4 active torsions:
REMARK  status: ('A' for Active; 'I' for Inactive)
REMARK    1  A    between atoms: S_2  and  N_4
REMARK    2  A    between atoms: S_2  and  C_17
REMARK    3  A    between atoms: N_9  and  C_10
REMARK    4  A    between atoms: C_10  and  C_11
REMARK                            x       y       z     vdW  Elec       q    Type
REMARK                         _______ _______ _______ _____ _____    ______ ____
ROOT
ATOM      1  O   UNL     1       3.941   6.109  19.698  0.00  0.00    +0.000 OA
ATOM      2  S   UNL     1       3.044   6.742  18.750  0.00  0.00    +0.000 S 
ATOM      3  O   UNL     1       3.581   7.583  17.703  0.00  0.00    +0.000 OA
ENDROOT
BRANCH   2   4
ATOM      4  C   UNL     1       1.803   7.658  19.685  0.00  0.00    +0.000 A 
ATOM      5  C   UNL     1       1.331   6.984  20.819  0.00  0.00    +0.000 A 
ATOM      6  C   UNL     1       0.555   7.661  21.742  0.00  0.00    +0.000 A 
ATOM      7  C   UNL     1       0.407   9.038  21.628  0.00  0.00    +0.000 A 
ATOM      8 CL   UNL     1      -0.599   9.814  22.814  0.00  0.00    +0.000 Cl
ATOM      9  C   UNL     1       0.925   9.742  20.520  0.00  0.00    +0.000 A 
ATOM     10  C   UNL     1       0.842  11.149  20.451  0.00  0.00    +0.000 A 
ATOM     11  C   UNL     1       0.893  11.809  19.235  0.00  0.00    +0.000 A 
ATOM     12  C   UNL     1       1.213  11.090  18.098  0.00  0.00    +0.000 A 
ATOM     13  C   UNL     1       1.614   9.749  18.215  0.00  0.00    +0.000 A 
ATOM     14  C   UNL     1       1.490   9.021  19.443  0.00  0.00    +0.000 A 
ENDBRANCH   2   4
BRANCH   2  15
ATOM     15  N   UNL     1       2.164   5.576  17.887  0.00  0.00    +0.000 N 
ATOM     16  C   UNL     1       2.672   4.260  18.065  0.00  0.00    +0.000 A 
ATOM     17  N   UNL     1       2.177   3.452  18.976  0.00  0.00    +0.000 NA
ATOM     18  N   UNL     1       2.816   2.241  18.871  0.00  0.00    +0.000 NA
ATOM     19  C   UNL     1       3.700   2.348  17.907  0.00  0.00    +0.000 A 
ATOM     20  N   UNL     1       3.644   3.595  17.361  0.00  0.00    +0.000 N 
ATOM     21  H   UNL     1       2.179   5.888  16.914  0.00  0.00    +0.000 HD
BRANCH  20  22
ATOM     22  C   UNL     1       4.597   4.139  16.421  0.00  0.00    +0.000 C 
BRANCH  22  23
ATOM     23  C   UNL     1       5.709   4.894  17.082  0.00  0.00    +0.000 A 
ATOM     24  C   UNL     1       6.166   6.110  16.519  0.00  0.00    +0.000 A 
ATOM     25  C   UNL     1       7.141   6.874  17.169  0.00  0.00    +0.000 A 
ATOM     26  C   UNL     1       7.687   6.437  18.375  0.00  0.00    +0.000 A 
ATOM     27  C   UNL     1       7.260   5.237  18.934  0.00  0.00    +0.000 A 
ATOM     28  C   UNL     1       6.283   4.472  18.290  0.00  0.00    +0.000 A 
ENDBRANCH  22  23
ENDBRANCH  20  22
ENDBRANCH   2  15
TORSDOF 4
ENDMDL
MODEL 7
REMARK VINA RESULT:      -7.3      0.941      1.037
REMARK  Name = 
REMARK  4 active torsions:
REMARK  status: ('A' for Active; 'I' for Inactive)
REMARK    1  A    between atoms: S_2  and  N_4
REMARK    2  A    between atoms: S_2  and  C_17
REMARK    3  A    between atoms: N_9  and  C_10
REMARK    4  A    between atoms: C_10  and  C_11
REMARK                            x       y       z     vdW  Elec       q    Type
REMARK                         _______ _______ _______ _____ _____    ______ ____
ROOT
ATOM      1  O   UNL     1       0.663   5.235  20.674  0.00  0.00    +0.000 OA
ATOM      2  S   UNL     1       1.914   5.489  19.984  0.00  0.00    +0.000 S 
ATOM      3  O   UNL     1       3.161   5.056  20.575  0.00  0.00    +0.000 OA
ENDROOT
BRANCH   2   4
ATOM      4  C   UNL     1       1.997   7.252  19.615  0.00  0.00    +0.000 A 
ATOM      5  C   UNL     1       2.504   7.545  18.342  0.00  0.00    +0.000 A 
ATOM      6  C   UNL     1       2.408   8.834  17.850  0.00  0.00    +0.000 A 
ATOM      7  C   UNL     1       1.652   9.772  18.541  0.00  0.00    +0.000 A 
ATOM      8 CL   UNL     1       1.596  11.375  17.869  0.00  0.00    +0.000 Cl
ATOM      9  C   UNL     1       1.087   9.477  19.800  0.00  0.00    +0.000 A 
ATOM     10  C   UNL     1       0.254  10.406  20.457  0.00  0.00    +0.000 A 
ATOM     11  C   UNL     1       0.080  10.364  21.831  0.00  0.00    +0.000 A 
ATOM     12  C   UNL     1       0.585   9.285  22.534  0.00  0.00    +0.000 A 
ATOM     13  C   UNL     1       1.133   8.196  21.836  0.00  0.00    +0.000 A 
ATOM     14  C   UNL     1       1.401   8.250  20.429  0.00  0.00    +0.000 A 
ENDBRANCH   2   4
BRANCH   2  15
ATOM     15  N   UNL     1       1.927   4.727  18.467  0.00  0.00    +0.000 N 
ATOM     16  C   UNL     1       2.582   3.465  18.492  0.00  0.00    +0.000 A 
ATOM     17  N   UNL     1       1.911   2.347  18.658  0.00  0.00    +0.000 NA
ATOM     18  N   UNL     1       2.793   1.298  18.572  0.00  0.00    +0.000 NA
ATOM     19  C   UNL     1       3.986   1.805  18.374  0.00  0.00    +0.000 A 
ATOM     20  N   UNL     1       3.908   3.164  18.307  0.00  0.00    +0.000 N 
ATOM     21  H   UNL     1       2.361   5.396  17.830  0.00  0.00    +0.000 HD
BRANCH  20  22
ATOM     22  C   UNL     1       5.037   4.066  18.300  0.00  0.00    +0.000 C 
BRANCH  22  23
ATOM     23  C   UNL     1       5.568   4.333  16.925  0.00  0.00    +0.000 A 
ATOM     24  C   UNL     1       6.749   5.099  16.763  0.00  0.00    +0.000 A 
ATOM     25  C   UNL     1       7.310   5.283  15.496  0.00  0.00    +0.000 A 
ATOM     26  C   UNL     1       6.704   4.725  14.372  0.00  0.00    +0.000 A 
ATOM     27  C   UNL     1       5.535   3.983  14.511  0.00  0.00    +0.000 A 
ATOM     28  C   UNL     1       4.972   3.794  15.777  0.00  0.00    +0.000 A 
ENDBRANCH  22  23
ENDBRANCH  20  22
ENDBRANCH   2  15
TORSDOF 4
ENDMDL
MODEL 8
REMARK VINA RESULT:      -7.3      1.753      2.832
REMARK  Name = 
REMARK  4 active torsions:
REMARK  status: ('A' for Active; 'I' for Inactive)
REMARK    1  A    between atoms: S_2  and  N_4
REMARK    2  A    between atoms: S_2  and  C_17
REMARK    3  A    between atoms: N_9  and  C_10
REMARK    4  A    between atoms: C_10  and  C_11
REMARK                            x       y       z     vdW  Elec       q    Type
REMARK                         _______ _______ _______ _____ _____    ______ ____
ROOT
ATOM      1  O   UNL     1       3.715   7.088  19.370  0.00  0.00    +0.000 OA
ATOM      2  S   UNL     1       2.597   7.560  18.574  0.00  0.00    +0.000 S 
ATOM      3  O   UNL     1       2.836   8.439  17.450  0.00  0.00    +0.000 OA
ENDROOT
BRANCH   2   4
ATOM      4  C   UNL     1       1.400   8.316  19.690  0.00  0.00    +0.000 A 
ATOM      5  C   UNL     1       1.606   8.008  21.042  0.00  0.00    +0.000 A 
ATOM      6  C   UNL     1       0.906   8.700  22.014  0.00  0.00    +0.000 A 
ATOM      7  C   UNL     1       0.151   9.808  21.650  0.00  0.00    +0.000 A 
ATOM      8 CL   UNL     1      -0.716  10.612  22.925  0.00  0.00    +0.000 Cl
ATOM      9  C   UNL     1      -0.023  10.166  20.296  0.00  0.00    +0.000 A 
ATOM     10  C   UNL     1      -0.723  11.338  19.940  0.00  0.00    +0.000 A 
ATOM     11  C   UNL     1      -1.307  11.469  18.691  0.00  0.00    +0.000 A 
ATOM     12  C   UNL     1      -1.040  10.516  17.726  0.00  0.00    +0.000 A 
ATOM     13  C   UNL     1      -0.082   9.521  17.980  0.00  0.00    +0.000 A 
ATOM     14  C   UNL     1       0.472   9.311  19.285  0.00  0.00    +0.000 A 
ENDBRANCH   2   4
BRANCH   2  15
ATOM     15  N   UNL     1       1.771   6.256  17.869  0.00  0.00    +0.000 N 
ATOM     16  C   UNL     1       2.308   4.995  18.248  0.00  0.00    +0.000 A 
ATOM     17  N   UNL     1       1.810   4.313  19.255  0.00  0.00    +0.000 NA
ATOM     18  N   UNL     1       2.482   3.119  19.340  0.00  0.00    +0.000 NA
ATOM     19  C   UNL     1       3.388   3.111  18.391  0.00  0.00    +0.000 A 
ATOM     20  N   UNL     1       3.315   4.264  17.670  0.00  0.00    +0.000 N 
ATOM     21  H   UNL     1       1.804   6.425  16.862  0.00  0.00    +0.000 HD
BRANCH  20  22
ATOM     22  C   UNL     1       4.279   4.695  16.683  0.00  0.00    +0.000 C 
BRANCH  22  23
ATOM     23  C   UNL     1       5.447   5.419  17.278  0.00  0.00    +0.000 A 
ATOM     24  C   UNL     1       6.199   4.809  18.312  0.00  0.00    +0.000 A 
ATOM     25  C   UNL     1       7.346   5.429  18.819  0.00  0.00    +0.000 A 
ATOM     26  C   UNL     1       7.755   6.665  18.320  0.00  0.00    +0.000 A 
ATOM     27  C   UNL     1       7.018   7.284  17.315  0.00  0.00    +0.000 A 
ATOM     28  C   UNL     1       5.873   6.666  16.803  0.00  0.00    +0.000 A 
ENDBRANCH  22  23
ENDBRANCH  20  22
ENDBRANCH   2  15
TORSDOF 4
ENDMDL
MODEL 9
REMARK VINA RESULT:      -7.2      4.291      6.540
REMARK  Name = 
REMARK  4 active torsions:
REMARK  status: ('A' for Active; 'I' for Inactive)
REMARK    1  A    between atoms: S_2  and  N_4
REMARK    2  A    between atoms: S_2  and  C_17
REMARK    3  A    between atoms: N_9  and  C_10
REMARK    4  A    between atoms: C_10  and  C_11
REMARK                            x       y       z     vdW  Elec       q    Type
REMARK                         _______ _______ _______ _____ _____    ______ ____
ROOT
ATOM      1  O   UNL     1       5.215   6.648  14.953  0.00  0.00    +0.000 OA
ATOM      2  S   UNL     1       5.455   5.369  15.594  0.00  0.00    +0.000 S 
ATOM      3  O   UNL     1       5.206   4.143  14.867  0.00  0.00    +0.000 OA
ENDROOT
BRANCH   2   4
ATOM      4  C   UNL     1       4.542   5.347  17.149  0.00  0.00    +0.000 A 
ATOM      5  C   UNL     1       4.303   6.618  17.689  0.00  0.00    +0.000 A 
ATOM      6  C   UNL     1       3.424   6.755  18.748  0.00  0.00    +0.000 A 
ATOM      7  C   UNL     1       2.656   5.667  19.141  0.00  0.00    +0.000 A 
ATOM      8 CL   UNL     1       1.590   5.913  20.492  0.00  0.00    +0.000 Cl
ATOM      9  C   UNL     1       2.845   4.390  18.569  0.00  0.00    +0.000 A 
ATOM     10  C   UNL     1       2.006   3.310  18.914  0.00  0.00    +0.000 A 
ATOM     11  C   UNL     1       2.429   2.000  18.761  0.00  0.00    +0.000 A 
ATOM     12  C   UNL     1       3.613   1.755  18.090  0.00  0.00    +0.000 A 
ATOM     13  C   UNL     1       4.286   2.815  17.461  0.00  0.00    +0.000 A 
ATOM     14  C   UNL     1       3.920   4.184  17.674  0.00  0.00    +0.000 A 
ENDBRANCH   2   4
BRANCH   2  15
ATOM     15  N   UNL     1       7.084   5.220  16.044  0.00  0.00    +0.000 N 
ATOM     16  C   UNL     1       7.323   5.629  17.385  0.00  0.00    +0.000 A 
ATOM     17  N   UNL     1       7.333   4.763  18.374  0.00  0.00    +0.000 NA
ATOM     18  N   UNL     1       7.653   5.432  19.529  0.00  0.00    +0.000 NA
ATOM     19  C   UNL     1       7.812   6.696  19.218  0.00  0.00    +0.000 A 
ATOM     20  N   UNL     1       7.625   6.872  17.880  0.00  0.00    +0.000 N 
ATOM     21  H   UNL     1       7.608   5.762  15.355  0.00  0.00    +0.000 HD
BRANCH  20  22
ATOM     22  C   UNL     1       7.520   8.149  17.211  0.00  0.00    +0.000 C 
BRANCH  22  23
ATOM     23  C   UNL     1       8.258   9.245  17.917  0.00  0.00    +0.000 A 
ATOM     24  C   UNL     1       8.225  10.563  17.398  0.00  0.00    +0.000 A 
ATOM     25  C   UNL     1       8.833  11.615  18.090  0.00  0.00    +0.000 A 
ATOM     26  C   UNL     1       9.492  11.376  19.294  0.00  0.00    +0.000 A 
ATOM     27  C   UNL     1       9.547  10.085  19.810  0.00  0.00    +0.000 A 
ATOM     28  C   UNL     1       8.937   9.030  19.123  0.00  0.00    +0.000 A 
ENDBRANCH  22  23
ENDBRANCH  20  22
ENDBRANCH   2  15
TORSDOF 4
ENDMDL
