MODEL 1
REMARK VINA RESULT:      -8.3      0.000      0.000
REMARK  Name = 
REMARK  6 active torsions:
REMARK  status: ('A' for Active; 'I' for Inactive)
REMARK    1  A    between atoms: C_1  and  C_2
REMARK    2  A    between atoms: N_5  and  C_6
REMARK    3  A    between atoms: C_9  and  C_10
REMARK    4  A    between atoms: N_12  and  C_13
REMARK    5  A    between atoms: C_16  and  C_17
REMARK    6  A    between atoms: C_22  and  C_23
REMARK                            x       y       z     vdW  Elec       q    Type
REMARK                         _______ _______ _______ _____ _____    ______ ____
ROOT
ATOM      1  C   UNL     1      -0.460  10.354  20.064  0.00  0.00    +0.000 C 
ATOM      2  O   UNL     1      -1.121   9.996  19.095  0.00  0.00    +0.000 OA
ATOM      3  N   UNL     1       0.716   9.778  20.516  0.00  0.00    +0.000 N 
ATOM      4  H   UNL     1       0.999   9.984  21.466  0.00  0.00    +0.000 HD
ENDROOT
BRANCH   1   8
ATOM      5  C   UNL     1      -2.028  13.483  22.547  0.00  0.00    +0.000 A 
ATOM      6  C   UNL     1      -1.177  12.507  23.077  0.00  0.00    +0.000 A 
ATOM      7  C   UNL     1      -0.668  11.500  22.252  0.00  0.00    +0.000 A 
ATOM      8  C   UNL     1      -0.989  11.470  20.891  0.00  0.00    +0.000 A 
ATOM      9  C   UNL     1      -1.840  12.443  20.354  0.00  0.00    +0.000 A 
ATOM     10  C   UNL     1      -2.354  13.447  21.179  0.00  0.00    +0.000 A 
BRANCH   5  15
ATOM     11  C   UNL     1      -5.393  16.493  24.272  0.00  0.00    +0.000 C 
ATOM     12  C   UNL     1      -4.072  15.832  24.141  0.00  0.00    +0.000 A 
ATOM     13  C   UNL     1      -2.932  16.016  24.944  0.00  0.00    +0.000 A 
ATOM     14  C   UNL     1      -1.995  15.154  24.427  0.00  0.00    +0.000 A 
ATOM     15  N   UNL     1      -2.588  14.498  23.370  0.00  0.00    +0.000 N 
ATOM     16  N   UNL     1      -3.862  14.930  23.178  0.00  0.00    +0.000 NA
ENDBRANCH   5  15
ENDBRANCH   1   8
BRANCH   3  17
ATOM     17  C   UNL     1       1.408   8.737  19.866  0.00  0.00    +0.000 A 
ATOM     18  C   UNL     1       1.775   8.808  18.522  0.00  0.00    +0.000 A 
ATOM     19  C   UNL     1       2.368   7.716  17.891  0.00  0.00    +0.000 A 
ATOM     20  C   UNL     1       2.498   6.508  18.574  0.00  0.00    +0.000 A 
ATOM     21  C   UNL     1       2.254   6.465  19.949  0.00  0.00    +0.000 A 
ATOM     22  C   UNL     1       1.727   7.588  20.600  0.00  0.00    +0.000 A 
BRANCH  20  23
ATOM     23  C   UNL     1       2.847   5.251  17.861  0.00  0.00    +0.000 C 
ATOM     24  O   UNL     1       1.922   4.492  17.574  0.00  0.00    +0.000 OA
ATOM     25  N   UNL     1       4.179   5.010  17.497  0.00  0.00    +0.000 N 
ATOM     26  C   UNL     1       5.330   5.880  17.774  0.00  0.00    +0.000 C 
ATOM     27  C   UNL     1       6.191   6.123  16.546  0.00  0.00    +0.000 C 
ATOM     28  C   UNL     1       6.570   4.828  15.830  0.00  0.00    +0.000 C 
ATOM     29  C   UNL     1       7.290   5.166  14.526  0.00  0.00    +0.000 C 
ATOM     30  C   UNL     1       5.323   3.972  15.572  0.00  0.00    +0.000 C 
ATOM     31  C   UNL     1       4.516   3.745  16.852  0.00  0.00    +0.000 C 
ENDBRANCH  20  23
ENDBRANCH   3  17
TORSDOF 4
ENDMDL
MODEL 2
REMARK VINA RESULT:      -8.2      7.973      9.638
REMARK  Name = 
REMARK  6 active torsions:
REMARK  status: ('A' for Active; 'I' for Inactive)
REMARK    1  A    between atoms: C_1  and  C_2
REMARK    2  A    between atoms: N_5  and  C_6
REMARK    3  A    between atoms: C_9  and  C_10
REMARK    4  A    between atoms: N_12  and  C_13
REMARK    5  A    between atoms: C_16  and  C_17
REMARK    6  A    between atoms: C_22  and  C_23
REMARK                            x       y       z     vdW  Elec       q    Type
REMARK                         _______ _______ _______ _____ _____    ______ ____
ROOT
ATOM      1  C   UNL     1       8.267   8.627  18.296  0.00  0.00    +0.000 C 
ATOM      2  O   UNL     1       8.791   7.811  19.046  0.00  0.00    +0.000 OA
ATOM      3  N   UNL     1       7.291   8.364  17.348  0.00  0.00    +0.000 N 
ATOM      4  H   UNL     1       7.154   9.053  16.619  0.00  0.00    +0.000 HD
ENDROOT
BRANCH   1   8
ATOM      5  C   UNL     1       9.688  12.676  18.284  0.00  0.00    +0.000 A 
ATOM      6  C   UNL     1       8.556  12.312  17.545  0.00  0.00    +0.000 A 
ATOM      7  C   UNL     1       8.101  10.991  17.568  0.00  0.00    +0.000 A 
ATOM      8  C   UNL     1       8.760  10.029  18.339  0.00  0.00    +0.000 A 
ATOM      9  C   UNL     1       9.892  10.385  19.081  0.00  0.00    +0.000 A 
ATOM     10  C   UNL     1      10.352  11.705  19.055  0.00  0.00    +0.000 A 
BRANCH   5  15
ATOM     11  C   UNL     1       9.563  17.507  18.257  0.00  0.00    +0.000 C 
ATOM     12  C   UNL     1      10.146  16.143  18.240  0.00  0.00    +0.000 A 
ATOM     13  C   UNL     1      11.506  15.786  18.265  0.00  0.00    +0.000 A 
ATOM     14  C   UNL     1      11.509  14.412  18.266  0.00  0.00    +0.000 A 
ATOM     15  N   UNL     1      10.192  14.005  18.251  0.00  0.00    +0.000 N 
ATOM     16  N   UNL     1       9.350  15.071  18.213  0.00  0.00    +0.000 NA
ENDBRANCH   5  15
ENDBRANCH   1   8
BRANCH   3  17
ATOM     17  C   UNL     1       6.660   7.119  17.161  0.00  0.00    +0.000 A 
ATOM     18  C   UNL     1       5.766   6.882  16.115  0.00  0.00    +0.000 A 
ATOM     19  C   UNL     1       5.087   5.669  16.026  0.00  0.00    +0.000 A 
ATOM     20  C   UNL     1       5.215   4.725  17.044  0.00  0.00    +0.000 A 
ATOM     21  C   UNL     1       6.199   4.898  18.022  0.00  0.00    +0.000 A 
ATOM     22  C   UNL     1       6.936   6.089  18.068  0.00  0.00    +0.000 A 
BRANCH  20  23
ATOM     23  C   UNL     1       4.297   3.561  17.139  0.00  0.00    +0.000 C 
ATOM     24  O   UNL     1       4.606   2.548  16.512  0.00  0.00    +0.000 OA
ATOM     25  N   UNL     1       3.168   3.637  17.968  0.00  0.00    +0.000 N 
ATOM     26  C   UNL     1       2.751   4.795  18.768  0.00  0.00    +0.000 C 
ATOM     27  C   UNL     1       2.420   4.427  20.205  0.00  0.00    +0.000 C 
ATOM     28  C   UNL     1       1.454   3.247  20.300  0.00  0.00    +0.000 C 
ATOM     29  C   UNL     1       1.303   2.838  21.764  0.00  0.00    +0.000 C 
ATOM     30  C   UNL     1       1.952   2.076  19.442  0.00  0.00    +0.000 C 
ATOM     31  C   UNL     1       2.242   2.509  18.003  0.00  0.00    +0.000 C 
ENDBRANCH  20  23
ENDBRANCH   3  17
TORSDOF 4
ENDMDL
MODEL 3
REMARK VINA RESULT:      -8.2      1.059      1.547
REMARK  Name = 
REMARK  6 active torsions:
REMARK  status: ('A' for Active; 'I' for Inactive)
REMARK    1  A    between atoms: C_1  and  C_2
REMARK    2  A    between atoms: N_5  and  C_6
REMARK    3  A    between atoms: C_9  and  C_10
REMARK    4  A    between atoms: N_12  and  C_13
REMARK    5  A    between atoms: C_16  and  C_17
REMARK    6  A    between atoms: C_22  and  C_23
REMARK                            x       y       z     vdW  Elec       q    Type
REMARK                         _______ _______ _______ _____ _____    ______ ____
ROOT
ATOM      1  C   UNL     1       0.123  10.508  20.351  0.00  0.00    +0.000 C 
ATOM      2  O   UNL     1      -0.223  10.601  19.178  0.00  0.00    +0.000 OA
ATOM      3  N   UNL     1       0.915   9.511  20.898  0.00  0.00    +0.000 N 
ATOM      4  H   UNL     1       0.890   9.397  21.904  0.00  0.00    +0.000 HD
ENDROOT
BRANCH   1   8
ATOM      5  C   UNL     1      -1.269  13.438  23.161  0.00  0.00    +0.000 A 
ATOM      6  C   UNL     1      -0.321  13.773  22.186  0.00  0.00    +0.000 A 
ATOM      7  C   UNL     1       0.114  12.809  21.273  0.00  0.00    +0.000 A 
ATOM      8  C   UNL     1      -0.404  11.511  21.314  0.00  0.00    +0.000 A 
ATOM      9  C   UNL     1      -1.351  11.168  22.286  0.00  0.00    +0.000 A 
ATOM     10  C   UNL     1      -1.783  12.130  23.203  0.00  0.00    +0.000 A 
BRANCH   5  15
ATOM     11  C   UNL     1      -0.890  16.885  26.527  0.00  0.00    +0.000 C 
ATOM     12  C   UNL     1      -1.544  15.917  25.613  0.00  0.00    +0.000 A 
ATOM     13  C   UNL     1      -2.921  15.731  25.395  0.00  0.00    +0.000 A 
ATOM     14  C   UNL     1      -2.996  14.745  24.441  0.00  0.00    +0.000 A 
ATOM     15  N   UNL     1      -1.702  14.390  24.124  0.00  0.00    +0.000 N 
ATOM     16  N   UNL     1      -0.805  15.095  24.861  0.00  0.00    +0.000 NA
ENDBRANCH   5  15
ENDBRANCH   1   8
BRANCH   3  17
ATOM     17  C   UNL     1       1.545   8.486  20.165  0.00  0.00    +0.000 A 
ATOM     18  C   UNL     1       1.933   8.648  18.834  0.00  0.00    +0.000 A 
ATOM     19  C   UNL     1       2.461   7.578  18.115  0.00  0.00    +0.000 A 
ATOM     20  C   UNL     1       2.504   6.310  18.691  0.00  0.00    +0.000 A 
ATOM     21  C   UNL     1       2.240   6.165  20.056  0.00  0.00    +0.000 A 
ATOM     22  C   UNL     1       1.779   7.260  20.799  0.00  0.00    +0.000 A 
BRANCH  20  23
ATOM     23  C   UNL     1       2.778   5.099  17.874  0.00  0.00    +0.000 C 
ATOM     24  O   UNL     1       1.809   4.427  17.521  0.00  0.00    +0.000 OA
ATOM     25  N   UNL     1       4.096   4.806  17.494  0.00  0.00    +0.000 N 
ATOM     26  C   UNL     1       5.296   5.573  17.849  0.00  0.00    +0.000 C 
ATOM     27  C   UNL     1       6.181   5.866  16.648  0.00  0.00    +0.000 C 
ATOM     28  C   UNL     1       6.484   4.614  15.825  0.00  0.00    +0.000 C 
ATOM     29  C   UNL     1       7.234   5.017  14.557  0.00  0.00    +0.000 C 
ATOM     30  C   UNL     1       5.187   3.864  15.491  0.00  0.00    +0.000 C 
ATOM     31  C   UNL     1       4.357   3.581  16.745  0.00  0.00    +0.000 C 
ENDBRANCH  20  23
ENDBRANCH   3  17
TORSDOF 4
ENDMDL
MODEL 4
REMARK VINA RESULT:      -8.1      2.185      3.017
REMARK  Name = 
REMARK  6 active torsions:
REMARK  status: ('A' for Active; 'I' for Inactive)
REMARK    1  A    between atoms: C_1  and  C_2
REMARK    2  A    between atoms: N_5  and  C_6
REMARK    3  A    between atoms: C_9  and  C_10
REMARK    4  A    between atoms: N_12  and  C_13
REMARK    5  A    between atoms: C_16  and  C_17
REMARK    6  A    between atoms: C_22  and  C_23
REMARK                            x       y       z     vdW  Elec       q    Type
REMARK                         _______ _______ _______ _____ _____    ______ ____
ROOT
ATOM      1  C   UNL     1      -0.221  11.194  21.143  0.00  0.00    +0.000 C 
ATOM      2  O   UNL     1       0.821  11.555  21.680  0.00  0.00    +0.000 OA
ATOM      3  N   UNL     1      -0.340  10.272  20.115  0.00  0.00    +0.000 N 
ATOM      4  H   UNL     1      -1.202  10.277  19.584  0.00  0.00    +0.000 HD
ENDROOT
BRANCH   1   8
ATOM      5  C   UNL     1      -3.903  12.964  22.455  0.00  0.00    +0.000 A 
ATOM      6  C   UNL     1      -3.006  12.411  23.377  0.00  0.00    +0.000 A 
ATOM      7  C   UNL     1      -1.807  11.847  22.933  0.00  0.00    +0.000 A 
ATOM      8  C   UNL     1      -1.487  11.846  21.572  0.00  0.00    +0.000 A 
ATOM      9  C   UNL     1      -2.379  12.396  20.645  0.00  0.00    +0.000 A 
ATOM     10  C   UNL     1      -3.581  12.956  21.087  0.00  0.00    +0.000 A 
BRANCH   5  15
ATOM     11  C   UNL     1      -7.220  16.366  23.338  0.00  0.00    +0.000 C 
ATOM     12  C   UNL     1      -6.620  15.012  23.268  0.00  0.00    +0.000 A 
ATOM     13  C   UNL     1      -7.230  13.781  23.570  0.00  0.00    +0.000 A 
ATOM     14  C   UNL     1      -6.265  12.838  23.315  0.00  0.00    +0.000 A 
ATOM     15  N   UNL     1      -5.146  13.513  22.876  0.00  0.00    +0.000 N 
ATOM     16  N   UNL     1      -5.355  14.855  22.868  0.00  0.00    +0.000 NA
ENDBRANCH   5  15
ENDBRANCH   1   8
BRANCH   3  17
ATOM     17  C   UNL     1       0.721   9.514  19.582  0.00  0.00    +0.000 A 
ATOM     18  C   UNL     1       1.208   9.713  18.290  0.00  0.00    +0.000 A 
ATOM     19  C   UNL     1       2.190   8.875  17.766  0.00  0.00    +0.000 A 
ATOM     20  C   UNL     1       2.613   7.764  18.494  0.00  0.00    +0.000 A 
ATOM     21  C   UNL     1       2.229   7.630  19.832  0.00  0.00    +0.000 A 
ATOM     22  C   UNL     1       1.296   8.519  20.382  0.00  0.00    +0.000 A 
BRANCH  20  23
ATOM     23  C   UNL     1       3.428   6.692  17.865  0.00  0.00    +0.000 C 
ATOM     24  O   UNL     1       4.594   6.965  17.581  0.00  0.00    +0.000 OA
ATOM     25  N   UNL     1       2.869   5.420  17.676  0.00  0.00    +0.000 N 
ATOM     26  C   UNL     1       1.501   5.010  18.017  0.00  0.00    +0.000 C 
ATOM     27  C   UNL     1       1.456   3.706  18.797  0.00  0.00    +0.000 C 
ATOM     28  C   UNL     1       2.272   2.598  18.133  0.00  0.00    +0.000 C 
ATOM     29  C   UNL     1       2.311   1.382  19.056  0.00  0.00    +0.000 C 
ATOM     30  C   UNL     1       3.688   3.096  17.807  0.00  0.00    +0.000 C 
ATOM     31  C   UNL     1       3.660   4.396  17.001  0.00  0.00    +0.000 C 
ENDBRANCH  20  23
ENDBRANCH   3  17
TORSDOF 4
ENDMDL
MODEL 5
REMARK VINA RESULT:      -8.1      1.800     11.911
REMARK  Name = 
REMARK  6 active torsions:
REMARK  status: ('A' for Active; 'I' for Inactive)
REMARK    1  A    between atoms: C_1  and  C_2
REMARK    2  A    between atoms: N_5  and  C_6
REMARK    3  A    between atoms: C_9  and  C_10
REMARK    4  A    between atoms: N_12  and  C_13
REMARK    5  A    between atoms: C_16  and  C_17
REMARK    6  A    between atoms: C_22  and  C_23
REMARK                            x       y       z     vdW  Elec       q    Type
REMARK                         _______ _______ _______ _____ _____    ______ ____
ROOT
ATOM      1  C   UNL     1       0.557   9.915  19.602  0.00  0.00    +0.000 C 
ATOM      2  O   UNL     1      -0.355  10.274  18.865  0.00  0.00    +0.000 OA
ATOM      3  N   UNL     1       0.884  10.462  20.832  0.00  0.00    +0.000 N 
ATOM      4  H   UNL     1       1.808  10.267  21.197  0.00  0.00    +0.000 HD
ENDROOT
BRANCH   1   8
ATOM      5  C   UNL     1       3.224   6.804  18.327  0.00  0.00    +0.000 A 
ATOM      6  C   UNL     1       2.591   6.739  19.574  0.00  0.00    +0.000 A 
ATOM      7  C   UNL     1       1.718   7.755  19.969  0.00  0.00    +0.000 A 
ATOM      8  C   UNL     1       1.457   8.835  19.119  0.00  0.00    +0.000 A 
ATOM      9  C   UNL     1       2.087   8.907  17.872  0.00  0.00    +0.000 A 
ATOM     10  C   UNL     1       2.964   7.894  17.477  0.00  0.00    +0.000 A 
BRANCH   5  15
ATOM     11  C   UNL     1       7.507   4.672  17.645  0.00  0.00    +0.000 C 
ATOM     12  C   UNL     1       6.035   4.850  17.611  0.00  0.00    +0.000 A 
ATOM     13  C   UNL     1       5.064   3.929  17.177  0.00  0.00    +0.000 A 
ATOM     14  C   UNL     1       3.863   4.564  17.377  0.00  0.00    +0.000 A 
ATOM     15  N   UNL     1       4.144   5.801  17.915  0.00  0.00    +0.000 N 
ATOM     16  N   UNL     1       5.484   5.989  18.040  0.00  0.00    +0.000 NA
ENDBRANCH   5  15
ENDBRANCH   1   8
BRANCH   3  17
ATOM     17  C   UNL     1       0.147  11.466  21.492  0.00  0.00    +0.000 A 
ATOM     18  C   UNL     1       0.338  12.825  21.235  0.00  0.00    +0.000 A 
ATOM     19  C   UNL     1      -0.338  13.788  21.981  0.00  0.00    +0.000 A 
ATOM     20  C   UNL     1      -1.129  13.399  23.062  0.00  0.00    +0.000 A 
ATOM     21  C   UNL     1      -1.426  12.046  23.245  0.00  0.00    +0.000 A 
ATOM     22  C   UNL     1      -0.803  11.079  22.445  0.00  0.00    +0.000 A 
BRANCH  20  23
ATOM     23  C   UNL     1      -1.624  14.390  24.052  0.00  0.00    +0.000 C 
ATOM     24  O   UNL     1      -0.782  14.968  24.739  0.00  0.00    +0.000 OA
ATOM     25  N   UNL     1      -2.997  14.666  24.126  0.00  0.00    +0.000 N 
ATOM     26  C   UNL     1      -4.055  14.043  23.322  0.00  0.00    +0.000 C 
ATOM     27  C   UNL     1      -5.003  15.062  22.708  0.00  0.00    +0.000 C 
ATOM     28  C   UNL     1      -5.531  16.062  23.734  0.00  0.00    +0.000 C 
ATOM     29  C   UNL     1      -6.337  17.142  23.014  0.00  0.00    +0.000 C 
ATOM     30  C   UNL     1      -4.373  16.673  24.535  0.00  0.00    +0.000 C 
ATOM     31  C   UNL     1      -3.475  15.595  25.145  0.00  0.00    +0.000 C 
ENDBRANCH  20  23
ENDBRANCH   3  17
TORSDOF 4
ENDMDL
MODEL 6
REMARK VINA RESULT:      -8.1      7.944      9.466
REMARK  Name = 
REMARK  6 active torsions:
REMARK  status: ('A' for Active; 'I' for Inactive)
REMARK    1  A    between atoms: C_1  and  C_2
REMARK    2  A    between atoms: N_5  and  C_6
REMARK    3  A    between atoms: C_9  and  C_10
REMARK    4  A    between atoms: N_12  and  C_13
REMARK    5  A    between atoms: C_16  and  C_17
REMARK    6  A    between atoms: C_22  and  C_23
REMARK                            x       y       z     vdW  Elec       q    Type
REMARK                         _______ _______ _______ _____ _____    ______ ____
ROOT
ATOM      1  C   UNL     1       8.278   8.588  18.389  0.00  0.00    +0.000 C 
ATOM      2  O   UNL     1       8.782   7.726  19.099  0.00  0.00    +0.000 OA
ATOM      3  N   UNL     1       7.298   8.394  17.428  0.00  0.00    +0.000 N 
ATOM      4  H   UNL     1       7.177   9.120  16.734  0.00  0.00    +0.000 HD
ENDROOT
BRANCH   1   8
ATOM      5  C   UNL     1       9.754  12.593  18.841  0.00  0.00    +0.000 A 
ATOM      6  C   UNL     1      10.117  11.589  19.746  0.00  0.00    +0.000 A 
ATOM      7  C   UNL     1       9.635  10.288  19.578  0.00  0.00    +0.000 A 
ATOM      8  C   UNL     1       8.802   9.975  18.500  0.00  0.00    +0.000 A 
ATOM      9  C   UNL     1       8.434  10.974  17.591  0.00  0.00    +0.000 A 
ATOM     10  C   UNL     1       8.911  12.277  17.760  0.00  0.00    +0.000 A 
BRANCH   5  15
ATOM     11  C   UNL     1       9.764  17.130  20.503  0.00  0.00    +0.000 C 
ATOM     12  C   UNL     1      10.215  15.941  19.740  0.00  0.00    +0.000 A 
ATOM     13  C   UNL     1      11.375  15.807  18.957  0.00  0.00    +0.000 A 
ATOM     14  C   UNL     1      11.341  14.514  18.496  0.00  0.00    +0.000 A 
ATOM     15  N   UNL     1      10.202  13.932  19.008  0.00  0.00    +0.000 N 
ATOM     16  N   UNL     1       9.493  14.817  19.757  0.00  0.00    +0.000 NA
ENDBRANCH   5  15
ENDBRANCH   1   8
BRANCH   3  17
ATOM     17  C   UNL     1       6.639   7.173  17.182  0.00  0.00    +0.000 A 
ATOM     18  C   UNL     1       5.506   7.084  16.372  0.00  0.00    +0.000 A 
ATOM     19  C   UNL     1       4.825   5.876  16.236  0.00  0.00    +0.000 A 
ATOM     20  C   UNL     1       5.211   4.774  16.997  0.00  0.00    +0.000 A 
ATOM     21  C   UNL     1       6.414   4.816  17.708  0.00  0.00    +0.000 A 
ATOM     22  C   UNL     1       7.139   6.012  17.784  0.00  0.00    +0.000 A 
BRANCH  20  23
ATOM     23  C   UNL     1       4.348   3.570  17.106  0.00  0.00    +0.000 C 
ATOM     24  O   UNL     1       4.715   2.558  16.508  0.00  0.00    +0.000 OA
ATOM     25  N   UNL     1       3.203   3.611  17.915  0.00  0.00    +0.000 N 
ATOM     26  C   UNL     1       2.719   4.766  18.681  0.00  0.00    +0.000 C 
ATOM     27  C   UNL     1       2.382   4.416  20.121  0.00  0.00    +0.000 C 
ATOM     28  C   UNL     1       1.472   3.194  20.229  0.00  0.00    +0.000 C 
ATOM     29  C   UNL     1       1.317   2.811  21.700  0.00  0.00    +0.000 C 
ATOM     30  C   UNL     1       2.039   2.028  19.407  0.00  0.00    +0.000 C 
ATOM     31  C   UNL     1       2.332   2.441  17.964  0.00  0.00    +0.000 C 
ENDBRANCH  20  23
ENDBRANCH   3  17
TORSDOF 4
ENDMDL
MODEL 7
REMARK VINA RESULT:      -8.1      1.246      1.322
REMARK  Name = 
REMARK  6 active torsions:
REMARK  status: ('A' for Active; 'I' for Inactive)
REMARK    1  A    between atoms: C_1  and  C_2
REMARK    2  A    between atoms: N_5  and  C_6
REMARK    3  A    between atoms: C_9  and  C_10
REMARK    4  A    between atoms: N_12  and  C_13
REMARK    5  A    between atoms: C_16  and  C_17
REMARK    6  A    between atoms: C_22  and  C_23
REMARK                            x       y       z     vdW  Elec       q    Type
REMARK                         _______ _______ _______ _____ _____    ______ ____
ROOT
ATOM      1  C   UNL     1       0.708  10.028  21.655  0.00  0.00    +0.000 C 
ATOM      2  O   UNL     1       1.459   9.558  22.503  0.00  0.00    +0.000 OA
ATOM      3  N   UNL     1       0.655   9.674  20.316  0.00  0.00    +0.000 N 
ATOM      4  H   UNL     1       0.202  10.320  19.682  0.00  0.00    +0.000 HD
ENDROOT
BRANCH   1   8
ATOM      5  C   UNL     1      -2.003  13.146  22.816  0.00  0.00    +0.000 A 
ATOM      6  C   UNL     1      -2.066  11.882  23.415  0.00  0.00    +0.000 A 
ATOM      7  C   UNL     1      -1.169  10.881  23.032  0.00  0.00    +0.000 A 
ATOM      8  C   UNL     1      -0.194  11.137  22.062  0.00  0.00    +0.000 A 
ATOM      9  C   UNL     1      -0.126  12.398  21.458  0.00  0.00    +0.000 A 
ATOM     10  C   UNL     1      -1.026  13.399  21.837  0.00  0.00    +0.000 A 
BRANCH   5  15
ATOM     11  C   UNL     1      -3.999  17.547  22.832  0.00  0.00    +0.000 C 
ATOM     12  C   UNL     1      -3.816  16.115  23.173  0.00  0.00    +0.000 A 
ATOM     13  C   UNL     1      -4.651  15.303  23.961  0.00  0.00    +0.000 A 
ATOM     14  C   UNL     1      -4.057  14.065  23.942  0.00  0.00    +0.000 A 
ATOM     15  N   UNL     1      -2.925  14.171  23.162  0.00  0.00    +0.000 N 
ATOM     16  N   UNL     1      -2.763  15.440  22.705  0.00  0.00    +0.000 NA
ENDBRANCH   5  15
ENDBRANCH   1   8
BRANCH   3  17
ATOM     17  C   UNL     1       1.393   8.629  19.727  0.00  0.00    +0.000 A 
ATOM     18  C   UNL     1       1.829   8.675  18.402  0.00  0.00    +0.000 A 
ATOM     19  C   UNL     1       2.469   7.579  17.828  0.00  0.00    +0.000 A 
ATOM     20  C   UNL     1       2.578   6.388  18.543  0.00  0.00    +0.000 A 
ATOM     21  C   UNL     1       2.263   6.371  19.905  0.00  0.00    +0.000 A 
ATOM     22  C   UNL     1       1.688   7.501  20.502  0.00  0.00    +0.000 A 
BRANCH  20  23
ATOM     23  C   UNL     1       2.980   5.121  17.879  0.00  0.00    +0.000 C 
ATOM     24  O   UNL     1       2.093   4.298  17.653  0.00  0.00    +0.000 OA
ATOM     25  N   UNL     1       4.314   4.939  17.487  0.00  0.00    +0.000 N 
ATOM     26  C   UNL     1       5.419   5.883  17.692  0.00  0.00    +0.000 C 
ATOM     27  C   UNL     1       6.233   6.117  16.430  0.00  0.00    +0.000 C 
ATOM     28  C   UNL     1       6.667   4.813  15.763  0.00  0.00    +0.000 C 
ATOM     29  C   UNL     1       7.332   5.131  14.425  0.00  0.00    +0.000 C 
ATOM     30  C   UNL     1       5.465   3.877  15.580  0.00  0.00    +0.000 C 
ATOM     31  C   UNL     1       4.706   3.665  16.892  0.00  0.00    +0.000 C 
ENDBRANCH  20  23
ENDBRANCH   3  17
TORSDOF 4
ENDMDL
MODEL 8
REMARK VINA RESULT:      -8.0      0.815      1.200
REMARK  Name = 
REMARK  6 active torsions:
REMARK  status: ('A' for Active; 'I' for Inactive)
REMARK    1  A    between atoms: C_1  and  C_2
REMARK    2  A    between atoms: N_5  and  C_6
REMARK    3  A    between atoms: C_9  and  C_10
REMARK    4  A    between atoms: N_12  and  C_13
REMARK    5  A    between atoms: C_16  and  C_17
REMARK    6  A    between atoms: C_22  and  C_23
REMARK                            x       y       z     vdW  Elec       q    Type
REMARK                         _______ _______ _______ _____ _____    ______ ____
ROOT
ATOM      1  C   UNL     1      -0.520  10.603  19.881  0.00  0.00    +0.000 C 
ATOM      2  O   UNL     1      -1.244  10.115  19.020  0.00  0.00    +0.000 OA
ATOM      3  N   UNL     1       0.707  10.114  20.298  0.00  0.00    +0.000 N 
ATOM      4  H   UNL     1       1.059  10.441  21.189  0.00  0.00    +0.000 HD
ENDROOT
BRANCH   1   8
ATOM      5  C   UNL     1      -1.905  14.131  21.894  0.00  0.00    +0.000 A 
ATOM      6  C   UNL     1      -2.168  13.933  20.533  0.00  0.00    +0.000 A 
ATOM      7  C   UNL     1      -1.718  12.774  19.895  0.00  0.00    +0.000 A 
ATOM      8  C   UNL     1      -1.019  11.798  20.612  0.00  0.00    +0.000 A 
ATOM      9  C   UNL     1      -0.752  11.989  21.973  0.00  0.00    +0.000 A 
ATOM     10  C   UNL     1      -1.197  13.151  22.611  0.00  0.00    +0.000 A 
BRANCH   5  15
ATOM     11  C   UNL     1      -4.347  16.875  25.034  0.00  0.00    +0.000 C 
ATOM     12  C   UNL     1      -3.397  16.539  23.946  0.00  0.00    +0.000 A 
ATOM     13  C   UNL     1      -2.514  17.403  23.274  0.00  0.00    +0.000 A 
ATOM     14  C   UNL     1      -1.841  16.597  22.388  0.00  0.00    +0.000 A 
ATOM     15  N   UNL     1      -2.321  15.317  22.559  0.00  0.00    +0.000 N 
ATOM     16  N   UNL     1      -3.297  15.282  23.504  0.00  0.00    +0.000 NA
ENDBRANCH   5  15
ENDBRANCH   1   8
BRANCH   3  17
ATOM     17  C   UNL     1       1.380   9.020  19.720  0.00  0.00    +0.000 A 
ATOM     18  C   UNL     1       1.791   9.014  18.386  0.00  0.00    +0.000 A 
ATOM     19  C   UNL     1       2.362   7.873  17.826  0.00  0.00    +0.000 A 
ATOM     20  C   UNL     1       2.426   6.694  18.568  0.00  0.00    +0.000 A 
ATOM     21  C   UNL     1       2.138   6.726  19.936  0.00  0.00    +0.000 A 
ATOM     22  C   UNL     1       1.633   7.897  20.516  0.00  0.00    +0.000 A 
BRANCH  20  23
ATOM     23  C   UNL     1       2.750   5.394  17.926  0.00  0.00    +0.000 C 
ATOM     24  O   UNL     1       1.810   4.636  17.686  0.00  0.00    +0.000 OA
ATOM     25  N   UNL     1       4.076   5.109  17.572  0.00  0.00    +0.000 N 
ATOM     26  C   UNL     1       5.243   5.972  17.796  0.00  0.00    +0.000 C 
ATOM     27  C   UNL     1       6.103   6.131  16.553  0.00  0.00    +0.000 C 
ATOM     28  C   UNL     1       6.456   4.791  15.910  0.00  0.00    +0.000 C 
ATOM     29  C   UNL     1       7.176   5.043  14.587  0.00  0.00    +0.000 C 
ATOM     30  C   UNL     1       5.193   3.944  15.705  0.00  0.00    +0.000 C 
ATOM     31  C   UNL     1       4.388   3.804  16.999  0.00  0.00    +0.000 C 
ENDBRANCH  20  23
ENDBRANCH   3  17
TORSDOF 4
ENDMDL
MODEL 9
REMARK VINA RESULT:      -8.0      2.193      3.059
REMARK  Name = 
REMARK  6 active torsions:
REMARK  status: ('A' for Active; 'I' for Inactive)
REMARK    1  A    between atoms: C_1  and  C_2
REMARK    2  A    between atoms: N_5  and  C_6
REMARK    3  A    between atoms: C_9  and  C_10
REMARK    4  A    between atoms: N_12  and  C_13
REMARK    5  A    between atoms: C_16  and  C_17
REMARK    6  A    between atoms: C_22  and  C_23
REMARK                            x       y       z     vdW  Elec       q    Type
REMARK                         _______ _______ _______ _____ _____    ______ ____
ROOT
ATOM      1  C   UNL     1      -0.430  11.318  21.183  0.00  0.00    +0.000 C 
ATOM      2  O   UNL     1       0.610  11.871  21.523  0.00  0.00    +0.000 OA
ATOM      3  N   UNL     1      -0.547  10.261  20.294  0.00  0.00    +0.000 N 
ATOM      4  H   UNL     1      -1.461  10.090  19.893  0.00  0.00    +0.000 HD
ENDROOT
BRANCH   1   8
ATOM      5  C   UNL     1      -4.098  13.004  22.638  0.00  0.00    +0.000 A 
ATOM      6  C   UNL     1      -3.755  13.095  21.284  0.00  0.00    +0.000 A 
ATOM      7  C   UNL     1      -2.562  12.532  20.825  0.00  0.00    +0.000 A 
ATOM      8  C   UNL     1      -1.711  11.860  21.709  0.00  0.00    +0.000 A 
ATOM      9  C   UNL     1      -2.046  11.765  23.064  0.00  0.00    +0.000 A 
ATOM     10  C   UNL     1      -3.238  12.333  23.525  0.00  0.00    +0.000 A 
BRANCH   5  15
ATOM     11  C   UNL     1      -7.443  16.424  23.321  0.00  0.00    +0.000 C 
ATOM     12  C   UNL     1      -6.776  15.105  23.444  0.00  0.00    +0.000 A 
ATOM     13  C   UNL     1      -7.249  13.956  24.103  0.00  0.00    +0.000 A 
ATOM     14  C   UNL     1      -6.278  13.007  23.896  0.00  0.00    +0.000 A 
ATOM     15  N   UNL     1      -5.290  13.598  23.137  0.00  0.00    +0.000 N 
ATOM     16  N   UNL     1      -5.584  14.898  22.876  0.00  0.00    +0.000 NA
ENDBRANCH   5  15
ENDBRANCH   1   8
BRANCH   3  17
ATOM     17  C   UNL     1       0.535   9.575  19.708  0.00  0.00    +0.000 A 
ATOM     18  C   UNL     1       0.979   9.845  18.413  0.00  0.00    +0.000 A 
ATOM     19  C   UNL     1       1.985   9.075  17.834  0.00  0.00    +0.000 A 
ATOM     20  C   UNL     1       2.479   7.960  18.508  0.00  0.00    +0.000 A 
ATOM     21  C   UNL     1       2.136   7.758  19.848  0.00  0.00    +0.000 A 
ATOM     22  C   UNL     1       1.177   8.580  20.455  0.00  0.00    +0.000 A 
BRANCH  20  23
ATOM     23  C   UNL     1       3.327   6.953  17.819  0.00  0.00    +0.000 C 
ATOM     24  O   UNL     1       4.198   7.376  17.059  0.00  0.00    +0.000 OA
ATOM     25  N   UNL     1       3.147   5.590  18.098  0.00  0.00    +0.000 N 
ATOM     26  C   UNL     1       2.155   5.012  19.012  0.00  0.00    +0.000 C 
ATOM     27  C   UNL     1       2.760   4.001  19.973  0.00  0.00    +0.000 C 
ATOM     28  C   UNL     1       3.609   2.951  19.258  0.00  0.00    +0.000 C 
ATOM     29  C   UNL     1       4.310   2.079  20.299  0.00  0.00    +0.000 C 
ATOM     30  C   UNL     1       4.622   3.625  18.323  0.00  0.00    +0.000 C 
ATOM     31  C   UNL     1       3.944   4.610  17.368  0.00  0.00    +0.000 C 
ENDBRANCH  20  23
ENDBRANCH   3  17
TORSDOF 4
ENDMDL
