MODEL 1
REMARK VINA RESULT:      -8.8      0.000      0.000
REMARK  Name = 
REMARK  5 active torsions:
REMARK  status: ('A' for Active; 'I' for Inactive)
REMARK    1  A    between atoms: C_2  and  C_19
REMARK    2  A    between atoms: N_3  and  C_4
REMARK    3  A    between atoms: C_4  and  C_5
REMARK    4  A    between atoms: C_8  and  N_9
REMARK    5  A    between atoms: C_10  and  C_12
REMARK                            x       y       z     vdW  Elec       q    Type
REMARK                         _______ _______ _______ _____ _____    ______ ____
ROOT
ATOM      1  C   UNL     1       3.312   5.228  19.551  0.00  0.00    +0.000 C 
ENDROOT
BRANCH   1   2
ATOM      2  C   UNL     1       2.497   6.490  19.595  0.00  0.00    +0.000 A 
ATOM      3  C   UNL     1       2.511   7.370  18.510  0.00  0.00    +0.000 A 
ATOM      4  C   UNL     1       1.903   8.623  18.606  0.00  0.00    +0.000 A 
ATOM      5  C   UNL     1       1.265   9.021  19.783  0.00  0.00    +0.000 A 
ATOM      6  C   UNL     1       1.207   8.119  20.853  0.00  0.00    +0.000 A 
ATOM      7  C   UNL     1       1.823   6.866  20.764  0.00  0.00    +0.000 A 
BRANCH   5   8
ATOM      8  N   UNL     1       0.688  10.291  19.967  0.00  0.00    +0.000 N 
ATOM      9  C   UNL     1      -0.510  10.753  19.439  0.00  0.00    +0.000 C 
ATOM     10  O   UNL     1      -1.262  10.109  18.713  0.00  0.00    +0.000 OA
ATOM     11  H   UNL     1       1.208  10.972  20.507  0.00  0.00    +0.000 HD
BRANCH   9  12
ATOM     12  C   UNL     1      -0.820  12.119  19.813  0.00  0.00    +0.000 A 
ATOM     13  C   UNL     1      -2.021  12.688  20.203  0.00  0.00    +0.000 A 
ATOM     14  C   UNL     1      -1.759  14.049  20.473  0.00  0.00    +0.000 A 
ATOM     15  C   UNL     1      -0.418  14.237  20.226  0.00  0.00    +0.000 A 
ATOM     16  O   UNL     1       0.161  13.077  19.822  0.00  0.00    +0.000 OA
ENDBRANCH   9  12
ENDBRANCH   5   8
ENDBRANCH   1   2
BRANCH   1  19
ATOM     17  O   UNL     1       5.986   4.490  19.133  0.00  0.00    +0.000 OA
ATOM     18  C   UNL     1       5.285   4.760  18.161  0.00  0.00    +0.000 C 
ATOM     19  N   UNL     1       3.982   5.151  18.271  0.00  0.00    +0.000 N 
ATOM     20  H   UNL     1       3.412   5.229  17.441  0.00  0.00    +0.000 HD
BRANCH  18  21
ATOM     21  C   UNL     1       5.787   4.583  16.777  0.00  0.00    +0.000 C 
ATOM     22  C   UNL     1       5.035   4.333  15.683  0.00  0.00    +0.000 C 
ATOM     23  C   UNL     1       5.767   4.262  14.409  0.00  0.00    +0.000 A 
ATOM     24  C   UNL     1       5.302   3.559  13.300  0.00  0.00    +0.000 A 
ATOM     25  C   UNL     1       6.067   3.530  12.125  0.00  0.00    +0.000 A 
ATOM     26  C   UNL     1       7.259   4.256  12.032  0.00  0.00    +0.000 A 
ATOM     27  C   UNL     1       7.720   4.978  13.128  0.00  0.00    +0.000 A 
ATOM     28  C   UNL     1       7.002   4.929  14.316  0.00  0.00    +0.000 A 
ATOM     29  O   UNL     1       7.573   5.523  15.416  0.00  0.00    +0.000 OA
ATOM     30  C   UNL     1       7.272   4.758  16.600  0.00  0.00    +0.000 C 
ENDBRANCH  18  21
ENDBRANCH   1  19
TORSDOF 5
ENDMDL
MODEL 2
REMARK VINA RESULT:      -8.8      1.575      2.035
REMARK  Name = 
REMARK  5 active torsions:
REMARK  status: ('A' for Active; 'I' for Inactive)
REMARK    1  A    between atoms: C_2  and  C_19
REMARK    2  A    between atoms: N_3  and  C_4
REMARK    3  A    between atoms: C_4  and  C_5
REMARK    4  A    between atoms: C_8  and  N_9
REMARK    5  A    between atoms: C_10  and  C_12
REMARK                            x       y       z     vdW  Elec       q    Type
REMARK                         _______ _______ _______ _____ _____    ______ ____
ROOT
ATOM      1  C   UNL     1       3.355   3.808  19.403  0.00  0.00    +0.000 C 
ENDROOT
BRANCH   1   2
ATOM      2  C   UNL     1       2.787   5.122  19.862  0.00  0.00    +0.000 A 
ATOM      3  C   UNL     1       1.912   5.163  20.950  0.00  0.00    +0.000 A 
ATOM      4  C   UNL     1       1.242   6.343  21.277  0.00  0.00    +0.000 A 
ATOM      5  C   UNL     1       1.434   7.507  20.528  0.00  0.00    +0.000 A 
ATOM      6  C   UNL     1       2.350   7.478  19.469  0.00  0.00    +0.000 A 
ATOM      7  C   UNL     1       3.017   6.295  19.133  0.00  0.00    +0.000 A 
BRANCH   5   8
ATOM      8  N   UNL     1       0.745   8.710  20.765  0.00  0.00    +0.000 N 
ATOM      9  C   UNL     1       0.962   9.612  21.797  0.00  0.00    +0.000 C 
ATOM     10  O   UNL     1       1.805   9.492  22.682  0.00  0.00    +0.000 OA
ATOM     11  H   UNL     1      -0.024   8.942  20.150  0.00  0.00    +0.000 HD
BRANCH   9  12
ATOM     12  C   UNL     1       0.072  10.756  21.764  0.00  0.00    +0.000 A 
ATOM     13  C   UNL     1      -0.534  11.386  20.689  0.00  0.00    +0.000 A 
ATOM     14  C   UNL     1      -1.315  12.437  21.220  0.00  0.00    +0.000 A 
ATOM     15  C   UNL     1      -1.137  12.395  22.584  0.00  0.00    +0.000 A 
ATOM     16  O   UNL     1      -0.296  11.385  22.926  0.00  0.00    +0.000 OA
ENDBRANCH   9  12
ENDBRANCH   5   8
ENDBRANCH   1   2
BRANCH   1  19
ATOM     17  O   UNL     1       6.110   4.199  19.049  0.00  0.00    +0.000 OA
ATOM     18  C   UNL     1       5.382   4.169  18.061  0.00  0.00    +0.000 C 
ATOM     19  N   UNL     1       4.029   4.009  18.139  0.00  0.00    +0.000 N 
ATOM     20  H   UNL     1       3.494   3.855  17.296  0.00  0.00    +0.000 HD
BRANCH  18  21
ATOM     21  C   UNL     1       5.944   4.212  16.689  0.00  0.00    +0.000 C 
ATOM     22  C   UNL     1       5.276   3.944  15.546  0.00  0.00    +0.000 C 
ATOM     23  C   UNL     1       6.045   4.118  14.304  0.00  0.00    +0.000 A 
ATOM     24  C   UNL     1       5.737   3.456  13.117  0.00  0.00    +0.000 A 
ATOM     25  C   UNL     1       6.528   3.668  11.979  0.00  0.00    +0.000 A 
ATOM     26  C   UNL     1       7.581   4.587  12.002  0.00  0.00    +0.000 A 
ATOM     27  C   UNL     1       7.882   5.269  13.177  0.00  0.00    +0.000 A 
ATOM     28  C   UNL     1       7.150   4.988  14.324  0.00  0.00    +0.000 A 
ATOM     29  O   UNL     1       7.581   5.562  15.496  0.00  0.00    +0.000 OA
ATOM     30  C   UNL     1       7.383   4.648  16.593  0.00  0.00    +0.000 C 
ENDBRANCH  18  21
ENDBRANCH   1  19
TORSDOF 5
ENDMDL
MODEL 3
REMARK VINA RESULT:      -8.7      0.805      1.124
REMARK  Name = 
REMARK  5 active torsions:
REMARK  status: ('A' for Active; 'I' for Inactive)
REMARK    1  A    between atoms: C_2  and  C_19
REMARK    2  A    between atoms: N_3  and  C_4
REMARK    3  A    between atoms: C_4  and  C_5
REMARK    4  A    between atoms: C_8  and  N_9
REMARK    5  A    between atoms: C_10  and  C_12
REMARK                            x       y       z     vdW  Elec       q    Type
REMARK                         _______ _______ _______ _____ _____    ______ ____
ROOT
ATOM      1  C   UNL     1       3.543   5.483  19.632  0.00  0.00    +0.000 C 
ENDROOT
BRANCH   1   2
ATOM      2  C   UNL     1       2.596   6.650  19.587  0.00  0.00    +0.000 A 
ATOM      3  C   UNL     1       2.615   7.524  18.498  0.00  0.00    +0.000 A 
ATOM      4  C   UNL     1       1.870   8.704  18.523  0.00  0.00    +0.000 A 
ATOM      5  C   UNL     1       1.088   9.034  19.633  0.00  0.00    +0.000 A 
ATOM      6  C   UNL     1       1.031   8.133  20.704  0.00  0.00    +0.000 A 
ATOM      7  C   UNL     1       1.783   6.954  20.686  0.00  0.00    +0.000 A 
BRANCH   5   8
ATOM      8  N   UNL     1       0.364  10.235  19.748  0.00  0.00    +0.000 N 
ATOM      9  C   UNL     1       0.596  11.272  20.640  0.00  0.00    +0.000 C 
ATOM     10  O   UNL     1       1.486  11.299  21.485  0.00  0.00    +0.000 OA
ATOM     11  H   UNL     1      -0.444  10.357  19.151  0.00  0.00    +0.000 HD
BRANCH   9  12
ATOM     12  C   UNL     1      -0.341  12.371  20.507  0.00  0.00    +0.000 A 
ATOM     13  C   UNL     1      -0.112  13.736  20.431  0.00  0.00    +0.000 A 
ATOM     14  C   UNL     1      -1.374  14.353  20.288  0.00  0.00    +0.000 A 
ATOM     15  C   UNL     1      -2.301  13.336  20.292  0.00  0.00    +0.000 A 
ATOM     16  O   UNL     1      -1.688  12.131  20.428  0.00  0.00    +0.000 OA
ENDBRANCH   9  12
ENDBRANCH   5   8
ENDBRANCH   1   2
BRANCH   1  19
ATOM     17  O   UNL     1       5.885   4.026  19.121  0.00  0.00    +0.000 OA
ATOM     18  C   UNL     1       5.349   4.632  18.198  0.00  0.00    +0.000 C 
ATOM     19  N   UNL     1       4.222   5.386  18.358  0.00  0.00    +0.000 N 
ATOM     20  H   UNL     1       3.745   5.751  17.547  0.00  0.00    +0.000 HD
BRANCH  18  21
ATOM     21  C   UNL     1       5.843   4.507  16.805  0.00  0.00    +0.000 C 
ATOM     22  C   UNL     1       5.094   4.226  15.717  0.00  0.00    +0.000 C 
ATOM     23  C   UNL     1       5.813   4.219  14.433  0.00  0.00    +0.000 A 
ATOM     24  C   UNL     1       5.379   3.505  13.319  0.00  0.00    +0.000 A 
ATOM     25  C   UNL     1       6.129   3.541  12.135  0.00  0.00    +0.000 A 
ATOM     26  C   UNL     1       7.272   4.340  12.039  0.00  0.00    +0.000 A 
ATOM     27  C   UNL     1       7.701   5.074  13.140  0.00  0.00    +0.000 A 
ATOM     28  C   UNL     1       7.003   4.963  14.336  0.00  0.00    +0.000 A 
ATOM     29  O   UNL     1       7.550   5.576  15.438  0.00  0.00    +0.000 OA
ATOM     30  C   UNL     1       7.312   4.776  16.613  0.00  0.00    +0.000 C 
ENDBRANCH  18  21
ENDBRANCH   1  19
TORSDOF 5
ENDMDL
MODEL 4
REMARK VINA RESULT:      -8.6      0.923      1.362
REMARK  Name = 
REMARK  5 active torsions:
REMARK  status: ('A' for Active; 'I' for Inactive)
REMARK    1  A    between atoms: C_2  and  C_19
REMARK    2  A    between atoms: N_3  and  C_4
REMARK    3  A    between atoms: C_4  and  C_5
REMARK    4  A    between atoms: C_8  and  N_9
REMARK    5  A    between atoms: C_10  and  C_12
REMARK                            x       y       z     vdW  Elec       q    Type
REMARK                         _______ _______ _______ _____ _____    ______ ____
ROOT
ATOM      1  C   UNL     1       3.077   4.892  19.286  0.00  0.00    +0.000 C 
ENDROOT
BRANCH   1   2
ATOM      2  C   UNL     1       2.549   6.276  19.540  0.00  0.00    +0.000 A 
ATOM      3  C   UNL     1       1.868   6.557  20.727  0.00  0.00    +0.000 A 
ATOM      4  C   UNL     1       1.222   7.782  20.901  0.00  0.00    +0.000 A 
ATOM      5  C   UNL     1       1.245   8.753  19.896  0.00  0.00    +0.000 A 
ATOM      6  C   UNL     1       1.970   8.490  18.727  0.00  0.00    +0.000 A 
ATOM      7  C   UNL     1       2.612   7.260  18.546  0.00  0.00    +0.000 A 
BRANCH   5   8
ATOM      8  N   UNL     1       0.564   9.981  19.982  0.00  0.00    +0.000 N 
ATOM      9  C   UNL     1       0.478  10.817  21.085  0.00  0.00    +0.000 C 
ATOM     10  O   UNL     1       0.991  10.605  22.180  0.00  0.00    +0.000 OA
ATOM     11  H   UNL     1       0.039  10.286  19.171  0.00  0.00    +0.000 HD
BRANCH   9  12
ATOM     12  C   UNL     1      -0.310  12.011  20.848  0.00  0.00    +0.000 A 
ATOM     13  C   UNL     1      -1.158  12.705  21.695  0.00  0.00    +0.000 A 
ATOM     14  C   UNL     1      -1.655  13.807  20.962  0.00  0.00    +0.000 A 
ATOM     15  C   UNL     1      -1.090  13.720  19.710  0.00  0.00    +0.000 A 
ATOM     16  O   UNL     1      -0.277  12.635  19.627  0.00  0.00    +0.000 OA
ENDBRANCH   9  12
ENDBRANCH   5   8
ENDBRANCH   1   2
BRANCH   1  19
ATOM     17  O   UNL     1       5.746   4.082  18.988  0.00  0.00    +0.000 OA
ATOM     18  C   UNL     1       5.128   4.466  18.000  0.00  0.00    +0.000 C 
ATOM     19  N   UNL     1       3.835   4.902  18.054  0.00  0.00    +0.000 N 
ATOM     20  H   UNL     1       3.330   5.077  17.198  0.00  0.00    +0.000 HD
BRANCH  18  21
ATOM     21  C   UNL     1       5.722   4.394  16.643  0.00  0.00    +0.000 C 
ATOM     22  C   UNL     1       5.063   4.114  15.498  0.00  0.00    +0.000 C 
ATOM     23  C   UNL     1       5.870   4.164  14.269  0.00  0.00    +0.000 A 
ATOM     24  C   UNL     1       5.541   3.463  13.111  0.00  0.00    +0.000 A 
ATOM     25  C   UNL     1       6.371   3.555  11.984  0.00  0.00    +0.000 A 
ATOM     26  C   UNL     1       7.488   4.396  11.988  0.00  0.00    +0.000 A 
ATOM     27  C   UNL     1       7.812   5.116  13.133  0.00  0.00    +0.000 A 
ATOM     28  C   UNL     1       7.035   4.952  14.273  0.00  0.00    +0.000 A 
ATOM     29  O   UNL     1       7.481   5.556  15.425  0.00  0.00    +0.000 OA
ATOM     30  C   UNL     1       7.191   4.719  16.562  0.00  0.00    +0.000 C 
ENDBRANCH  18  21
ENDBRANCH   1  19
TORSDOF 5
ENDMDL
MODEL 5
REMARK VINA RESULT:      -8.5      0.993      1.098
REMARK  Name = 
REMARK  5 active torsions:
REMARK  status: ('A' for Active; 'I' for Inactive)
REMARK    1  A    between atoms: C_2  and  C_19
REMARK    2  A    between atoms: N_3  and  C_4
REMARK    3  A    between atoms: C_4  and  C_5
REMARK    4  A    between atoms: C_8  and  N_9
REMARK    5  A    between atoms: C_10  and  C_12
REMARK                            x       y       z     vdW  Elec       q    Type
REMARK                         _______ _______ _______ _____ _____    ______ ____
ROOT
ATOM      1  C   UNL     1       3.369   4.288  19.473  0.00  0.00    +0.000 C 
ENDROOT
BRANCH   1   2
ATOM      2  C   UNL     1       2.575   5.541  19.714  0.00  0.00    +0.000 A 
ATOM      3  C   UNL     1       2.835   6.688  18.960  0.00  0.00    +0.000 A 
ATOM      4  C   UNL     1       2.232   7.904  19.288  0.00  0.00    +0.000 A 
ATOM      5  C   UNL     1       1.356   7.999  20.372  0.00  0.00    +0.000 A 
ATOM      6  C   UNL     1       1.057   6.838  21.096  0.00  0.00    +0.000 A 
ATOM      7  C   UNL     1       1.666   5.619  20.775  0.00  0.00    +0.000 A 
BRANCH   5   8
ATOM      8  N   UNL     1       0.764   9.204  20.795  0.00  0.00    +0.000 N 
ATOM      9  C   UNL     1       0.011  10.082  20.029  0.00  0.00    +0.000 C 
ATOM     10  O   UNL     1      -0.256   9.939  18.839  0.00  0.00    +0.000 OA
ATOM     11  H   UNL     1       0.929   9.500  21.748  0.00  0.00    +0.000 HD
BRANCH   9  12
ATOM     12  C   UNL     1      -0.450  11.243  20.764  0.00  0.00    +0.000 A 
ATOM     13  C   UNL     1      -0.355  11.542  22.114  0.00  0.00    +0.000 A 
ATOM     14  C   UNL     1      -0.951  12.811  22.293  0.00  0.00    +0.000 A 
ATOM     15  C   UNL     1      -1.382  13.211  21.049  0.00  0.00    +0.000 A 
ATOM     16  O   UNL     1      -1.089  12.269  20.115  0.00  0.00    +0.000 OA
ENDBRANCH   9  12
ENDBRANCH   5   8
ENDBRANCH   1   2
BRANCH   1  19
ATOM     17  O   UNL     1       6.140   4.355  19.041  0.00  0.00    +0.000 OA
ATOM     18  C   UNL     1       5.386   4.395  18.073  0.00  0.00    +0.000 C 
ATOM     19  N   UNL     1       4.026   4.392  18.189  0.00  0.00    +0.000 N 
ATOM     20  H   UNL     1       3.454   4.289  17.363  0.00  0.00    +0.000 HD
BRANCH  18  21
ATOM     21  C   UNL     1       5.911   4.353  16.687  0.00  0.00    +0.000 C 
ATOM     22  C   UNL     1       5.197   4.085  15.572  0.00  0.00    +0.000 C 
ATOM     23  C   UNL     1       5.939   4.167  14.305  0.00  0.00    +0.000 A 
ATOM     24  C   UNL     1       5.560   3.483  13.152  0.00  0.00    +0.000 A 
ATOM     25  C   UNL     1       6.329   3.604  11.986  0.00  0.00    +0.000 A 
ATOM     26  C   UNL     1       7.435   4.460  11.948  0.00  0.00    +0.000 A 
ATOM     27  C   UNL     1       7.808   5.164  13.088  0.00  0.00    +0.000 A 
ATOM     28  C   UNL     1       7.094   4.969  14.263  0.00  0.00    +0.000 A 
ATOM     29  O   UNL     1       7.591   5.559  15.401  0.00  0.00    +0.000 OA
ATOM     30  C   UNL     1       7.370   4.699  16.536  0.00  0.00    +0.000 C 
ENDBRANCH  18  21
ENDBRANCH   1  19
TORSDOF 5
ENDMDL
MODEL 6
REMARK VINA RESULT:      -8.5      0.586      1.162
REMARK  Name = 
REMARK  5 active torsions:
REMARK  status: ('A' for Active; 'I' for Inactive)
REMARK    1  A    between atoms: C_2  and  C_19
REMARK    2  A    between atoms: N_3  and  C_4
REMARK    3  A    between atoms: C_4  and  C_5
REMARK    4  A    between atoms: C_8  and  N_9
REMARK    5  A    between atoms: C_10  and  C_12
REMARK                            x       y       z     vdW  Elec       q    Type
REMARK                         _______ _______ _______ _____ _____    ______ ____
ROOT
ATOM      1  C   UNL     1       2.749   5.135  19.104  0.00  0.00    +0.000 C 
ENDROOT
BRANCH   1   2
ATOM      2  C   UNL     1       2.357   6.563  19.356  0.00  0.00    +0.000 A 
ATOM      3  C   UNL     1       1.855   6.940  20.605  0.00  0.00    +0.000 A 
ATOM      4  C   UNL     1       1.325   8.217  20.799  0.00  0.00    +0.000 A 
ATOM      5  C   UNL     1       1.287   9.144  19.754  0.00  0.00    +0.000 A 
ATOM      6  C   UNL     1       1.836   8.782  18.518  0.00  0.00    +0.000 A 
ATOM      7  C   UNL     1       2.361   7.501  18.316  0.00  0.00    +0.000 A 
BRANCH   5   8
ATOM      8  N   UNL     1       0.711  10.423  19.866  0.00  0.00    +0.000 N 
ATOM      9  C   UNL     1      -0.539  10.822  19.417  0.00  0.00    +0.000 C 
ATOM     10  O   UNL     1      -1.350  10.104  18.837  0.00  0.00    +0.000 OA
ATOM     11  H   UNL     1       1.271  11.157  20.280  0.00  0.00    +0.000 HD
BRANCH   9  12
ATOM     12  C   UNL     1      -0.832  12.217  19.680  0.00  0.00    +0.000 A 
ATOM     13  C   UNL     1      -0.390  13.360  19.035  0.00  0.00    +0.000 A 
ATOM     14  C   UNL     1      -0.998  14.457  19.686  0.00  0.00    +0.000 A 
ATOM     15  C   UNL     1      -1.770  13.924  20.693  0.00  0.00    +0.000 A 
ATOM     16  O   UNL     1      -1.675  12.569  20.703  0.00  0.00    +0.000 OA
ENDBRANCH   9  12
ENDBRANCH   5   8
ENDBRANCH   1   2
BRANCH   1  19
ATOM     17  O   UNL     1       5.513   4.674  18.973  0.00  0.00    +0.000 OA
ATOM     18  C   UNL     1       4.885   4.824  17.928  0.00  0.00    +0.000 C 
ATOM     19  N   UNL     1       3.544   5.076  17.897  0.00  0.00    +0.000 N 
ATOM     20  H   UNL     1       3.052   5.055  17.015  0.00  0.00    +0.000 HD
BRANCH  18  21
ATOM     21  C   UNL     1       5.534   4.644  16.607  0.00  0.00    +0.000 C 
ATOM     22  C   UNL     1       4.914   4.317  15.453  0.00  0.00    +0.000 C 
ATOM     23  C   UNL     1       5.774   4.259  14.261  0.00  0.00    +0.000 A 
ATOM     24  C   UNL     1       5.468   3.499  13.135  0.00  0.00    +0.000 A 
ATOM     25  C   UNL     1       6.349   3.489  12.043  0.00  0.00    +0.000 A 
ATOM     26  C   UNL     1       7.497   4.287  12.046  0.00  0.00    +0.000 A 
ATOM     27  C   UNL     1       7.799   5.066  13.158  0.00  0.00    +0.000 A 
ATOM     28  C   UNL     1       6.969   5.002  14.269  0.00  0.00    +0.000 A 
ATOM     29  O   UNL     1       7.388   5.661  15.401  0.00  0.00    +0.000 OA
ATOM     30  C   UNL     1       7.017   4.909  16.573  0.00  0.00    +0.000 C 
ENDBRANCH  18  21
ENDBRANCH   1  19
TORSDOF 5
ENDMDL
MODEL 7
REMARK VINA RESULT:      -8.2      1.018      1.304
REMARK  Name = 
REMARK  5 active torsions:
REMARK  status: ('A' for Active; 'I' for Inactive)
REMARK    1  A    between atoms: C_2  and  C_19
REMARK    2  A    between atoms: N_3  and  C_4
REMARK    3  A    between atoms: C_4  and  C_5
REMARK    4  A    between atoms: C_8  and  N_9
REMARK    5  A    between atoms: C_10  and  C_12
REMARK                            x       y       z     vdW  Elec       q    Type
REMARK                         _______ _______ _______ _____ _____    ______ ____
ROOT
ATOM      1  C   UNL     1       3.347   5.458  19.575  0.00  0.00    +0.000 C 
ENDROOT
BRANCH   1   2
ATOM      2  C   UNL     1       2.535   6.720  19.496  0.00  0.00    +0.000 A 
ATOM      3  C   UNL     1       2.507   7.461  18.312  0.00  0.00    +0.000 A 
ATOM      4  C   UNL     1       1.903   8.720  18.277  0.00  0.00    +0.000 A 
ATOM      5  C   UNL     1       1.312   9.262  19.421  0.00  0.00    +0.000 A 
ATOM      6  C   UNL     1       1.296   8.497  20.594  0.00  0.00    +0.000 A 
ATOM      7  C   UNL     1       1.907   7.240  20.636  0.00  0.00    +0.000 A 
BRANCH   5   8
ATOM      8  N   UNL     1       0.743  10.548  19.470  0.00  0.00    +0.000 N 
ATOM      9  C   UNL     1       1.269  11.719  18.945  0.00  0.00    +0.000 C 
ATOM     10  O   UNL     1       2.337  11.814  18.346  0.00  0.00    +0.000 OA
ATOM     11  H   UNL     1      -0.127  10.659  19.976  0.00  0.00    +0.000 HD
BRANCH   9  12
ATOM     12  C   UNL     1       0.435  12.883  19.173  0.00  0.00    +0.000 A 
ATOM     13  C   UNL     1       0.640  14.210  18.832  0.00  0.00    +0.000 A 
ATOM     14  C   UNL     1      -0.496  14.925  19.273  0.00  0.00    +0.000 A 
ATOM     15  C   UNL     1      -1.325  13.999  19.864  0.00  0.00    +0.000 A 
ATOM     16  O   UNL     1      -0.771  12.760  19.814  0.00  0.00    +0.000 OA
ENDBRANCH   9  12
ENDBRANCH   5   8
ENDBRANCH   1   2
BRANCH   1  19
ATOM     17  O   UNL     1       4.595   3.140  18.609  0.00  0.00    +0.000 OA
ATOM     18  C   UNL     1       4.738   4.191  17.993  0.00  0.00    +0.000 C 
ATOM     19  N   UNL     1       4.189   5.372  18.401  0.00  0.00    +0.000 N 
ATOM     20  H   UNL     1       4.220   6.176  17.791  0.00  0.00    +0.000 HD
BRANCH  18  21
ATOM     21  C   UNL     1       5.448   4.232  16.692  0.00  0.00    +0.000 C 
ATOM     22  C   UNL     1       4.899   4.015  15.477  0.00  0.00    +0.000 C 
ATOM     23  C   UNL     1       5.806   4.175  14.330  0.00  0.00    +0.000 A 
ATOM     24  C   UNL     1       5.602   3.549  13.103  0.00  0.00    +0.000 A 
ATOM     25  C   UNL     1       6.521   3.744  12.062  0.00  0.00    +0.000 A 
ATOM     26  C   UNL     1       7.605   4.614  12.221  0.00  0.00    +0.000 A 
ATOM     27  C   UNL     1       7.804   5.260  13.436  0.00  0.00    +0.000 A 
ATOM     28  C   UNL     1       6.939   4.993  14.490  0.00  0.00    +0.000 A 
ATOM     29  O   UNL     1       7.264   5.526  15.715  0.00  0.00    +0.000 OA
ATOM     30  C   UNL     1       6.906   4.604  16.762  0.00  0.00    +0.000 C 
ENDBRANCH  18  21
ENDBRANCH   1  19
TORSDOF 5
ENDMDL
MODEL 8
REMARK VINA RESULT:      -7.9      2.100     10.382
REMARK  Name = 
REMARK  5 active torsions:
REMARK  status: ('A' for Active; 'I' for Inactive)
REMARK    1  A    between atoms: C_2  and  C_19
REMARK    2  A    between atoms: N_3  and  C_4
REMARK    3  A    between atoms: C_4  and  C_5
REMARK    4  A    between atoms: C_8  and  N_9
REMARK    5  A    between atoms: C_10  and  C_12
REMARK                            x       y       z     vdW  Elec       q    Type
REMARK                         _______ _______ _______ _____ _____    ______ ____
ROOT
ATOM      1  C   UNL     1       1.129   8.962  20.995  0.00  0.00    +0.000 C 
ENDROOT
BRANCH   1   2
ATOM      2  C   UNL     1       1.769   8.125  19.923  0.00  0.00    +0.000 A 
ATOM      3  C   UNL     1       2.255   6.851  20.227  0.00  0.00    +0.000 A 
ATOM      4  C   UNL     1       3.005   6.137  19.290  0.00  0.00    +0.000 A 
ATOM      5  C   UNL     1       3.282   6.677  18.032  0.00  0.00    +0.000 A 
ATOM      6  C   UNL     1       2.751   7.933  17.710  0.00  0.00    +0.000 A 
ATOM      7  C   UNL     1       2.006   8.655  18.649  0.00  0.00    +0.000 A 
BRANCH   5   8
ATOM      8  N   UNL     1       4.082   6.037  17.067  0.00  0.00    +0.000 N 
ATOM      9  C   UNL     1       5.396   6.334  16.737  0.00  0.00    +0.000 C 
ATOM     10  O   UNL     1       6.075   7.221  17.247  0.00  0.00    +0.000 OA
ATOM     11  H   UNL     1       3.656   5.305  16.513  0.00  0.00    +0.000 HD
BRANCH   9  12
ATOM     12  C   UNL     1       5.935   5.490  15.689  0.00  0.00    +0.000 A 
ATOM     13  C   UNL     1       5.363   4.421  15.019  0.00  0.00    +0.000 A 
ATOM     14  C   UNL     1       6.317   3.969  14.080  0.00  0.00    +0.000 A 
ATOM     15  C   UNL     1       7.418   4.780  14.234  0.00  0.00    +0.000 A 
ATOM     16  O   UNL     1       7.202   5.702  15.208  0.00  0.00    +0.000 OA
ENDBRANCH   9  12
ENDBRANCH   5   8
ENDBRANCH   1   2
BRANCH   1  19
ATOM     17  O   UNL     1       0.592  11.537  20.023  0.00  0.00    +0.000 OA
ATOM     18  C   UNL     1      -0.312  10.707  20.037  0.00  0.00    +0.000 C 
ATOM     19  N   UNL     1      -0.149   9.438  20.514  0.00  0.00    +0.000 N 
ATOM     20  H   UNL     1      -0.880   8.755  20.379  0.00  0.00    +0.000 HD
BRANCH  18  21
ATOM     21  C   UNL     1      -1.637  11.001  19.439  0.00  0.00    +0.000 C 
ATOM     22  C   UNL     1      -2.497  11.960  19.842  0.00  0.00    +0.000 C 
ATOM     23  C   UNL     1      -3.725  12.092  19.042  0.00  0.00    +0.000 A 
ATOM     24  C   UNL     1      -4.907  12.634  19.541  0.00  0.00    +0.000 A 
ATOM     25  C   UNL     1      -6.038  12.713  18.717  0.00  0.00    +0.000 A 
ATOM     26  C   UNL     1      -5.973  12.316  17.377  0.00  0.00    +0.000 A 
ATOM     27  C   UNL     1      -4.790  11.794  16.864  0.00  0.00    +0.000 A 
ATOM     28  C   UNL     1      -3.701  11.637  17.711  0.00  0.00    +0.000 A 
ATOM     29  O   UNL     1      -2.609  10.972  17.207  0.00  0.00    +0.000 OA
ATOM     30  C   UNL     1      -2.004  10.168  18.239  0.00  0.00    +0.000 C 
ENDBRANCH  18  21
ENDBRANCH   1  19
TORSDOF 5
ENDMDL
MODEL 9
REMARK VINA RESULT:      -7.9      2.135      3.610
REMARK  Name = 
REMARK  5 active torsions:
REMARK  status: ('A' for Active; 'I' for Inactive)
REMARK    1  A    between atoms: C_2  and  C_19
REMARK    2  A    between atoms: N_3  and  C_4
REMARK    3  A    between atoms: C_4  and  C_5
REMARK    4  A    between atoms: C_8  and  N_9
REMARK    5  A    between atoms: C_10  and  C_12
REMARK                            x       y       z     vdW  Elec       q    Type
REMARK                         _______ _______ _______ _____ _____    ______ ____
ROOT
ATOM      1  C   UNL     1       1.262   7.801  21.015  0.00  0.00    +0.000 C 
ENDROOT
BRANCH   1   2
ATOM      2  C   UNL     1       1.010   9.206  20.545  0.00  0.00    +0.000 A 
ATOM      3  C   UNL     1       1.092   9.513  19.184  0.00  0.00    +0.000 A 
ATOM      4  C   UNL     1       1.034  10.840  18.753  0.00  0.00    +0.000 A 
ATOM      5  C   UNL     1       0.892  11.886  19.668  0.00  0.00    +0.000 A 
ATOM      6  C   UNL     1       0.759  11.573  21.027  0.00  0.00    +0.000 A 
ATOM      7  C   UNL     1       0.824  10.246  21.464  0.00  0.00    +0.000 A 
BRANCH   5   8
ATOM      8  N   UNL     1       0.890  13.245  19.306  0.00  0.00    +0.000 N 
ATOM      9  C   UNL     1      -0.188  14.119  19.332  0.00  0.00    +0.000 C 
ATOM     10  O   UNL     1      -1.329  13.830  19.679  0.00  0.00    +0.000 OA
ATOM     11  H   UNL     1       1.750  13.638  18.945  0.00  0.00    +0.000 HD
BRANCH   9  12
ATOM     12  C   UNL     1       0.141  15.459  18.886  0.00  0.00    +0.000 A 
ATOM     13  C   UNL     1      -0.683  16.539  18.619  0.00  0.00    +0.000 A 
ATOM     14  C   UNL     1       0.157  17.609  18.237  0.00  0.00    +0.000 A 
ATOM     15  C   UNL     1       1.443  17.121  18.284  0.00  0.00    +0.000 A 
ATOM     16  O   UNL     1       1.447  15.819  18.672  0.00  0.00    +0.000 OA
ENDBRANCH   9  12
ENDBRANCH   5   8
ENDBRANCH   1   2
BRANCH   1  19
ATOM     17  O   UNL     1       1.523   5.122  20.225  0.00  0.00    +0.000 OA
ATOM     18  C   UNL     1       2.388   5.927  19.891  0.00  0.00    +0.000 C 
ATOM     19  N   UNL     1       2.357   7.243  20.251  0.00  0.00    +0.000 N 
ATOM     20  H   UNL     1       3.014   7.890  19.840  0.00  0.00    +0.000 HD
BRANCH  18  21
ATOM     21  C   UNL     1       3.493   5.537  18.982  0.00  0.00    +0.000 C 
ATOM     22  C   UNL     1       3.796   6.120  17.802  0.00  0.00    +0.000 C 
ATOM     23  C   UNL     1       4.983   5.587  17.115  0.00  0.00    +0.000 A 
ATOM     24  C   UNL     1       5.176   5.684  15.739  0.00  0.00    +0.000 A 
ATOM     25  C   UNL     1       6.331   5.139  15.159  0.00  0.00    +0.000 A 
ATOM     26  C   UNL     1       7.323   4.559  15.956  0.00  0.00    +0.000 A 
ATOM     27  C   UNL     1       7.149   4.478  17.334  0.00  0.00    +0.000 A 
ATOM     28  C   UNL     1       5.963   4.940  17.890  0.00  0.00    +0.000 A 
ATOM     29  O   UNL     1       5.764   4.697  19.228  0.00  0.00    +0.000 OA
ATOM     30  C   UNL     1       4.372   4.418  19.475  0.00  0.00    +0.000 C 
ENDBRANCH  18  21
ENDBRANCH   1  19
TORSDOF 5
ENDMDL
