MODEL 1
REMARK VINA RESULT:      -8.9      0.000      0.000
REMARK  Name = 
REMARK  5 active torsions:
REMARK  status: ('A' for Active; 'I' for Inactive)
REMARK    1  A    between atoms: C_1  and  C_2
REMARK    2  A    between atoms: N_16  and  C_17
REMARK    3  A    between atoms: C_17  and  C_18
REMARK    4  A    between atoms: C_18  and  C_19
REMARK    5  A    between atoms: N_21  and  C_22
REMARK                            x       y       z     vdW  Elec       q    Type
REMARK                         _______ _______ _______ _____ _____    ______ ____
ROOT
ATOM      1  C   UNL     1       2.350   4.713  20.310  0.00  0.00    +0.000 C 
ATOM      2  C   UNL     1       2.781   5.009  18.842  0.00  0.00    +0.000 C 
ATOM      3  C   UNL     1       1.675   4.567  17.867  0.00  0.00    +0.000 C 
ATOM      4  C   UNL     1       1.804   3.038  17.872  0.00  0.00    +0.000 C 
ATOM      5  C   UNL     1       3.223   2.794  18.347  0.00  0.00    +0.000 C 
ATOM      6  O   UNL     1       3.738   1.705  18.534  0.00  0.00    +0.000 OA
ATOM      7  N   UNL     1       3.839   4.069  18.449  0.00  0.00    +0.000 N 
ATOM      8  C   UNL     1       4.611   4.456  17.300  0.00  0.00    +0.000 A 
ATOM      9  C   UNL     1       5.061   3.507  16.365  0.00  0.00    +0.000 A 
ATOM     10  C   UNL     1       5.573   3.909  15.127  0.00  0.00    +0.000 A 
ATOM     11  C   UNL     1       5.736   5.259  14.843  0.00  0.00    +0.000 A 
ATOM     12  C   UNL     1       5.358   6.209  15.790  0.00  0.00    +0.000 A 
ATOM     13  C   UNL     1       4.768   5.811  16.995  0.00  0.00    +0.000 A 
ATOM     14  C   UNL     1       4.132   6.846  17.831  0.00  0.00    +0.000 C 
ATOM     15  O   UNL     1       4.435   8.019  17.657  0.00  0.00    +0.000 OA
ATOM     16  N   UNL     1       3.157   6.426  18.724  0.00  0.00    +0.000 N 
ENDROOT
BRANCH  16  17
ATOM     17  C   UNL     1       2.237   7.472  19.225  0.00  0.00    +0.000 C 
BRANCH  17  18
ATOM     18  C   UNL     1       1.645   8.351  18.122  0.00  0.00    +0.000 C 
BRANCH  18  19
ATOM     19  C   UNL     1       0.856   9.515  18.698  0.00  0.00    +0.000 C 
ATOM     20  O   UNL     1      -0.053  10.064  18.082  0.00  0.00    +0.000 OA
ATOM     21  N   UNL     1       1.261   9.845  19.983  0.00  0.00    +0.000 N 
ATOM     22  H   UNL     1       2.224   9.630  20.228  0.00  0.00    +0.000 HD
BRANCH  21  23
ATOM     23  C   UNL     1       0.609  10.786  20.809  0.00  0.00    +0.000 A 
ATOM     24  C   UNL     1       0.812  12.163  20.689  0.00  0.00    +0.000 A 
ATOM     25  C   UNL     1       0.105  13.051  21.510  0.00  0.00    +0.000 A 
ATOM     26  C   UNL     1      -0.776  12.552  22.465  0.00  0.00    +0.000 A 
ATOM     27  F   UNL     1      -1.433  13.410  23.256  0.00  0.00    +0.000 F 
ATOM     28  C   UNL     1      -0.983  11.185  22.597  0.00  0.00    +0.000 A 
ATOM     29  F   UNL     1      -1.820  10.716  23.530  0.00  0.00    +0.000 F 
ATOM     30  C   UNL     1      -0.311  10.308  21.752  0.00  0.00    +0.000 A 
ATOM     31  F   UNL     1      -0.511   8.986  21.870  0.00  0.00    +0.000 F 
ENDBRANCH  21  23
ENDBRANCH  18  19
ENDBRANCH  17  18
ENDBRANCH  16  17
TORSDOF 4
ENDMDL
MODEL 2
REMARK VINA RESULT:      -8.8      2.996      8.544
REMARK  Name = 
REMARK  5 active torsions:
REMARK  status: ('A' for Active; 'I' for Inactive)
REMARK    1  A    between atoms: C_1  and  C_2
REMARK    2  A    between atoms: N_16  and  C_17
REMARK    3  A    between atoms: C_17  and  C_18
REMARK    4  A    between atoms: C_18  and  C_19
REMARK    5  A    between atoms: N_21  and  C_22
REMARK                            x       y       z     vdW  Elec       q    Type
REMARK                         _______ _______ _______ _____ _____    ______ ____
ROOT
ATOM      1  C   UNL     1       2.021  11.650  17.762  0.00  0.00    +0.000 C 
ATOM      2  C   UNL     1       1.006  11.102  18.808  0.00  0.00    +0.000 C 
ATOM      3  C   UNL     1      -0.433  11.273  18.289  0.00  0.00    +0.000 C 
ATOM      4  C   UNL     1      -0.680  12.780  18.453  0.00  0.00    +0.000 C 
ATOM      5  C   UNL     1       0.329  13.202  19.502  0.00  0.00    +0.000 C 
ATOM      6  O   UNL     1       0.506  14.337  19.910  0.00  0.00    +0.000 OA
ATOM      7  N   UNL     1       0.957  12.013  19.960  0.00  0.00    +0.000 N 
ATOM      8  C   UNL     1       0.392  11.459  21.160  0.00  0.00    +0.000 A 
ATOM      9  C   UNL     1      -0.405  12.234  22.021  0.00  0.00    +0.000 A 
ATOM     10  C   UNL     1      -1.163  11.632  23.030  0.00  0.00    +0.000 A 
ATOM     11  C   UNL     1      -1.061  10.265  23.259  0.00  0.00    +0.000 A 
ATOM     12  C   UNL     1      -0.220   9.496  22.458  0.00  0.00    +0.000 A 
ATOM     13  C   UNL     1       0.474  10.084  21.393  0.00  0.00    +0.000 A 
ATOM     14  C   UNL     1       1.118   9.193  20.410  0.00  0.00    +0.000 C 
ATOM     15  O   UNL     1       1.342   8.031  20.719  0.00  0.00    +0.000 OA
ATOM     16  N   UNL     1       1.361   9.716  19.149  0.00  0.00    +0.000 N 
ENDROOT
BRANCH  16  17
ATOM     17  C   UNL     1       1.588   8.731  18.067  0.00  0.00    +0.000 C 
BRANCH  17  18
ATOM     18  C   UNL     1       3.058   8.352  17.877  0.00  0.00    +0.000 C 
BRANCH  18  19
ATOM     19  C   UNL     1       3.278   6.860  18.056  0.00  0.00    +0.000 C 
ATOM     20  O   UNL     1       4.396   6.369  18.178  0.00  0.00    +0.000 OA
ATOM     21  N   UNL     1       2.086   6.149  18.093  0.00  0.00    +0.000 N 
ATOM     22  H   UNL     1       1.297   6.556  17.600  0.00  0.00    +0.000 HD
BRANCH  21  23
ATOM     23  C   UNL     1       1.986   4.773  18.392  0.00  0.00    +0.000 A 
ATOM     24  C   UNL     1       2.346   3.776  17.482  0.00  0.00    +0.000 A 
ATOM     25  C   UNL     1       2.264   2.427  17.850  0.00  0.00    +0.000 A 
ATOM     26  C   UNL     1       1.793   2.087  19.115  0.00  0.00    +0.000 A 
ATOM     27  F   UNL     1       1.701   0.793  19.449  0.00  0.00    +0.000 F 
ATOM     28  C   UNL     1       1.427   3.068  20.027  0.00  0.00    +0.000 A 
ATOM     29  F   UNL     1       0.960   2.729  21.233  0.00  0.00    +0.000 F 
ATOM     30  C   UNL     1       1.550   4.408  19.673  0.00  0.00    +0.000 A 
ATOM     31  F   UNL     1       1.205   5.363  20.551  0.00  0.00    +0.000 F 
ENDBRANCH  21  23
ENDBRANCH  18  19
ENDBRANCH  17  18
ENDBRANCH  16  17
TORSDOF 4
ENDMDL
MODEL 3
REMARK VINA RESULT:      -8.7      3.559      9.323
REMARK  Name = 
REMARK  5 active torsions:
REMARK  status: ('A' for Active; 'I' for Inactive)
REMARK    1  A    between atoms: C_1  and  C_2
REMARK    2  A    between atoms: N_16  and  C_17
REMARK    3  A    between atoms: C_17  and  C_18
REMARK    4  A    between atoms: C_18  and  C_19
REMARK    5  A    between atoms: N_21  and  C_22
REMARK                            x       y       z     vdW  Elec       q    Type
REMARK                         _______ _______ _______ _____ _____    ______ ____
ROOT
ATOM      1  C   UNL     1       0.905  10.520  18.734  0.00  0.00    +0.000 C 
ATOM      2  C   UNL     1      -0.168  11.010  19.751  0.00  0.00    +0.000 C 
ATOM      3  C   UNL     1      -1.576  10.861  19.147  0.00  0.00    +0.000 C 
ATOM      4  C   UNL     1      -1.638  12.010  18.131  0.00  0.00    +0.000 C 
ATOM      5  C   UNL     1      -0.584  12.984  18.619  0.00  0.00    +0.000 C 
ATOM      6  O   UNL     1      -0.270  14.030  18.077  0.00  0.00    +0.000 OA
ATOM      7  N   UNL     1      -0.104  12.474  19.854  0.00  0.00    +0.000 N 
ATOM      8  C   UNL     1      -0.731  13.037  21.020  0.00  0.00    +0.000 A 
ATOM      9  C   UNL     1      -1.428  14.257  20.961  0.00  0.00    +0.000 A 
ATOM     10  C   UNL     1      -2.252  14.663  22.015  0.00  0.00    +0.000 A 
ATOM     11  C   UNL     1      -2.317  13.909  23.181  0.00  0.00    +0.000 A 
ATOM     12  C   UNL     1      -1.577  12.733  23.279  0.00  0.00    +0.000 A 
ATOM     13  C   UNL     1      -0.817  12.282  22.193  0.00  0.00    +0.000 A 
ATOM     14  C   UNL     1      -0.288  10.907  22.240  0.00  0.00    +0.000 C 
ATOM     15  O   UNL     1      -0.206  10.339  23.321  0.00  0.00    +0.000 OA
ATOM     16  N   UNL     1       0.017  10.305  21.028  0.00  0.00    +0.000 N 
ENDROOT
BRANCH  16  17
ATOM     17  C   UNL     1       0.121   8.828  21.041  0.00  0.00    +0.000 C 
BRANCH  17  18
ATOM     18  C   UNL     1       1.545   8.314  21.257  0.00  0.00    +0.000 C 
BRANCH  18  19
ATOM     19  C   UNL     1       1.925   7.269  20.222  0.00  0.00    +0.000 C 
ATOM     20  O   UNL     1       2.120   7.550  19.044  0.00  0.00    +0.000 OA
ATOM     21  N   UNL     1       2.048   5.999  20.771  0.00  0.00    +0.000 N 
ATOM     22  H   UNL     1       1.499   5.806  21.603  0.00  0.00    +0.000 HD
BRANCH  21  23
ATOM     23  C   UNL     1       2.530   4.871  20.072  0.00  0.00    +0.000 A 
ATOM     24  C   UNL     1       3.869   4.733  19.696  0.00  0.00    +0.000 A 
ATOM     25  C   UNL     1       4.297   3.572  19.040  0.00  0.00    +0.000 A 
ATOM     26  C   UNL     1       3.376   2.573  18.738  0.00  0.00    +0.000 A 
ATOM     27  F   UNL     1       3.795   1.476  18.094  0.00  0.00    +0.000 F 
ATOM     28  C   UNL     1       2.043   2.700  19.102  0.00  0.00    +0.000 A 
ATOM     29  F   UNL     1       1.164   1.741  18.792  0.00  0.00    +0.000 F 
ATOM     30  C   UNL     1       1.629   3.836  19.791  0.00  0.00    +0.000 A 
ATOM     31  F   UNL     1       0.342   3.963  20.152  0.00  0.00    +0.000 F 
ENDBRANCH  21  23
ENDBRANCH  18  19
ENDBRANCH  17  18
ENDBRANCH  16  17
TORSDOF 4
ENDMDL
MODEL 4
REMARK VINA RESULT:      -8.7      2.309      2.666
REMARK  Name = 
REMARK  5 active torsions:
REMARK  status: ('A' for Active; 'I' for Inactive)
REMARK    1  A    between atoms: C_1  and  C_2
REMARK    2  A    between atoms: N_16  and  C_17
REMARK    3  A    between atoms: C_17  and  C_18
REMARK    4  A    between atoms: C_18  and  C_19
REMARK    5  A    between atoms: N_21  and  C_22
REMARK                            x       y       z     vdW  Elec       q    Type
REMARK                         _______ _______ _______ _____ _____    ______ ____
ROOT
ATOM      1  C   UNL     1       2.013   4.537  20.626  0.00  0.00    +0.000 C 
ATOM      2  C   UNL     1       2.436   4.884  19.168  0.00  0.00    +0.000 C 
ATOM      3  C   UNL     1       1.472   4.222  18.166  0.00  0.00    +0.000 C 
ATOM      4  C   UNL     1       1.888   2.745  18.213  0.00  0.00    +0.000 C 
ATOM      5  C   UNL     1       3.308   2.784  18.742  0.00  0.00    +0.000 C 
ATOM      6  O   UNL     1       4.013   1.816  18.975  0.00  0.00    +0.000 OA
ATOM      7  N   UNL     1       3.668   4.154  18.834  0.00  0.00    +0.000 N 
ATOM      8  C   UNL     1       4.396   4.661  17.704  0.00  0.00    +0.000 A 
ATOM      9  C   UNL     1       5.054   3.799  16.808  0.00  0.00    +0.000 A 
ATOM     10  C   UNL     1       5.528   4.268  15.580  0.00  0.00    +0.000 A 
ATOM     11  C   UNL     1       5.443   5.619  15.268  0.00  0.00    +0.000 A 
ATOM     12  C   UNL     1       4.856   6.497  16.177  0.00  0.00    +0.000 A 
ATOM     13  C   UNL     1       4.305   6.015  17.371  0.00  0.00    +0.000 A 
ATOM     14  C   UNL     1       3.453   6.925  18.158  0.00  0.00    +0.000 C 
ATOM     15  O   UNL     1       3.535   8.131  17.965  0.00  0.00    +0.000 OA
ATOM     16  N   UNL     1       2.541   6.343  19.027  0.00  0.00    +0.000 N 
ENDROOT
BRANCH  16  17
ATOM     17  C   UNL     1       1.422   7.205  19.470  0.00  0.00    +0.000 C 
BRANCH  17  18
ATOM     18  C   UNL     1       1.632   7.826  20.851  0.00  0.00    +0.000 C 
BRANCH  18  19
ATOM     19  C   UNL     1       1.175   9.274  20.888  0.00  0.00    +0.000 C 
ATOM     20  O   UNL     1       1.236   9.959  21.905  0.00  0.00    +0.000 OA
ATOM     21  N   UNL     1       0.722   9.719  19.653  0.00  0.00    +0.000 N 
ATOM     22  H   UNL     1       0.344   9.015  19.026  0.00  0.00    +0.000 HD
BRANCH  21  23
ATOM     23  C   UNL     1       0.376  11.056  19.364  0.00  0.00    +0.000 A 
ATOM     24  C   UNL     1      -0.863  11.605  19.705  0.00  0.00    +0.000 A 
ATOM     25  C   UNL     1      -1.135  12.950  19.429  0.00  0.00    +0.000 A 
ATOM     26  C   UNL     1      -0.176  13.728  18.786  0.00  0.00    +0.000 A 
ATOM     27  F   UNL     1      -0.455  15.009  18.511  0.00  0.00    +0.000 F 
ATOM     28  C   UNL     1       1.057  13.194  18.438  0.00  0.00    +0.000 A 
ATOM     29  F   UNL     1       1.964  13.946  17.805  0.00  0.00    +0.000 F 
ATOM     30  C   UNL     1       1.340  11.868  18.751  0.00  0.00    +0.000 A 
ATOM     31  F   UNL     1       2.533  11.347  18.423  0.00  0.00    +0.000 F 
ENDBRANCH  21  23
ENDBRANCH  18  19
ENDBRANCH  17  18
ENDBRANCH  16  17
TORSDOF 4
ENDMDL
MODEL 5
REMARK VINA RESULT:      -8.6      2.176      2.471
REMARK  Name = 
REMARK  5 active torsions:
REMARK  status: ('A' for Active; 'I' for Inactive)
REMARK    1  A    between atoms: C_1  and  C_2
REMARK    2  A    between atoms: N_16  and  C_17
REMARK    3  A    between atoms: C_17  and  C_18
REMARK    4  A    between atoms: C_18  and  C_19
REMARK    5  A    between atoms: N_21  and  C_22
REMARK                            x       y       z     vdW  Elec       q    Type
REMARK                         _______ _______ _______ _____ _____    ______ ____
ROOT
ATOM      1  C   UNL     1       2.091   3.893  21.124  0.00  0.00    +0.000 C 
ATOM      2  C   UNL     1       2.418   4.358  19.674  0.00  0.00    +0.000 C 
ATOM      3  C   UNL     1       1.513   3.624  18.667  0.00  0.00    +0.000 C 
ATOM      4  C   UNL     1       2.115   2.212  18.629  0.00  0.00    +0.000 C 
ATOM      5  C   UNL     1       3.535   2.409  19.121  0.00  0.00    +0.000 C 
ATOM      6  O   UNL     1       4.364   1.531  19.286  0.00  0.00    +0.000 OA
ATOM      7  N   UNL     1       3.721   3.809  19.271  0.00  0.00    +0.000 N 
ATOM      8  C   UNL     1       4.340   4.457  18.147  0.00  0.00    +0.000 A 
ATOM      9  C   UNL     1       5.072   3.728  17.192  0.00  0.00    +0.000 A 
ATOM     10  C   UNL     1       5.441   4.310  15.976  0.00  0.00    +0.000 A 
ATOM     11  C   UNL     1       5.174   5.652  15.735  0.00  0.00    +0.000 A 
ATOM     12  C   UNL     1       4.511   6.404  16.702  0.00  0.00    +0.000 A 
ATOM     13  C   UNL     1       4.067   5.801  17.885  0.00  0.00    +0.000 A 
ATOM     14  C   UNL     1       3.133   6.557  18.740  0.00  0.00    +0.000 C 
ATOM     15  O   UNL     1       3.054   7.771  18.605  0.00  0.00    +0.000 OA
ATOM     16  N   UNL     1       2.332   5.824  19.603  0.00  0.00    +0.000 N 
ENDROOT
BRANCH  16  17
ATOM     17  C   UNL     1       1.127   6.512  20.119  0.00  0.00    +0.000 C 
BRANCH  17  18
ATOM     18  C   UNL     1       1.419   7.498  21.251  0.00  0.00    +0.000 C 
BRANCH  18  19
ATOM     19  C   UNL     1       0.664   8.804  21.064  0.00  0.00    +0.000 C 
ATOM     20  O   UNL     1      -0.202   9.181  21.846  0.00  0.00    +0.000 OA
ATOM     21  N   UNL     1       1.091   9.507  19.946  0.00  0.00    +0.000 N 
ATOM     22  H   UNL     1       1.485   8.961  19.186  0.00  0.00    +0.000 HD
BRANCH  21  23
ATOM     23  C   UNL     1       0.668  10.812  19.614  0.00  0.00    +0.000 A 
ATOM     24  C   UNL     1       1.278  11.957  20.134  0.00  0.00    +0.000 A 
ATOM     25  C   UNL     1       0.841  13.227  19.738  0.00  0.00    +0.000 A 
ATOM     26  C   UNL     1      -0.223  13.341  18.847  0.00  0.00    +0.000 A 
ATOM     27  F   UNL     1      -0.644  14.561  18.490  0.00  0.00    +0.000 F 
ATOM     28  C   UNL     1      -0.841  12.212  18.327  0.00  0.00    +0.000 A 
ATOM     29  F   UNL     1      -1.873  12.334  17.486  0.00  0.00    +0.000 F 
ATOM     30  C   UNL     1      -0.377  10.952  18.691  0.00  0.00    +0.000 A 
ATOM     31  F   UNL     1      -0.965   9.855  18.187  0.00  0.00    +0.000 F 
ENDBRANCH  21  23
ENDBRANCH  18  19
ENDBRANCH  17  18
ENDBRANCH  16  17
TORSDOF 4
ENDMDL
MODEL 6
REMARK VINA RESULT:      -8.5      1.835      1.919
REMARK  Name = 
REMARK  5 active torsions:
REMARK  status: ('A' for Active; 'I' for Inactive)
REMARK    1  A    between atoms: C_1  and  C_2
REMARK    2  A    between atoms: N_16  and  C_17
REMARK    3  A    between atoms: C_17  and  C_18
REMARK    4  A    between atoms: C_18  and  C_19
REMARK    5  A    between atoms: N_21  and  C_22
REMARK                            x       y       z     vdW  Elec       q    Type
REMARK                         _______ _______ _______ _____ _____    ______ ____
ROOT
ATOM      1  C   UNL     1       2.019   4.733  20.343  0.00  0.00    +0.000 C 
ATOM      2  C   UNL     1       2.510   4.998  18.889  0.00  0.00    +0.000 C 
ATOM      3  C   UNL     1       1.533   4.368  17.878  0.00  0.00    +0.000 C 
ATOM      4  C   UNL     1       1.844   2.869  17.988  0.00  0.00    +0.000 C 
ATOM      5  C   UNL     1       3.246   2.829  18.563  0.00  0.00    +0.000 C 
ATOM      6  O   UNL     1       3.874   1.824  18.851  0.00  0.00    +0.000 OA
ATOM      7  N   UNL     1       3.697   4.174  18.621  0.00  0.00    +0.000 N 
ATOM      8  C   UNL     1       4.494   4.589  17.498  0.00  0.00    +0.000 A 
ATOM      9  C   UNL     1       5.117   3.652  16.654  0.00  0.00    +0.000 A 
ATOM     10  C   UNL     1       5.660   4.044  15.427  0.00  0.00    +0.000 A 
ATOM     11  C   UNL     1       5.678   5.386  15.068  0.00  0.00    +0.000 A 
ATOM     12  C   UNL     1       5.127   6.334  15.927  0.00  0.00    +0.000 A 
ATOM     13  C   UNL     1       4.507   5.934  17.118  0.00  0.00    +0.000 A 
ATOM     14  C   UNL     1       3.697   6.927  17.845  0.00  0.00    +0.000 C 
ATOM     15  O   UNL     1       3.868   8.117  17.615  0.00  0.00    +0.000 OA
ATOM     16  N   UNL     1       2.721   6.441  18.702  0.00  0.00    +0.000 N 
ENDROOT
BRANCH  16  17
ATOM     17  C   UNL     1       1.651   7.392  19.079  0.00  0.00    +0.000 C 
BRANCH  17  18
ATOM     18  C   UNL     1       1.806   7.966  20.488  0.00  0.00    +0.000 C 
BRANCH  18  19
ATOM     19  C   UNL     1       0.657   8.896  20.842  0.00  0.00    +0.000 C 
ATOM     20  O   UNL     1      -0.075   8.701  21.807  0.00  0.00    +0.000 OA
ATOM     21  N   UNL     1       0.566   9.978  19.977  0.00  0.00    +0.000 N 
ATOM     22  H   UNL     1       0.922   9.841  19.036  0.00  0.00    +0.000 HD
BRANCH  21  23
ATOM     23  C   UNL     1      -0.311  11.070  20.154  0.00  0.00    +0.000 A 
ATOM     24  C   UNL     1      -0.031  12.128  21.024  0.00  0.00    +0.000 A 
ATOM     25  C   UNL     1      -0.920  13.204  21.128  0.00  0.00    +0.000 A 
ATOM     26  C   UNL     1      -2.097  13.199  20.384  0.00  0.00    +0.000 A 
ATOM     27  F   UNL     1      -2.949  14.226  20.506  0.00  0.00    +0.000 F 
ATOM     28  C   UNL     1      -2.389  12.152  19.521  0.00  0.00    +0.000 A 
ATOM     29  F   UNL     1      -3.531  12.149  18.825  0.00  0.00    +0.000 F 
ATOM     30  C   UNL     1      -1.484  11.104  19.389  0.00  0.00    +0.000 A 
ATOM     31  F   UNL     1      -1.756  10.091  18.551  0.00  0.00    +0.000 F 
ENDBRANCH  21  23
ENDBRANCH  18  19
ENDBRANCH  17  18
ENDBRANCH  16  17
TORSDOF 4
ENDMDL
MODEL 7
REMARK VINA RESULT:      -8.5      1.592      1.860
REMARK  Name = 
REMARK  5 active torsions:
REMARK  status: ('A' for Active; 'I' for Inactive)
REMARK    1  A    between atoms: C_1  and  C_2
REMARK    2  A    between atoms: N_16  and  C_17
REMARK    3  A    between atoms: C_17  and  C_18
REMARK    4  A    between atoms: C_18  and  C_19
REMARK    5  A    between atoms: N_21  and  C_22
REMARK                            x       y       z     vdW  Elec       q    Type
REMARK                         _______ _______ _______ _____ _____    ______ ____
ROOT
ATOM      1  C   UNL     1       1.944   4.896  20.390  0.00  0.00    +0.000 C 
ATOM      2  C   UNL     1       2.444   5.133  18.934  0.00  0.00    +0.000 C 
ATOM      3  C   UNL     1       1.477   4.478  17.930  0.00  0.00    +0.000 C 
ATOM      4  C   UNL     1       1.795   2.983  18.073  0.00  0.00    +0.000 C 
ATOM      5  C   UNL     1       3.193   2.962  18.658  0.00  0.00    +0.000 C 
ATOM      6  O   UNL     1       3.824   1.967  18.970  0.00  0.00    +0.000 OA
ATOM      7  N   UNL     1       3.637   4.310  18.691  0.00  0.00    +0.000 N 
ATOM      8  C   UNL     1       4.439   4.707  17.566  0.00  0.00    +0.000 A 
ATOM      9  C   UNL     1       5.072   3.756  16.745  0.00  0.00    +0.000 A 
ATOM     10  C   UNL     1       5.622   4.125  15.514  0.00  0.00    +0.000 A 
ATOM     11  C   UNL     1       5.636   5.459  15.127  0.00  0.00    +0.000 A 
ATOM     12  C   UNL     1       5.074   6.421  15.963  0.00  0.00    +0.000 A 
ATOM     13  C   UNL     1       4.448   6.043  17.157  0.00  0.00    +0.000 A 
ATOM     14  C   UNL     1       3.628   7.047  17.859  0.00  0.00    +0.000 C 
ATOM     15  O   UNL     1       3.795   8.232  17.606  0.00  0.00    +0.000 OA
ATOM     16  N   UNL     1       2.648   6.573  18.719  0.00  0.00    +0.000 N 
ENDROOT
BRANCH  16  17
ATOM     17  C   UNL     1       1.571   7.526  19.069  0.00  0.00    +0.000 C 
BRANCH  17  18
ATOM     18  C   UNL     1       1.773   8.214  20.420  0.00  0.00    +0.000 C 
BRANCH  18  19
ATOM     19  C   UNL     1       0.475   8.803  20.947  0.00  0.00    +0.000 C 
ATOM     20  O   UNL     1      -0.395   8.116  21.473  0.00  0.00    +0.000 OA
ATOM     21  N   UNL     1       0.415  10.181  20.788  0.00  0.00    +0.000 N 
ATOM     22  H   UNL     1       0.953  10.576  20.022  0.00  0.00    +0.000 HD
BRANCH  21  23
ATOM     23  C   UNL     1      -0.606  11.002  21.315  0.00  0.00    +0.000 A 
ATOM     24  C   UNL     1      -0.808  11.164  22.688  0.00  0.00    +0.000 A 
ATOM     25  C   UNL     1      -1.811  12.024  23.153  0.00  0.00    +0.000 A 
ATOM     26  C   UNL     1      -2.623  12.690  22.240  0.00  0.00    +0.000 A 
ATOM     27  F   UNL     1      -3.591  13.496  22.696  0.00  0.00    +0.000 F 
ATOM     28  C   UNL     1      -2.435  12.534  20.873  0.00  0.00    +0.000 A 
ATOM     29  F   UNL     1      -3.233  13.166  20.005  0.00  0.00    +0.000 F 
ATOM     30  C   UNL     1      -1.411  11.711  20.415  0.00  0.00    +0.000 A 
ATOM     31  F   UNL     1      -1.219  11.560  19.095  0.00  0.00    +0.000 F 
ENDBRANCH  21  23
ENDBRANCH  18  19
ENDBRANCH  17  18
ENDBRANCH  16  17
TORSDOF 4
ENDMDL
MODEL 8
REMARK VINA RESULT:      -8.5      0.938      1.442
REMARK  Name = 
REMARK  5 active torsions:
REMARK  status: ('A' for Active; 'I' for Inactive)
REMARK    1  A    between atoms: C_1  and  C_2
REMARK    2  A    between atoms: N_16  and  C_17
REMARK    3  A    between atoms: C_17  and  C_18
REMARK    4  A    between atoms: C_18  and  C_19
REMARK    5  A    between atoms: N_21  and  C_22
REMARK                            x       y       z     vdW  Elec       q    Type
REMARK                         _______ _______ _______ _____ _____    ______ ____
ROOT
ATOM      1  C   UNL     1       2.500   4.553  20.270  0.00  0.00    +0.000 C 
ATOM      2  C   UNL     1       2.906   4.881  18.803  0.00  0.00    +0.000 C 
ATOM      3  C   UNL     1       1.774   4.478  17.839  0.00  0.00    +0.000 C 
ATOM      4  C   UNL     1       1.883   2.947  17.802  0.00  0.00    +0.000 C 
ATOM      5  C   UNL     1       3.307   2.673  18.241  0.00  0.00    +0.000 C 
ATOM      6  O   UNL     1       3.812   1.573  18.391  0.00  0.00    +0.000 OA
ATOM      7  N   UNL     1       3.943   3.937  18.364  0.00  0.00    +0.000 N 
ATOM      8  C   UNL     1       4.697   4.344  17.209  0.00  0.00    +0.000 A 
ATOM      9  C   UNL     1       5.115   3.414  16.241  0.00  0.00    +0.000 A 
ATOM     10  C   UNL     1       5.607   3.840  15.004  0.00  0.00    +0.000 A 
ATOM     11  C   UNL     1       5.782   5.195  14.751  0.00  0.00    +0.000 A 
ATOM     12  C   UNL     1       5.436   6.125  15.729  0.00  0.00    +0.000 A 
ATOM     13  C   UNL     1       4.865   5.704  16.936  0.00  0.00    +0.000 A 
ATOM     14  C   UNL     1       4.260   6.725  17.810  0.00  0.00    +0.000 C 
ATOM     15  O   UNL     1       4.575   7.898  17.660  0.00  0.00    +0.000 OA
ATOM     16  N   UNL     1       3.297   6.295  18.712  0.00  0.00    +0.000 N 
ENDROOT
BRANCH  16  17
ATOM     17  C   UNL     1       2.402   7.340  19.259  0.00  0.00    +0.000 C 
BRANCH  17  18
ATOM     18  C   UNL     1       1.730   8.197  18.185  0.00  0.00    +0.000 C 
BRANCH  18  19
ATOM     19  C   UNL     1       0.907   9.317  18.799  0.00  0.00    +0.000 C 
ATOM     20  O   UNL     1       0.076   9.952  18.157  0.00  0.00    +0.000 OA
ATOM     21  N   UNL     1       1.184   9.500  20.147  0.00  0.00    +0.000 N 
ATOM     22  H   UNL     1       2.112   9.234  20.463  0.00  0.00    +0.000 HD
BRANCH  21  23
ATOM     23  C   UNL     1       0.466  10.368  20.999  0.00  0.00    +0.000 A 
ATOM     24  C   UNL     1      -0.380   9.903  22.009  0.00  0.00    +0.000 A 
ATOM     25  C   UNL     1      -1.035  10.811  22.849  0.00  0.00    +0.000 A 
ATOM     26  C   UNL     1      -0.861  12.178  22.653  0.00  0.00    +0.000 A 
ATOM     27  F   UNL     1      -1.507  13.038  23.452  0.00  0.00    +0.000 F 
ATOM     28  C   UNL     1      -0.027  12.653  21.650  0.00  0.00    +0.000 A 
ATOM     29  F   UNL     1       0.118  13.969  21.460  0.00  0.00    +0.000 F 
ATOM     30  C   UNL     1       0.654  11.748  20.844  0.00  0.00    +0.000 A 
ATOM     31  F   UNL     1       1.468  12.200  19.876  0.00  0.00    +0.000 F 
ENDBRANCH  21  23
ENDBRANCH  18  19
ENDBRANCH  17  18
ENDBRANCH  16  17
TORSDOF 4
ENDMDL
MODEL 9
REMARK VINA RESULT:      -8.5      3.518      9.212
REMARK  Name = 
REMARK  5 active torsions:
REMARK  status: ('A' for Active; 'I' for Inactive)
REMARK    1  A    between atoms: C_1  and  C_2
REMARK    2  A    between atoms: N_16  and  C_17
REMARK    3  A    between atoms: C_17  and  C_18
REMARK    4  A    between atoms: C_18  and  C_19
REMARK    5  A    between atoms: N_21  and  C_22
REMARK                            x       y       z     vdW  Elec       q    Type
REMARK                         _______ _______ _______ _____ _____    ______ ____
ROOT
ATOM      1  C   UNL     1       2.142  12.056  18.206  0.00  0.00    +0.000 C 
ATOM      2  C   UNL     1       0.907  11.914  19.145  0.00  0.00    +0.000 C 
ATOM      3  C   UNL     1      -0.338  12.526  18.477  0.00  0.00    +0.000 C 
ATOM      4  C   UNL     1      -0.089  14.036  18.603  0.00  0.00    +0.000 C 
ATOM      5  C   UNL     1       0.898  14.147  19.749  0.00  0.00    +0.000 C 
ATOM      6  O   UNL     1       1.400  15.177  20.164  0.00  0.00    +0.000 OA
ATOM      7  N   UNL     1       1.051  12.838  20.278  0.00  0.00    +0.000 N 
ATOM      8  C   UNL     1       0.223  12.550  21.417  0.00  0.00    +0.000 A 
ATOM      9  C   UNL     1      -0.353  13.578  22.184  0.00  0.00    +0.000 A 
ATOM     10  C   UNL     1      -1.360  13.300  23.113  0.00  0.00    +0.000 A 
ATOM     11  C   UNL     1      -1.738  11.987  23.362  0.00  0.00    +0.000 A 
ATOM     12  C   UNL     1      -1.125  10.952  22.658  0.00  0.00    +0.000 A 
ATOM     13  C   UNL     1      -0.177  11.235  21.667  0.00  0.00    +0.000 A 
ATOM     14  C   UNL     1       0.228  10.143  20.764  0.00  0.00    +0.000 C 
ATOM     15  O   UNL     1       0.025   8.985  21.103  0.00  0.00    +0.000 OA
ATOM     16  N   UNL     1       0.750  10.504  19.530  0.00  0.00    +0.000 N 
ENDROOT
BRANCH  16  17
ATOM     17  C   UNL     1       0.742   9.455  18.486  0.00  0.00    +0.000 C 
BRANCH  17  18
ATOM     18  C   UNL     1       2.138   8.976  18.083  0.00  0.00    +0.000 C 
BRANCH  18  19
ATOM     19  C   UNL     1       2.474   7.638  18.719  0.00  0.00    +0.000 C 
ATOM     20  O   UNL     1       2.214   7.381  19.891  0.00  0.00    +0.000 OA
ATOM     21  N   UNL     1       3.066   6.759  17.823  0.00  0.00    +0.000 N 
ATOM     22  H   UNL     1       3.584   7.172  17.053  0.00  0.00    +0.000 HD
BRANCH  21  23
ATOM     23  C   UNL     1       3.349   5.404  18.101  0.00  0.00    +0.000 A 
ATOM     24  C   UNL     1       4.572   4.982  18.628  0.00  0.00    +0.000 A 
ATOM     25  C   UNL     1       4.780   3.629  18.922  0.00  0.00    +0.000 A 
ATOM     26  C   UNL     1       3.773   2.705  18.658  0.00  0.00    +0.000 A 
ATOM     27  F   UNL     1       3.991   1.411  18.927  0.00  0.00    +0.000 F 
ATOM     28  C   UNL     1       2.555   3.110  18.131  0.00  0.00    +0.000 A 
ATOM     29  F   UNL     1       1.601   2.211  17.865  0.00  0.00    +0.000 F 
ATOM     30  C   UNL     1       2.337   4.461  17.879  0.00  0.00    +0.000 A 
ATOM     31  F   UNL     1       1.159   4.861  17.374  0.00  0.00    +0.000 F 
ENDBRANCH  21  23
ENDBRANCH  18  19
ENDBRANCH  17  18
ENDBRANCH  16  17
TORSDOF 4
ENDMDL
