MODEL 1
REMARK VINA RESULT:      -9.4      0.000      0.000
REMARK  Name = 
REMARK  5 active torsions:
REMARK  status: ('A' for Active; 'I' for Inactive)
REMARK    1  A    between atoms: C_2  and  C_21
REMARK    2  A    between atoms: N_3  and  C_4
REMARK    3  A    between atoms: C_7  and  C_8
REMARK    4  A    between atoms: C_13  and  C_14
REMARK    5  A    between atoms: C_14  and  O_16
REMARK                            x       y       z     vdW  Elec       q    Type
REMARK                         _______ _______ _______ _____ _____    ______ ____
ROOT
ATOM      1  C   UNL     1       8.132   7.423  18.388  0.00  0.00    +0.000 A 
ATOM      2  C   UNL     1       7.415   7.556  17.198  0.00  0.00    +0.000 A 
ATOM      3  C   UNL     1       6.672   6.492  16.691  0.00  0.00    +0.000 A 
ATOM      4  C   UNL     1       6.534   5.327  17.440  0.00  0.00    +0.000 A 
ATOM      5  C   UNL     1       7.356   5.135  18.557  0.00  0.00    +0.000 A 
ATOM      6  C   UNL     1       8.174   6.175  19.016  0.00  0.00    +0.000 A 
ENDROOT
BRANCH   4   7
ATOM      7  C   UNL     1       5.512   4.298  17.119  0.00  0.00    +0.000 C 
ATOM      8  O   UNL     1       5.792   3.492  16.230  0.00  0.00    +0.000 OA
ATOM      9  N   UNL     1       4.324   4.225  17.859  0.00  0.00    +0.000 N 
ATOM     10  C   UNL     1       3.434   3.087  17.645  0.00  0.00    +0.000 C 
ATOM     11  C   UNL     1       2.000   3.556  17.390  0.00  0.00    +0.000 C 
ATOM     12  C   UNL     1       1.495   4.549  18.460  0.00  0.00    +0.000 C 
ATOM     13  C   UNL     1       2.531   5.665  18.666  0.00  0.00    +0.000 C 
ATOM     14  C   UNL     1       3.908   5.075  18.979  0.00  0.00    +0.000 C 
BRANCH  12  15
ATOM     15  C   UNL     1       1.164   3.867  19.786  0.00  0.00    +0.000 C 
ATOM     16  O   UNL     1       1.257   4.400  20.882  0.00  0.00    +0.000 OA
BRANCH  15  17
ATOM     17  O   UNL     1       0.692   2.613  19.645  0.00  0.00    +0.000 OA
ATOM     18  H   UNL     1       0.886   2.019  20.393  0.00  0.00    +0.000 HD
ENDBRANCH  15  17
ENDBRANCH  12  15
ENDBRANCH   4   7
BRANCH   1  21
ATOM     19  O   UNL     1       8.085  10.217  17.589  0.00  0.00    +0.000 OA
ATOM     20  C   UNL     1       8.757   9.817  18.536  0.00  0.00    +0.000 C 
ATOM     21  N   UNL     1       8.807   8.507  18.986  0.00  0.00    +0.000 N 
ATOM     22  H   UNL     1       9.245   8.329  19.884  0.00  0.00    +0.000 HD
BRANCH  20  23
ATOM     23  C   UNL     1       9.537  10.834  19.290  0.00  0.00    +0.000 A 
ATOM     24  C   UNL     1       9.142  11.118  20.606  0.00  0.00    +0.000 A 
ATOM     25  C   UNL     1       9.828  12.072  21.344  0.00  0.00    +0.000 A 
ATOM     26  F   UNL     1       9.445  12.335  22.600  0.00  0.00    +0.000 F 
ATOM     27  C   UNL     1      10.903  12.758  20.798  0.00  0.00    +0.000 A 
ATOM     28  C   UNL     1      11.307  12.484  19.493  0.00  0.00    +0.000 A 
ATOM     29  C   UNL     1      10.622  11.525  18.747  0.00  0.00    +0.000 A 
ATOM     30  F   UNL     1      11.040  11.281  17.495  0.00  0.00    +0.000 F 
ENDBRANCH  20  23
ENDBRANCH   1  21
TORSDOF 5
ENDMDL
MODEL 2
REMARK VINA RESULT:      -9.3      0.865      1.732
REMARK  Name = 
REMARK  5 active torsions:
REMARK  status: ('A' for Active; 'I' for Inactive)
REMARK    1  A    between atoms: C_2  and  C_21
REMARK    2  A    between atoms: N_3  and  C_4
REMARK    3  A    between atoms: C_7  and  C_8
REMARK    4  A    between atoms: C_13  and  C_14
REMARK    5  A    between atoms: C_14  and  O_16
REMARK                            x       y       z     vdW  Elec       q    Type
REMARK                         _______ _______ _______ _____ _____    ______ ____
ROOT
ATOM      1  C   UNL     1       8.150   7.434  18.263  0.00  0.00    +0.000 A 
ATOM      2  C   UNL     1       7.371   7.530  17.109  0.00  0.00    +0.000 A 
ATOM      3  C   UNL     1       6.542   6.480  16.719  0.00  0.00    +0.000 A 
ATOM      4  C   UNL     1       6.386   5.378  17.553  0.00  0.00    +0.000 A 
ATOM      5  C   UNL     1       7.261   5.211  18.633  0.00  0.00    +0.000 A 
ATOM      6  C   UNL     1       8.161   6.229  18.973  0.00  0.00    +0.000 A 
ENDROOT
BRANCH   4   7
ATOM      7  C   UNL     1       5.291   4.390  17.362  0.00  0.00    +0.000 C 
ATOM      8  O   UNL     1       5.377   3.645  16.385  0.00  0.00    +0.000 OA
ATOM      9  N   UNL     1       4.259   4.286  18.304  0.00  0.00    +0.000 N 
ATOM     10  C   UNL     1       3.312   3.181  18.186  0.00  0.00    +0.000 C 
ATOM     11  C   UNL     1       1.871   3.692  18.235  0.00  0.00    +0.000 C 
ATOM     12  C   UNL     1       1.602   4.615  19.445  0.00  0.00    +0.000 C 
ATOM     13  C   UNL     1       2.691   5.696  19.526  0.00  0.00    +0.000 C 
ATOM     14  C   UNL     1       4.084   5.062  19.537  0.00  0.00    +0.000 C 
BRANCH  12  15
ATOM     15  C   UNL     1       1.503   3.847  20.761  0.00  0.00    +0.000 C 
ATOM     16  O   UNL     1       2.210   4.049  21.737  0.00  0.00    +0.000 OA
BRANCH  15  17
ATOM     17  O   UNL     1       0.506   2.940  20.782  0.00  0.00    +0.000 OA
ATOM     18  H   UNL     1       0.318   2.522  19.922  0.00  0.00    +0.000 HD
ENDBRANCH  15  17
ENDBRANCH  12  15
ENDBRANCH   4   7
BRANCH   1  21
ATOM     19  O   UNL     1       7.864  10.255  17.626  0.00  0.00    +0.000 OA
ATOM     20  C   UNL     1       8.740   9.838  18.380  0.00  0.00    +0.000 C 
ATOM     21  N   UNL     1       8.917   8.513  18.746  0.00  0.00    +0.000 N 
ATOM     22  H   UNL     1       9.549   8.313  19.515  0.00  0.00    +0.000 HD
BRANCH  20  23
ATOM     23  C   UNL     1       9.646  10.848  18.988  0.00  0.00    +0.000 A 
ATOM     24  C   UNL     1      10.555  11.504  18.144  0.00  0.00    +0.000 A 
ATOM     25  C   UNL     1      11.434  12.442  18.667  0.00  0.00    +0.000 A 
ATOM     26  F   UNL     1      12.297  13.064  17.854  0.00  0.00    +0.000 F 
ATOM     27  C   UNL     1      11.431  12.742  20.022  0.00  0.00    +0.000 A 
ATOM     28  C   UNL     1      10.532  12.100  20.871  0.00  0.00    +0.000 A 
ATOM     29  C   UNL     1       9.646  11.157  20.350  0.00  0.00    +0.000 A 
ATOM     30  F   UNL     1       8.790  10.561  21.193  0.00  0.00    +0.000 F 
ENDBRANCH  20  23
ENDBRANCH   1  21
TORSDOF 5
ENDMDL
MODEL 3
REMARK VINA RESULT:      -9.3      1.192      2.286
REMARK  Name = 
REMARK  5 active torsions:
REMARK  status: ('A' for Active; 'I' for Inactive)
REMARK    1  A    between atoms: C_2  and  C_21
REMARK    2  A    between atoms: N_3  and  C_4
REMARK    3  A    between atoms: C_7  and  C_8
REMARK    4  A    between atoms: C_13  and  C_14
REMARK    5  A    between atoms: C_14  and  O_16
REMARK                            x       y       z     vdW  Elec       q    Type
REMARK                         _______ _______ _______ _____ _____    ______ ____
ROOT
ATOM      1  C   UNL     1       8.139   8.385  18.057  0.00  0.00    +0.000 A 
ATOM      2  C   UNL     1       8.422   7.241  18.805  0.00  0.00    +0.000 A 
ATOM      3  C   UNL     1       7.595   6.122  18.735  0.00  0.00    +0.000 A 
ATOM      4  C   UNL     1       6.552   6.091  17.814  0.00  0.00    +0.000 A 
ATOM      5  C   UNL     1       6.180   7.275  17.166  0.00  0.00    +0.000 A 
ATOM      6  C   UNL     1       6.960   8.429  17.307  0.00  0.00    +0.000 A 
ENDROOT
BRANCH   4   7
ATOM      7  C   UNL     1       5.846   4.831  17.462  0.00  0.00    +0.000 C 
ATOM      8  O   UNL     1       6.447   4.041  16.732  0.00  0.00    +0.000 OA
ATOM      9  N   UNL     1       4.586   4.549  18.006  0.00  0.00    +0.000 N 
ATOM     10  C   UNL     1       4.011   3.224  17.793  0.00  0.00    +0.000 C 
ATOM     11  C   UNL     1       2.582   3.329  17.258  0.00  0.00    +0.000 C 
ATOM     12  C   UNL     1       1.692   4.265  18.107  0.00  0.00    +0.000 C 
ATOM     13  C   UNL     1       2.413   5.601  18.338  0.00  0.00    +0.000 C 
ATOM     14  C   UNL     1       3.803   5.371  18.935  0.00  0.00    +0.000 C 
BRANCH  12  15
ATOM     15  C   UNL     1       1.277   3.637  19.436  0.00  0.00    +0.000 C 
ATOM     16  O   UNL     1       0.939   4.269  20.426  0.00  0.00    +0.000 OA
BRANCH  15  17
ATOM     17  O   UNL     1       1.256   2.290  19.413  0.00  0.00    +0.000 OA
ATOM     18  H   UNL     1       1.486   1.865  20.260  0.00  0.00    +0.000 HD
ENDBRANCH  15  17
ENDBRANCH  12  15
ENDBRANCH   4   7
BRANCH   1  21
ATOM     19  O   UNL     1       8.848  10.173  20.236  0.00  0.00    +0.000 OA
ATOM     20  C   UNL     1       9.285  10.322  19.097  0.00  0.00    +0.000 C 
ATOM     21  N   UNL     1       9.009   9.494  18.020  0.00  0.00    +0.000 N 
ATOM     22  H   UNL     1       9.570   9.604  17.181  0.00  0.00    +0.000 HD
BRANCH  20  23
ATOM     23  C   UNL     1      10.226  11.451  18.875  0.00  0.00    +0.000 A 
ATOM     24  C   UNL     1      10.404  11.905  17.560  0.00  0.00    +0.000 A 
ATOM     25  C   UNL     1      11.285  12.945  17.299  0.00  0.00    +0.000 A 
ATOM     26  F   UNL     1      11.447  13.373  16.040  0.00  0.00    +0.000 F 
ATOM     27  C   UNL     1      12.001  13.545  18.325  0.00  0.00    +0.000 A 
ATOM     28  C   UNL     1      11.833  13.105  19.636  0.00  0.00    +0.000 A 
ATOM     29  C   UNL     1      10.947  12.061  19.903  0.00  0.00    +0.000 A 
ATOM     30  F   UNL     1      10.804  11.666  21.177  0.00  0.00    +0.000 F 
ENDBRANCH  20  23
ENDBRANCH   1  21
TORSDOF 5
ENDMDL
MODEL 4
REMARK VINA RESULT:      -8.6      6.392      8.505
REMARK  Name = 
REMARK  5 active torsions:
REMARK  status: ('A' for Active; 'I' for Inactive)
REMARK    1  A    between atoms: C_2  and  C_21
REMARK    2  A    between atoms: N_3  and  C_4
REMARK    3  A    between atoms: C_7  and  C_8
REMARK    4  A    between atoms: C_13  and  C_14
REMARK    5  A    between atoms: C_14  and  O_16
REMARK                            x       y       z     vdW  Elec       q    Type
REMARK                         _______ _______ _______ _____ _____    ______ ____
ROOT
ATOM      1  C   UNL     1       0.616   9.576  19.610  0.00  0.00    +0.000 A 
ATOM      2  C   UNL     1       1.127   9.823  18.334  0.00  0.00    +0.000 A 
ATOM      3  C   UNL     1       2.165   9.049  17.820  0.00  0.00    +0.000 A 
ATOM      4  C   UNL     1       2.610   7.936  18.526  0.00  0.00    +0.000 A 
ATOM      5  C   UNL     1       2.205   7.764  19.855  0.00  0.00    +0.000 A 
ATOM      6  C   UNL     1       1.225   8.601  20.405  0.00  0.00    +0.000 A 
ENDROOT
BRANCH   4   7
ATOM      7  C   UNL     1       3.470   6.897  17.901  0.00  0.00    +0.000 C 
ATOM      8  O   UNL     1       4.431   7.292  17.239  0.00  0.00    +0.000 OA
ATOM      9  N   UNL     1       3.219   5.537  18.132  0.00  0.00    +0.000 N 
ATOM     10  C   UNL     1       4.194   4.556  17.664  0.00  0.00    +0.000 C 
ATOM     11  C   UNL     1       3.510   3.455  16.850  0.00  0.00    +0.000 C 
ATOM     12  C   UNL     1       2.301   2.831  17.582  0.00  0.00    +0.000 C 
ATOM     13  C   UNL     1       1.376   3.943  18.099  0.00  0.00    +0.000 C 
ATOM     14  C   UNL     1       2.157   4.945  18.953  0.00  0.00    +0.000 C 
BRANCH  12  15
ATOM     15  C   UNL     1       2.716   1.900  18.718  0.00  0.00    +0.000 C 
ATOM     16  O   UNL     1       2.079   1.735  19.748  0.00  0.00    +0.000 OA
BRANCH  15  17
ATOM     17  O   UNL     1       3.846   1.210  18.465  0.00  0.00    +0.000 OA
ATOM     18  H   UNL     1       4.660   1.745  18.474  0.00  0.00    +0.000 HD
ENDBRANCH  15  17
ENDBRANCH  12  15
ENDBRANCH   4   7
BRANCH   1  21
ATOM     19  O   UNL     1       0.588  11.753  21.535  0.00  0.00    +0.000 OA
ATOM     20  C   UNL     1      -0.443  11.285  21.059  0.00  0.00    +0.000 C 
ATOM     21  N   UNL     1      -0.502  10.267  20.120  0.00  0.00    +0.000 N 
ATOM     22  H   UNL     1      -1.391  10.092  19.664  0.00  0.00    +0.000 HD
BRANCH  20  23
ATOM     23  C   UNL     1      -1.727  11.900  21.488  0.00  0.00    +0.000 A 
ATOM     24  C   UNL     1      -2.082  11.797  22.842  0.00  0.00    +0.000 A 
ATOM     25  C   UNL     1      -3.278  12.340  23.288  0.00  0.00    +0.000 A 
ATOM     26  F   UNL     1      -3.608  12.237  24.583  0.00  0.00    +0.000 F 
ATOM     27  C   UNL     1      -4.138  12.985  22.411  0.00  0.00    +0.000 A 
ATOM     28  C   UNL     1      -3.798  13.097  21.065  0.00  0.00    +0.000 A 
ATOM     29  C   UNL     1      -2.595  12.554  20.612  0.00  0.00    +0.000 A 
ATOM     30  F   UNL     1      -2.295  12.684  19.311  0.00  0.00    +0.000 F 
ENDBRANCH  20  23
ENDBRANCH   1  21
TORSDOF 5
ENDMDL
MODEL 5
REMARK VINA RESULT:      -8.6      1.589      2.148
REMARK  Name = 
REMARK  5 active torsions:
REMARK  status: ('A' for Active; 'I' for Inactive)
REMARK    1  A    between atoms: C_2  and  C_21
REMARK    2  A    between atoms: N_3  and  C_4
REMARK    3  A    between atoms: C_7  and  C_8
REMARK    4  A    between atoms: C_13  and  C_14
REMARK    5  A    between atoms: C_14  and  O_16
REMARK                            x       y       z     vdW  Elec       q    Type
REMARK                         _______ _______ _______ _____ _____    ______ ____
ROOT
ATOM      1  C   UNL     1       7.694   8.554  17.825  0.00  0.00    +0.000 A 
ATOM      2  C   UNL     1       8.211   7.443  18.492  0.00  0.00    +0.000 A 
ATOM      3  C   UNL     1       7.521   6.233  18.503  0.00  0.00    +0.000 A 
ATOM      4  C   UNL     1       6.369   6.089  17.735  0.00  0.00    +0.000 A 
ATOM      5  C   UNL     1       5.773   7.228  17.181  0.00  0.00    +0.000 A 
ATOM      6  C   UNL     1       6.424   8.466  17.248  0.00  0.00    +0.000 A 
ENDROOT
BRANCH   4   7
ATOM      7  C   UNL     1       5.774   4.758  17.445  0.00  0.00    +0.000 C 
ATOM      8  O   UNL     1       6.420   4.005  16.715  0.00  0.00    +0.000 OA
ATOM      9  N   UNL     1       4.567   4.376  18.047  0.00  0.00    +0.000 N 
ATOM     10  C   UNL     1       4.114   2.996  17.893  0.00  0.00    +0.000 C 
ATOM     11  C   UNL     1       2.662   2.950  17.412  0.00  0.00    +0.000 C 
ATOM     12  C   UNL     1       1.719   3.824  18.269  0.00  0.00    +0.000 C 
ATOM     13  C   UNL     1       2.318   5.229  18.434  0.00  0.00    +0.000 C 
ATOM     14  C   UNL     1       3.744   5.149  18.983  0.00  0.00    +0.000 C 
BRANCH  12  15
ATOM     15  C   UNL     1       1.415   3.201  19.630  0.00  0.00    +0.000 C 
ATOM     16  O   UNL     1       1.802   2.100  19.990  0.00  0.00    +0.000 OA
BRANCH  15  17
ATOM     17  O   UNL     1       0.713   4.010  20.449  0.00  0.00    +0.000 OA
ATOM     18  H   UNL     1      -0.135   4.321  20.084  0.00  0.00    +0.000 HD
ENDBRANCH  15  17
ENDBRANCH  12  15
ENDBRANCH   4   7
BRANCH   1  21
ATOM     19  O   UNL     1       9.075  10.032  19.913  0.00  0.00    +0.000 OA
ATOM     20  C   UNL     1       9.031  10.426  18.750  0.00  0.00    +0.000 C 
ATOM     21  N   UNL     1       8.413   9.761  17.702  0.00  0.00    +0.000 N 
ATOM     22  H   UNL     1       8.600  10.084  16.758  0.00  0.00    +0.000 HD
BRANCH  20  23
ATOM     23  C   UNL     1       9.744  11.693  18.436  0.00  0.00    +0.000 A 
ATOM     24  C   UNL     1       8.968  12.824  18.140  0.00  0.00    +0.000 A 
ATOM     25  C   UNL     1       9.588  14.025  17.824  0.00  0.00    +0.000 A 
ATOM     26  F   UNL     1       8.839  15.100  17.544  0.00  0.00    +0.000 F 
ATOM     27  C   UNL     1      10.971  14.126  17.793  0.00  0.00    +0.000 A 
ATOM     28  C   UNL     1      11.753  13.011  18.087  0.00  0.00    +0.000 A 
ATOM     29  C   UNL     1      11.135  11.801  18.407  0.00  0.00    +0.000 A 
ATOM     30  F   UNL     1      11.917  10.749  18.690  0.00  0.00    +0.000 F 
ENDBRANCH  20  23
ENDBRANCH   1  21
TORSDOF 5
ENDMDL
MODEL 6
REMARK VINA RESULT:      -8.4      6.449      8.674
REMARK  Name = 
REMARK  5 active torsions:
REMARK  status: ('A' for Active; 'I' for Inactive)
REMARK    1  A    between atoms: C_2  and  C_21
REMARK    2  A    between atoms: N_3  and  C_4
REMARK    3  A    between atoms: C_7  and  C_8
REMARK    4  A    between atoms: C_13  and  C_14
REMARK    5  A    between atoms: C_14  and  O_16
REMARK                            x       y       z     vdW  Elec       q    Type
REMARK                         _______ _______ _______ _____ _____    ______ ____
ROOT
ATOM      1  C   UNL     1       0.547   9.529  19.586  0.00  0.00    +0.000 A 
ATOM      2  C   UNL     1       1.012   9.759  18.290  0.00  0.00    +0.000 A 
ATOM      3  C   UNL     1       2.062   9.009  17.767  0.00  0.00    +0.000 A 
ATOM      4  C   UNL     1       2.569   7.933  18.489  0.00  0.00    +0.000 A 
ATOM      5  C   UNL     1       2.208   7.784  19.834  0.00  0.00    +0.000 A 
ATOM      6  C   UNL     1       1.214   8.600  20.389  0.00  0.00    +0.000 A 
ENDROOT
BRANCH   4   7
ATOM      7  C   UNL     1       3.449   6.908  17.869  0.00  0.00    +0.000 C 
ATOM      8  O   UNL     1       4.409   7.320  17.214  0.00  0.00    +0.000 OA
ATOM      9  N   UNL     1       3.217   5.545  18.094  0.00  0.00    +0.000 N 
ATOM     10  C   UNL     1       4.209   4.579  17.630  0.00  0.00    +0.000 C 
ATOM     11  C   UNL     1       3.549   3.470  16.809  0.00  0.00    +0.000 C 
ATOM     12  C   UNL     1       2.343   2.827  17.530  0.00  0.00    +0.000 C 
ATOM     13  C   UNL     1       1.398   3.923  18.043  0.00  0.00    +0.000 C 
ATOM     14  C   UNL     1       2.158   4.935  18.905  0.00  0.00    +0.000 C 
BRANCH  12  15
ATOM     15  C   UNL     1       2.764   1.899  18.667  0.00  0.00    +0.000 C 
ATOM     16  O   UNL     1       2.122   1.723  19.692  0.00  0.00    +0.000 OA
BRANCH  15  17
ATOM     17  O   UNL     1       3.905   1.225  18.419  0.00  0.00    +0.000 OA
ATOM     18  H   UNL     1       4.707   1.778  18.399  0.00  0.00    +0.000 HD
ENDBRANCH  15  17
ENDBRANCH  12  15
ENDBRANCH   4   7
BRANCH   1  21
ATOM     19  O   UNL     1       0.414  12.201  20.722  0.00  0.00    +0.000 OA
ATOM     20  C   UNL     1      -0.568  11.466  20.660  0.00  0.00    +0.000 C 
ATOM     21  N   UNL     1      -0.581  10.193  20.110  0.00  0.00    +0.000 N 
ATOM     22  H   UNL     1      -1.483   9.756  19.945  0.00  0.00    +0.000 HD
BRANCH  20  23
ATOM     23  C   UNL     1      -1.855  12.009  21.170  0.00  0.00    +0.000 A 
ATOM     24  C   UNL     1      -2.796  12.452  20.229  0.00  0.00    +0.000 A 
ATOM     25  C   UNL     1      -4.005  12.983  20.656  0.00  0.00    +0.000 A 
ATOM     26  F   UNL     1      -4.899  13.401  19.751  0.00  0.00    +0.000 F 
ATOM     27  C   UNL     1      -4.299  13.088  22.008  0.00  0.00    +0.000 A 
ATOM     28  C   UNL     1      -3.373  12.650  22.953  0.00  0.00    +0.000 A 
ATOM     29  C   UNL     1      -2.157  12.114  22.529  0.00  0.00    +0.000 A 
ATOM     30  F   UNL     1      -1.291  11.697  23.464  0.00  0.00    +0.000 F 
ENDBRANCH  20  23
ENDBRANCH   1  21
TORSDOF 5
ENDMDL
MODEL 7
REMARK VINA RESULT:      -8.3      5.738      8.135
REMARK  Name = 
REMARK  5 active torsions:
REMARK  status: ('A' for Active; 'I' for Inactive)
REMARK    1  A    between atoms: C_2  and  C_21
REMARK    2  A    between atoms: N_3  and  C_4
REMARK    3  A    between atoms: C_7  and  C_8
REMARK    4  A    between atoms: C_13  and  C_14
REMARK    5  A    between atoms: C_14  and  O_16
REMARK                            x       y       z     vdW  Elec       q    Type
REMARK                         _______ _______ _______ _____ _____    ______ ____
ROOT
ATOM      1  C   UNL     1       1.208   8.975  19.855  0.00  0.00    +0.000 A 
ATOM      2  C   UNL     1       1.684   9.016  18.543  0.00  0.00    +0.000 A 
ATOM      3  C   UNL     1       2.311   7.908  17.978  0.00  0.00    +0.000 A 
ATOM      4  C   UNL     1       2.349   6.705  18.677  0.00  0.00    +0.000 A 
ATOM      5  C   UNL     1       2.003   6.694  20.034  0.00  0.00    +0.000 A 
ATOM      6  C   UNL     1       1.456   7.838  20.629  0.00  0.00    +0.000 A 
ENDROOT
BRANCH   4   7
ATOM      7  C   UNL     1       2.704   5.420  18.020  0.00  0.00    +0.000 C 
ATOM      8  O   UNL     1       1.868   4.517  18.073  0.00  0.00    +0.000 OA
ATOM      9  N   UNL     1       3.911   5.293  17.318  0.00  0.00    +0.000 N 
ATOM     10  C   UNL     1       4.137   4.087  16.526  0.00  0.00    +0.000 C 
ATOM     11  C   UNL     1       5.493   3.462  16.860  0.00  0.00    +0.000 C 
ATOM     12  C   UNL     1       6.655   4.479  16.792  0.00  0.00    +0.000 C 
ATOM     13  C   UNL     1       6.291   5.739  17.591  0.00  0.00    +0.000 C 
ATOM     14  C   UNL     1       4.950   6.310  17.124  0.00  0.00    +0.000 C 
BRANCH  12  15
ATOM     15  C   UNL     1       7.038   4.839  15.358  0.00  0.00    +0.000 C 
ATOM     16  O   UNL     1       7.772   5.766  15.049  0.00  0.00    +0.000 OA
BRANCH  15  17
ATOM     17  O   UNL     1       6.535   3.994  14.437  0.00  0.00    +0.000 OA
ATOM     18  H   UNL     1       7.203   3.476  13.953  0.00  0.00    +0.000 HD
ENDBRANCH  15  17
ENDBRANCH  12  15
ENDBRANCH   4   7
BRANCH   1  21
ATOM     19  O   UNL     1       1.216   9.873  22.619  0.00  0.00    +0.000 OA
ATOM     20  C   UNL     1       0.510  10.396  21.762  0.00  0.00    +0.000 C 
ATOM     21  N   UNL     1       0.474  10.036  20.423  0.00  0.00    +0.000 N 
ATOM     22  H   UNL     1      -0.003  10.656  19.777  0.00  0.00    +0.000 HD
BRANCH  20  23
ATOM     23  C   UNL     1      -0.335  11.543  22.188  0.00  0.00    +0.000 A 
ATOM     24  C   UNL     1      -1.480  11.264  22.951  0.00  0.00    +0.000 A 
ATOM     25  C   UNL     1      -2.310  12.299  23.358  0.00  0.00    +0.000 A 
ATOM     26  F   UNL     1      -3.399  12.024  24.087  0.00  0.00    +0.000 F 
ATOM     27  C   UNL     1      -2.026  13.615  23.019  0.00  0.00    +0.000 A 
ATOM     28  C   UNL     1      -0.892  13.906  22.264  0.00  0.00    +0.000 A 
ATOM     29  C   UNL     1      -0.054  12.869  21.853  0.00  0.00    +0.000 A 
ATOM     30  F   UNL     1       1.033  13.184  21.133  0.00  0.00    +0.000 F 
ENDBRANCH  20  23
ENDBRANCH   1  21
TORSDOF 5
ENDMDL
MODEL 8
REMARK VINA RESULT:      -8.2      6.319      8.182
REMARK  Name = 
REMARK  5 active torsions:
REMARK  status: ('A' for Active; 'I' for Inactive)
REMARK    1  A    between atoms: C_2  and  C_21
REMARK    2  A    between atoms: N_3  and  C_4
REMARK    3  A    between atoms: C_7  and  C_8
REMARK    4  A    between atoms: C_13  and  C_14
REMARK    5  A    between atoms: C_14  and  O_16
REMARK                            x       y       z     vdW  Elec       q    Type
REMARK                         _______ _______ _______ _____ _____    ______ ____
ROOT
ATOM      1  C   UNL     1       0.650   9.717  19.992  0.00  0.00    +0.000 A 
ATOM      2  C   UNL     1       1.124   8.618  20.710  0.00  0.00    +0.000 A 
ATOM      3  C   UNL     1       1.874   7.626  20.083  0.00  0.00    +0.000 A 
ATOM      4  C   UNL     1       2.267   7.792  18.758  0.00  0.00    +0.000 A 
ATOM      5  C   UNL     1       1.684   8.812  17.997  0.00  0.00    +0.000 A 
ATOM      6  C   UNL     1       0.855   9.760  18.610  0.00  0.00    +0.000 A 
ENDROOT
BRANCH   4   7
ATOM      7  C   UNL     1       3.320   6.948  18.134  0.00  0.00    +0.000 C 
ATOM      8  O   UNL     1       4.246   7.537  17.573  0.00  0.00    +0.000 OA
ATOM      9  N   UNL     1       3.274   5.553  18.257  0.00  0.00    +0.000 N 
ATOM     10  C   UNL     1       4.421   4.772  17.801  0.00  0.00    +0.000 C 
ATOM     11  C   UNL     1       3.975   3.643  16.869  0.00  0.00    +0.000 C 
ATOM     12  C   UNL     1       2.836   2.787  17.466  0.00  0.00    +0.000 C 
ATOM     13  C   UNL     1       1.715   3.701  17.983  0.00  0.00    +0.000 C 
ATOM     14  C   UNL     1       2.270   4.744  18.956  0.00  0.00    +0.000 C 
BRANCH  12  15
ATOM     15  C   UNL     1       3.321   1.848  18.568  0.00  0.00    +0.000 C 
ATOM     16  O   UNL     1       3.076   1.990  19.757  0.00  0.00    +0.000 OA
BRANCH  15  17
ATOM     17  O   UNL     1       4.013   0.787  18.108  0.00  0.00    +0.000 OA
ATOM     18  H   UNL     1       4.256   0.134  18.789  0.00  0.00    +0.000 HD
ENDBRANCH  15  17
ENDBRANCH  12  15
ENDBRANCH   4   7
BRANCH   1  21
ATOM     19  O   UNL     1       0.455  10.296  22.833  0.00  0.00    +0.000 OA
ATOM     20  C   UNL     1      -0.090  10.995  21.983  0.00  0.00    +0.000 C 
ATOM     21  N   UNL     1      -0.018  10.791  20.613  0.00  0.00    +0.000 N 
ATOM     22  H   UNL     1      -0.349  11.533  20.005  0.00  0.00    +0.000 HD
BRANCH  20  23
ATOM     23  C   UNL     1      -0.844  12.184  22.464  0.00  0.00    +0.000 A 
ATOM     24  C   UNL     1      -2.092  11.967  23.066  0.00  0.00    +0.000 A 
ATOM     25  C   UNL     1      -2.841  13.045  23.515  0.00  0.00    +0.000 A 
ATOM     26  F   UNL     1      -4.031  12.829  24.091  0.00  0.00    +0.000 F 
ATOM     27  C   UNL     1      -2.374  14.344  23.375  0.00  0.00    +0.000 A 
ATOM     28  C   UNL     1      -1.135  14.573  22.780  0.00  0.00    +0.000 A 
ATOM     29  C   UNL     1      -0.378  13.492  22.328  0.00  0.00    +0.000 A 
ATOM     30  F   UNL     1       0.813  13.747  21.766  0.00  0.00    +0.000 F 
ENDBRANCH  20  23
ENDBRANCH   1  21
TORSDOF 5
ENDMDL
MODEL 9
REMARK VINA RESULT:      -8.2      6.431      7.856
REMARK  Name = 
REMARK  5 active torsions:
REMARK  status: ('A' for Active; 'I' for Inactive)
REMARK    1  A    between atoms: C_2  and  C_21
REMARK    2  A    between atoms: N_3  and  C_4
REMARK    3  A    between atoms: C_7  and  C_8
REMARK    4  A    between atoms: C_13  and  C_14
REMARK    5  A    between atoms: C_14  and  O_16
REMARK                            x       y       z     vdW  Elec       q    Type
REMARK                         _______ _______ _______ _____ _____    ______ ____
ROOT
ATOM      1  C   UNL     1       0.608   9.948  19.715  0.00  0.00    +0.000 A 
ATOM      2  C   UNL     1       1.074   8.933  20.551  0.00  0.00    +0.000 A 
ATOM      3  C   UNL     1       1.828   7.879  20.041  0.00  0.00    +0.000 A 
ATOM      4  C   UNL     1       2.234   7.901  18.710  0.00  0.00    +0.000 A 
ATOM      5  C   UNL     1       1.659   8.835  17.838  0.00  0.00    +0.000 A 
ATOM      6  C   UNL     1       0.826   9.843  18.338  0.00  0.00    +0.000 A 
ENDROOT
BRANCH   4   7
ATOM      7  C   UNL     1       3.291   6.995  18.190  0.00  0.00    +0.000 C 
ATOM      8  O   UNL     1       4.322   7.524  17.770  0.00  0.00    +0.000 OA
ATOM      9  N   UNL     1       3.126   5.605  18.254  0.00  0.00    +0.000 N 
ATOM     10  C   UNL     1       4.259   4.749  17.914  0.00  0.00    +0.000 C 
ATOM     11  C   UNL     1       3.852   3.685  16.892  0.00  0.00    +0.000 C 
ATOM     12  C   UNL     1       2.586   2.905  17.310  0.00  0.00    +0.000 C 
ATOM     13  C   UNL     1       1.479   3.890  17.719  0.00  0.00    +0.000 C 
ATOM     14  C   UNL     1       1.984   4.858  18.791  0.00  0.00    +0.000 C 
BRANCH  12  15
ATOM     15  C   UNL     1       2.856   1.900  18.428  0.00  0.00    +0.000 C 
ATOM     16  O   UNL     1       3.969   1.571  18.810  0.00  0.00    +0.000 OA
BRANCH  15  17
ATOM     17  O   UNL     1       1.737   1.434  19.017  0.00  0.00    +0.000 OA
ATOM     18  H   UNL     1       1.318   0.684  18.556  0.00  0.00    +0.000 HD
ENDBRANCH  15  17
ENDBRANCH  12  15
ENDBRANCH   4   7
BRANCH   1  21
ATOM     19  O   UNL     1       1.763  12.300  20.974  0.00  0.00    +0.000 OA
ATOM     20  C   UNL     1       0.551  12.165  20.823  0.00  0.00    +0.000 C 
ATOM     21  N   UNL     1      -0.064  11.084  20.211  0.00  0.00    +0.000 N 
ATOM     22  H   UNL     1      -1.048  11.167  19.977  0.00  0.00    +0.000 HD
BRANCH  20  23
ATOM     23  C   UNL     1      -0.317  13.278  21.291  0.00  0.00    +0.000 A 
ATOM     24  C   UNL     1      -0.746  13.255  22.626  0.00  0.00    +0.000 A 
ATOM     25  C   UNL     1      -1.572  14.263  23.105  0.00  0.00    +0.000 A 
ATOM     26  F   UNL     1      -1.976  14.234  24.382  0.00  0.00    +0.000 F 
ATOM     27  C   UNL     1      -1.987  15.297  22.278  0.00  0.00    +0.000 A 
ATOM     28  C   UNL     1      -1.566  15.332  20.951  0.00  0.00    +0.000 A 
ATOM     29  C   UNL     1      -0.735  14.322  20.465  0.00  0.00    +0.000 A 
ATOM     30  F   UNL     1      -0.344  14.389  19.183  0.00  0.00    +0.000 F 
ENDBRANCH  20  23
ENDBRANCH   1  21
TORSDOF 5
ENDMDL
