MODEL 1
REMARK VINA RESULT:      -7.8      0.000      0.000
REMARK  Name = 
REMARK  5 active torsions:
REMARK  status: ('A' for Active; 'I' for Inactive)
REMARK    1  A    between atoms: C_4  and  C_5
REMARK    2  A    between atoms: C_5  and  N_6
REMARK    3  A    between atoms: N_6  and  C_7
REMARK    4  A    between atoms: C_7  and  C_8
REMARK    5  A    between atoms: C_13  and  C_14
REMARK                            x       y       z     vdW  Elec       q    Type
REMARK                         _______ _______ _______ _____ _____    ______ ____
ROOT
ATOM      1  N   UNL     1       3.305   4.031  19.430  0.00  0.00    +0.000 NA
ATOM      2  H   UNL     1       4.002   4.560  19.951  0.00  0.00    +0.000 HD
ENDROOT
BRANCH   1   3
ATOM      3  C   UNL     1       4.005   3.120  18.518  0.00  0.00    +0.000 C 
BRANCH   3   7
ATOM      4  F   UNL     1       5.039   4.362  13.902  0.00  0.00    +0.000 F 
ATOM      5  C   UNL     1       5.308   4.489  15.208  0.00  0.00    +0.000 A 
ATOM      6  C   UNL     1       4.530   3.819  16.137  0.00  0.00    +0.000 A 
ATOM      7  C   UNL     1       4.828   3.906  17.511  0.00  0.00    +0.000 A 
ATOM      8  C   UNL     1       5.864   4.745  17.954  0.00  0.00    +0.000 A 
ATOM      9  N   UNL     1       6.107   4.896  19.274  0.00  0.00    +0.000 NA
ATOM     10  C   UNL     1       7.114   5.712  19.659  0.00  0.00    +0.000 A 
ATOM     11  C   UNL     1       7.925   6.399  18.779  0.00  0.00    +0.000 A 
ATOM     12  C   UNL     1       7.683   6.248  17.421  0.00  0.00    +0.000 A 
ATOM     13  C   UNL     1       6.637   5.426  16.987  0.00  0.00    +0.000 A 
ATOM     14  C   UNL     1       6.365   5.282  15.619  0.00  0.00    +0.000 A 
ENDBRANCH   3   7
ENDBRANCH   1   3
BRANCH   1  15
ATOM     15  C   UNL     1       2.398   4.949  18.755  0.00  0.00    +0.000 C 
BRANCH  15  16
ATOM     16  C   UNL     1       2.569   6.358  19.373  0.00  0.00    +0.000 C 
ATOM     17  C   UNL     1       1.722   6.462  20.662  0.00  0.00    +0.000 C 
ATOM     18  C   UNL     1       1.186   7.825  21.076  0.00  0.00    +0.000 C 
ATOM     19  C   UNL     1       1.295   8.887  20.055  0.00  0.00    +0.000 A 
ATOM     20  N   UNL     1       0.887  10.130  20.191  0.00  0.00    +0.000 NA
ATOM     21  C   UNL     1       1.167  10.770  18.991  0.00  0.00    +0.000 A 
ATOM     22  C   UNL     1       1.778   9.867  18.134  0.00  0.00    +0.000 A 
ATOM     23  N   UNL     1       1.833   8.688  18.819  0.00  0.00    +0.000 N 
ATOM     24  C   UNL     1       2.284   7.418  18.303  0.00  0.00    +0.000 C 
BRANCH  21  25
ATOM     25  C   UNL     1       0.812  12.205  18.743  0.00  0.00    +0.000 C 
ATOM     26  F   UNL     1       1.709  12.860  17.959  0.00  0.00    +0.000 F 
ATOM     27  F   UNL     1      -0.399  12.326  18.137  0.00  0.00    +0.000 F 
ATOM     28  F   UNL     1       0.729  12.906  19.907  0.00  0.00    +0.000 F 
ENDBRANCH  21  25
ENDBRANCH  15  16
ENDBRANCH   1  15
TORSDOF 5
ENDMDL
MODEL 2
REMARK VINA RESULT:      -7.8      1.266      1.936
REMARK  Name = 
REMARK  5 active torsions:
REMARK  status: ('A' for Active; 'I' for Inactive)
REMARK    1  A    between atoms: C_4  and  C_5
REMARK    2  A    between atoms: C_5  and  N_6
REMARK    3  A    between atoms: N_6  and  C_7
REMARK    4  A    between atoms: C_7  and  C_8
REMARK    5  A    between atoms: C_13  and  C_14
REMARK                            x       y       z     vdW  Elec       q    Type
REMARK                         _______ _______ _______ _____ _____    ______ ____
ROOT
ATOM      1  N   UNL     1       3.024   3.526  18.984  0.00  0.00    +0.000 NA
ATOM      2  H   UNL     1       2.434   2.744  19.266  0.00  0.00    +0.000 HD
ENDROOT
BRANCH   1   3
ATOM      3  C   UNL     1       4.358   3.006  18.670  0.00  0.00    +0.000 C 
BRANCH   3   7
ATOM      4  F   UNL     1       4.913   4.394  14.013  0.00  0.00    +0.000 F 
ATOM      5  C   UNL     1       5.275   4.525  15.296  0.00  0.00    +0.000 A 
ATOM      6  C   UNL     1       4.632   3.780  16.269  0.00  0.00    +0.000 A 
ATOM      7  C   UNL     1       5.031   3.872  17.618  0.00  0.00    +0.000 A 
ATOM      8  C   UNL     1       6.027   4.788  17.995  0.00  0.00    +0.000 A 
ATOM      9  N   UNL     1       6.362   4.940  19.294  0.00  0.00    +0.000 NA
ATOM     10  C   UNL     1       7.326   5.832  19.614  0.00  0.00    +0.000 A 
ATOM     11  C   UNL     1       8.006   6.596  18.687  0.00  0.00    +0.000 A 
ATOM     12  C   UNL     1       7.668   6.444  17.351  0.00  0.00    +0.000 A 
ATOM     13  C   UNL     1       6.661   5.544  16.983  0.00  0.00    +0.000 A 
ATOM     14  C   UNL     1       6.293   5.398  15.638  0.00  0.00    +0.000 A 
ENDBRANCH   3   7
ENDBRANCH   1   3
BRANCH   1  15
ATOM     15  C   UNL     1       3.023   4.540  20.029  0.00  0.00    +0.000 C 
BRANCH  15  16
ATOM     16  C   UNL     1       2.062   5.680  19.613  0.00  0.00    +0.000 C 
ATOM     17  C   UNL     1       2.685   6.481  18.447  0.00  0.00    +0.000 C 
ATOM     18  C   UNL     1       2.327   7.953  18.297  0.00  0.00    +0.000 C 
ATOM     19  C   UNL     1       1.623   8.555  19.447  0.00  0.00    +0.000 A 
ATOM     20  N   UNL     1       1.231   9.807  19.540  0.00  0.00    +0.000 NA
ATOM     21  C   UNL     1       0.635   9.942  20.787  0.00  0.00    +0.000 A 
ATOM     22  C   UNL     1       0.666   8.715  21.433  0.00  0.00    +0.000 A 
ATOM     23  N   UNL     1       1.306   7.865  20.579  0.00  0.00    +0.000 N 
ATOM     24  C   UNL     1       1.680   6.498  20.851  0.00  0.00    +0.000 C 
BRANCH  21  25
ATOM     25  C   UNL     1       0.089  11.248  21.281  0.00  0.00    +0.000 C 
ATOM     26  F   UNL     1      -0.197  11.250  22.609  0.00  0.00    +0.000 F 
ATOM     27  F   UNL     1       0.959  12.270  21.065  0.00  0.00    +0.000 F 
ATOM     28  F   UNL     1      -1.062  11.583  20.635  0.00  0.00    +0.000 F 
ENDBRANCH  21  25
ENDBRANCH  15  16
ENDBRANCH   1  15
TORSDOF 5
ENDMDL
MODEL 3
REMARK VINA RESULT:      -7.7      3.499      9.172
REMARK  Name = 
REMARK  5 active torsions:
REMARK  status: ('A' for Active; 'I' for Inactive)
REMARK    1  A    between atoms: C_4  and  C_5
REMARK    2  A    between atoms: C_5  and  N_6
REMARK    3  A    between atoms: N_6  and  C_7
REMARK    4  A    between atoms: C_7  and  C_8
REMARK    5  A    between atoms: C_13  and  C_14
REMARK                            x       y       z     vdW  Elec       q    Type
REMARK                         _______ _______ _______ _____ _____    ______ ____
ROOT
ATOM      1  N   UNL     1       0.516   9.866  17.881  0.00  0.00    +0.000 NA
ATOM      2  H   UNL     1       0.787  10.507  17.137  0.00  0.00    +0.000 HD
ENDROOT
BRANCH   1   3
ATOM      3  C   UNL     1      -0.515  10.517  18.696  0.00  0.00    +0.000 C 
BRANCH   3   7
ATOM      4  F   UNL     1      -3.214   9.506  14.744  0.00  0.00    +0.000 F 
ATOM      5  C   UNL     1      -3.114  10.106  15.937  0.00  0.00    +0.000 A 
ATOM      6  C   UNL     1      -1.954   9.967  16.680  0.00  0.00    +0.000 A 
ATOM      7  C   UNL     1      -1.815  10.628  17.916  0.00  0.00    +0.000 A 
ATOM      8  C   UNL     1      -2.889  11.364  18.444  0.00  0.00    +0.000 A 
ATOM      9  N   UNL     1      -2.793  11.938  19.663  0.00  0.00    +0.000 NA
ATOM     10  C   UNL     1      -3.849  12.638  20.134  0.00  0.00    +0.000 A 
ATOM     11  C   UNL     1      -5.026  12.817  19.436  0.00  0.00    +0.000 A 
ATOM     12  C   UNL     1      -5.131  12.232  18.182  0.00  0.00    +0.000 A 
ATOM     13  C   UNL     1      -4.065  11.484  17.670  0.00  0.00    +0.000 A 
ATOM     14  C   UNL     1      -4.166  10.867  16.415  0.00  0.00    +0.000 A 
ENDBRANCH   3   7
ENDBRANCH   1   3
BRANCH   1  15
ATOM     15  C   UNL     1       1.695   9.471  18.638  0.00  0.00    +0.000 C 
BRANCH  15  16
ATOM     16  C   UNL     1       2.070   8.020  18.250  0.00  0.00    +0.000 C 
ATOM     17  C   UNL     1       2.263   7.176  19.531  0.00  0.00    +0.000 C 
ATOM     18  C   UNL     1       3.227   5.999  19.493  0.00  0.00    +0.000 C 
ATOM     19  C   UNL     1       4.102   5.933  18.306  0.00  0.00    +0.000 A 
ATOM     20  N   UNL     1       5.014   5.015  18.071  0.00  0.00    +0.000 NA
ATOM     21  C   UNL     1       5.607   5.349  16.861  0.00  0.00    +0.000 A 
ATOM     22  C   UNL     1       5.002   6.494  16.366  0.00  0.00    +0.000 A 
ATOM     23  N   UNL     1       4.072   6.851  17.299  0.00  0.00    +0.000 N 
ATOM     24  C   UNL     1       3.261   8.045  17.286  0.00  0.00    +0.000 C 
BRANCH  21  25
ATOM     25  C   UNL     1       6.730   4.551  16.269  0.00  0.00    +0.000 C 
ATOM     26  F   UNL     1       7.672   4.183  17.177  0.00  0.00    +0.000 F 
ATOM     27  F   UNL     1       6.283   3.410  15.683  0.00  0.00    +0.000 F 
ATOM     28  F   UNL     1       7.380   5.251  15.298  0.00  0.00    +0.000 F 
ENDBRANCH  21  25
ENDBRANCH  15  16
ENDBRANCH   1  15
TORSDOF 5
ENDMDL
MODEL 4
REMARK VINA RESULT:      -7.6      1.739      2.897
REMARK  Name = 
REMARK  5 active torsions:
REMARK  status: ('A' for Active; 'I' for Inactive)
REMARK    1  A    between atoms: C_4  and  C_5
REMARK    2  A    between atoms: C_5  and  N_6
REMARK    3  A    between atoms: N_6  and  C_7
REMARK    4  A    between atoms: C_7  and  C_8
REMARK    5  A    between atoms: C_13  and  C_14
REMARK                            x       y       z     vdW  Elec       q    Type
REMARK                         _______ _______ _______ _____ _____    ______ ____
ROOT
ATOM      1  N   UNL     1       3.640   4.252  19.207  0.00  0.00    +0.000 NA
ATOM      2  H   UNL     1       3.027   3.464  19.410  0.00  0.00    +0.000 HD
ENDROOT
BRANCH   1   3
ATOM      3  C   UNL     1       5.029   3.794  19.317  0.00  0.00    +0.000 C 
BRANCH   3   7
ATOM      4  F   UNL     1       8.430   7.296  19.019  0.00  0.00    +0.000 F 
ATOM      5  C   UNL     1       7.629   6.424  18.394  0.00  0.00    +0.000 A 
ATOM      6  C   UNL     1       6.828   5.574  19.136  0.00  0.00    +0.000 A 
ATOM      7  C   UNL     1       5.947   4.682  18.493  0.00  0.00    +0.000 A 
ATOM      8  C   UNL     1       5.941   4.589  17.091  0.00  0.00    +0.000 A 
ATOM      9  N   UNL     1       5.157   3.683  16.468  0.00  0.00    +0.000 NA
ATOM     10  C   UNL     1       5.180   3.626  15.118  0.00  0.00    +0.000 A 
ATOM     11  C   UNL     1       5.952   4.452  14.327  0.00  0.00    +0.000 A 
ATOM     12  C   UNL     1       6.758   5.386  14.959  0.00  0.00    +0.000 A 
ATOM     13  C   UNL     1       6.775   5.461  16.357  0.00  0.00    +0.000 A 
ATOM     14  C   UNL     1       7.603   6.385  17.011  0.00  0.00    +0.000 A 
ENDBRANCH   3   7
ENDBRANCH   1   3
BRANCH   1  15
ATOM     15  C   UNL     1       3.320   5.363  20.092  0.00  0.00    +0.000 C 
BRANCH  15  16
ATOM     16  C   UNL     1       2.355   6.323  19.354  0.00  0.00    +0.000 C 
ATOM     17  C   UNL     1       3.063   6.910  18.111  0.00  0.00    +0.000 C 
ATOM     18  C   UNL     1       2.652   8.291  17.620  0.00  0.00    +0.000 C 
ATOM     19  C   UNL     1       1.799   9.065  18.544  0.00  0.00    +0.000 A 
ATOM     20  N   UNL     1       1.338  10.279  18.332  0.00  0.00    +0.000 NA
ATOM     21  C   UNL     1       0.604  10.624  19.460  0.00  0.00    +0.000 A 
ATOM     22  C   UNL     1       0.624   9.561  20.350  0.00  0.00    +0.000 A 
ATOM     23  N   UNL     1       1.393   8.601  19.760  0.00  0.00    +0.000 N 
ATOM     24  C   UNL     1       1.801   7.348  20.349  0.00  0.00    +0.000 C 
BRANCH  21  25
ATOM     25  C   UNL     1      -0.055  11.962  19.611  0.00  0.00    +0.000 C 
ATOM     26  F   UNL     1      -0.658  12.402  18.475  0.00  0.00    +0.000 F 
ATOM     27  F   UNL     1      -1.007  11.947  20.581  0.00  0.00    +0.000 F 
ATOM     28  F   UNL     1       0.842  12.921  19.971  0.00  0.00    +0.000 F 
ENDBRANCH  21  25
ENDBRANCH  15  16
ENDBRANCH   1  15
TORSDOF 5
ENDMDL
MODEL 5
REMARK VINA RESULT:      -7.6      3.232      4.488
REMARK  Name = 
REMARK  5 active torsions:
REMARK  status: ('A' for Active; 'I' for Inactive)
REMARK    1  A    between atoms: C_4  and  C_5
REMARK    2  A    between atoms: C_5  and  N_6
REMARK    3  A    between atoms: N_6  and  C_7
REMARK    4  A    between atoms: C_7  and  C_8
REMARK    5  A    between atoms: C_13  and  C_14
REMARK                            x       y       z     vdW  Elec       q    Type
REMARK                         _______ _______ _______ _____ _____    ______ ____
ROOT
ATOM      1  N   UNL     1       1.817   8.014  18.855  0.00  0.00    +0.000 NA
ATOM      2  H   UNL     1       2.026   7.899  19.846  0.00  0.00    +0.000 HD
ENDROOT
BRANCH   1   3
ATOM      3  C   UNL     1       3.030   7.709  18.090  0.00  0.00    +0.000 C 
BRANCH   3   7
ATOM      4  F   UNL     1       1.017   3.252  18.105  0.00  0.00    +0.000 F 
ATOM      5  C   UNL     1       2.062   4.033  17.806  0.00  0.00    +0.000 A 
ATOM      6  C   UNL     1       1.991   5.395  18.041  0.00  0.00    +0.000 A 
ATOM      7  C   UNL     1       3.098   6.224  17.773  0.00  0.00    +0.000 A 
ATOM      8  C   UNL     1       4.254   5.685  17.183  0.00  0.00    +0.000 A 
ATOM      9  N   UNL     1       5.291   6.483  16.852  0.00  0.00    +0.000 NA
ATOM     10  C   UNL     1       6.384   5.924  16.286  0.00  0.00    +0.000 A 
ATOM     11  C   UNL     1       6.514   4.574  16.035  0.00  0.00    +0.000 A 
ATOM     12  C   UNL     1       5.454   3.747  16.375  0.00  0.00    +0.000 A 
ATOM     13  C   UNL     1       4.298   4.292  16.945  0.00  0.00    +0.000 A 
ATOM     14  C   UNL     1       3.209   3.472  17.271  0.00  0.00    +0.000 A 
ENDBRANCH   3   7
ENDBRANCH   1   3
BRANCH   1  15
ATOM     15  C   UNL     1       1.299   9.354  18.617  0.00  0.00    +0.000 C 
BRANCH  15  16
ATOM     16  C   UNL     1       1.102  10.059  19.982  0.00  0.00    +0.000 C 
ATOM     17  C   UNL     1       1.085   9.002  21.111  0.00  0.00    +0.000 C 
ATOM     18  C   UNL     1       0.286   9.294  22.373  0.00  0.00    +0.000 C 
ATOM     19  C   UNL     1      -0.629  10.451  22.292  0.00  0.00    +0.000 A 
ATOM     20  N   UNL     1      -1.420  10.875  23.253  0.00  0.00    +0.000 NA
ATOM     21  C   UNL     1      -2.109  11.967  22.742  0.00  0.00    +0.000 A 
ATOM     22  C   UNL     1      -1.687  12.195  21.441  0.00  0.00    +0.000 A 
ATOM     23  N   UNL     1      -0.769  11.221  21.176  0.00  0.00    +0.000 N 
ATOM     24  C   UNL     1      -0.126  10.972  19.908  0.00  0.00    +0.000 C 
BRANCH  21  25
ATOM     25  C   UNL     1      -3.143  12.708  23.536  0.00  0.00    +0.000 C 
ATOM     26  F   UNL     1      -3.784  11.933  24.451  0.00  0.00    +0.000 F 
ATOM     27  F   UNL     1      -2.602  13.753  24.217  0.00  0.00    +0.000 F 
ATOM     28  F   UNL     1      -4.107  13.234  22.731  0.00  0.00    +0.000 F 
ENDBRANCH  21  25
ENDBRANCH  15  16
ENDBRANCH   1  15
TORSDOF 5
ENDMDL
MODEL 6
REMARK VINA RESULT:      -7.6      2.962      4.407
REMARK  Name = 
REMARK  5 active torsions:
REMARK  status: ('A' for Active; 'I' for Inactive)
REMARK    1  A    between atoms: C_4  and  C_5
REMARK    2  A    between atoms: C_5  and  N_6
REMARK    3  A    between atoms: N_6  and  C_7
REMARK    4  A    between atoms: C_7  and  C_8
REMARK    5  A    between atoms: C_13  and  C_14
REMARK                            x       y       z     vdW  Elec       q    Type
REMARK                         _______ _______ _______ _____ _____    ______ ____
ROOT
ATOM      1  N   UNL     1       2.086   8.121  17.703  0.00  0.00    +0.000 NA
ATOM      2  H   UNL     1       1.225   7.798  17.266  0.00  0.00    +0.000 HD
ENDROOT
BRANCH   1   3
ATOM      3  C   UNL     1       2.421   7.201  18.794  0.00  0.00    +0.000 C 
BRANCH   3   7
ATOM      4  F   UNL     1       1.155   2.497  18.359  0.00  0.00    +0.000 F 
ATOM      5  C   UNL     1       2.014   3.481  18.067  0.00  0.00    +0.000 A 
ATOM      6  C   UNL     1       1.762   4.767  18.512  0.00  0.00    +0.000 A 
ATOM      7  C   UNL     1       2.678   5.805  18.251  0.00  0.00    +0.000 A 
ATOM      8  C   UNL     1       3.814   5.558  17.461  0.00  0.00    +0.000 A 
ATOM      9  N   UNL     1       4.658   6.562  17.140  0.00  0.00    +0.000 NA
ATOM     10  C   UNL     1       5.738   6.282  16.378  0.00  0.00    +0.000 A 
ATOM     11  C   UNL     1       6.044   5.019  15.913  0.00  0.00    +0.000 A 
ATOM     12  C   UNL     1       5.183   3.982  16.240  0.00  0.00    +0.000 A 
ATOM     13  C   UNL     1       4.044   4.238  17.011  0.00  0.00    +0.000 A 
ATOM     14  C   UNL     1       3.152   3.204  17.329  0.00  0.00    +0.000 A 
ENDBRANCH   3   7
ENDBRANCH   1   3
BRANCH   1  15
ATOM     15  C   UNL     1       1.928   9.503  18.133  0.00  0.00    +0.000 C 
BRANCH  15  16
ATOM     16  C   UNL     1       0.590   9.633  18.901  0.00  0.00    +0.000 C 
ATOM     17  C   UNL     1      -0.480  10.254  17.974  0.00  0.00    +0.000 C 
ATOM     18  C   UNL     1      -1.601  11.074  18.597  0.00  0.00    +0.000 C 
ATOM     19  C   UNL     1      -1.412  11.431  20.017  0.00  0.00    +0.000 A 
ATOM     20  N   UNL     1      -2.243  12.141  20.749  0.00  0.00    +0.000 NA
ATOM     21  C   UNL     1      -1.665  12.248  22.008  0.00  0.00    +0.000 A 
ATOM     22  C   UNL     1      -0.462  11.558  22.009  0.00  0.00    +0.000 A 
ATOM     23  N   UNL     1      -0.318  11.068  20.744  0.00  0.00    +0.000 N 
ATOM     24  C   UNL     1       0.833  10.371  20.222  0.00  0.00    +0.000 C 
BRANCH  21  25
ATOM     25  C   UNL     1      -2.302  13.025  23.121  0.00  0.00    +0.000 C 
ATOM     26  F   UNL     1      -1.406  13.640  23.937  0.00  0.00    +0.000 F 
ATOM     27  F   UNL     1      -3.133  13.992  22.650  0.00  0.00    +0.000 F 
ATOM     28  F   UNL     1      -3.062  12.222  23.916  0.00  0.00    +0.000 F 
ENDBRANCH  21  25
ENDBRANCH  15  16
ENDBRANCH   1  15
TORSDOF 5
ENDMDL
MODEL 7
REMARK VINA RESULT:      -7.5      3.875      9.221
REMARK  Name = 
REMARK  5 active torsions:
REMARK  status: ('A' for Active; 'I' for Inactive)
REMARK    1  A    between atoms: C_4  and  C_5
REMARK    2  A    between atoms: C_5  and  N_6
REMARK    3  A    between atoms: N_6  and  C_7
REMARK    4  A    between atoms: C_7  and  C_8
REMARK    5  A    between atoms: C_13  and  C_14
REMARK                            x       y       z     vdW  Elec       q    Type
REMARK                         _______ _______ _______ _____ _____    ______ ____
ROOT
ATOM      1  N   UNL     1       0.175  11.636  18.208  0.00  0.00    +0.000 NA
ATOM      2  H   UNL     1       0.377  12.612  17.995  0.00  0.00    +0.000 HD
ENDROOT
BRANCH   1   3
ATOM      3  C   UNL     1      -1.111  11.576  18.910  0.00  0.00    +0.000 C 
BRANCH   3   7
ATOM      4  F   UNL     1      -2.695   9.852  14.616  0.00  0.00    +0.000 F 
ATOM      5  C   UNL     1      -2.977  10.437  15.787  0.00  0.00    +0.000 A 
ATOM      6  C   UNL     1      -1.967  10.645  16.710  0.00  0.00    +0.000 A 
ATOM      7  C   UNL     1      -2.238  11.299  17.929  0.00  0.00    +0.000 A 
ATOM      8  C   UNL     1      -3.555  11.667  18.251  0.00  0.00    +0.000 A 
ATOM      9  N   UNL     1      -3.838  12.224  19.448  0.00  0.00    +0.000 NA
ATOM     10  C   UNL     1      -5.118  12.564  19.718  0.00  0.00    +0.000 A 
ATOM     11  C   UNL     1      -6.163  12.387  18.835  0.00  0.00    +0.000 A 
ATOM     12  C   UNL     1      -5.881  11.817  17.602  0.00  0.00    +0.000 A 
ATOM     13  C   UNL     1      -4.570  11.435  17.295  0.00  0.00    +0.000 A 
ATOM     14  C   UNL     1      -4.273  10.836  16.062  0.00  0.00    +0.000 A 
ENDBRANCH   3   7
ENDBRANCH   1   3
BRANCH   1  15
ATOM     15  C   UNL     1       1.280  11.062  18.964  0.00  0.00    +0.000 C 
BRANCH  15  16
ATOM     16  C   UNL     1       1.117   9.523  18.987  0.00  0.00    +0.000 C 
ATOM     17  C   UNL     1       1.036   9.034  20.451  0.00  0.00    +0.000 C 
ATOM     18  C   UNL     1       1.529   7.633  20.783  0.00  0.00    +0.000 C 
ATOM     19  C   UNL     1       2.298   6.962  19.715  0.00  0.00    +0.000 A 
ATOM     20  N   UNL     1       2.828   5.760  19.788  0.00  0.00    +0.000 NA
ATOM     21  C   UNL     1       3.471   5.539  18.576  0.00  0.00    +0.000 A 
ATOM     22  C   UNL     1       3.290   6.649  17.765  0.00  0.00    +0.000 A 
ATOM     23  N   UNL     1       2.564   7.534  18.508  0.00  0.00    +0.000 N 
ATOM     24  C   UNL     1       2.219   8.885  18.134  0.00  0.00    +0.000 C 
BRANCH  21  25
ATOM     25  C   UNL     1       4.232   4.280  18.288  0.00  0.00    +0.000 C 
ATOM     26  F   UNL     1       3.528   3.148  18.551  0.00  0.00    +0.000 F 
ATOM     27  F   UNL     1       4.615   4.210  16.986  0.00  0.00    +0.000 F 
ATOM     28  F   UNL     1       5.373   4.208  19.027  0.00  0.00    +0.000 F 
ENDBRANCH  21  25
ENDBRANCH  15  16
ENDBRANCH   1  15
TORSDOF 5
ENDMDL
MODEL 8
REMARK VINA RESULT:      -7.5      2.332      3.930
REMARK  Name = 
REMARK  5 active torsions:
REMARK  status: ('A' for Active; 'I' for Inactive)
REMARK    1  A    between atoms: C_4  and  C_5
REMARK    2  A    between atoms: C_5  and  N_6
REMARK    3  A    between atoms: N_6  and  C_7
REMARK    4  A    between atoms: C_7  and  C_8
REMARK    5  A    between atoms: C_13  and  C_14
REMARK                            x       y       z     vdW  Elec       q    Type
REMARK                         _______ _______ _______ _____ _____    ______ ____
ROOT
ATOM      1  N   UNL     1       1.985   7.105  20.303  0.00  0.00    +0.000 NA
ATOM      2  H   UNL     1       1.559   7.062  19.379  0.00  0.00    +0.000 HD
ENDROOT
BRANCH   1   3
ATOM      3  C   UNL     1       2.023   5.748  20.856  0.00  0.00    +0.000 C 
BRANCH   3   7
ATOM      4  F   UNL     1       0.226   1.843  18.522  0.00  0.00    +0.000 F 
ATOM      5  C   UNL     1       1.176   2.782  18.616  0.00  0.00    +0.000 A 
ATOM      6  C   UNL     1       1.087   3.754  19.598  0.00  0.00    +0.000 A 
ATOM      7  C   UNL     1       2.101   4.722  19.738  0.00  0.00    +0.000 A 
ATOM      8  C   UNL     1       3.168   4.758  18.825  0.00  0.00    +0.000 A 
ATOM      9  N   UNL     1       4.105   5.728  18.904  0.00  0.00    +0.000 NA
ATOM     10  C   UNL     1       5.115   5.728  18.006  0.00  0.00    +0.000 A 
ATOM     11  C   UNL     1       5.260   4.782  17.012  0.00  0.00    +0.000 A 
ATOM     12  C   UNL     1       4.304   3.781  16.926  0.00  0.00    +0.000 A 
ATOM     13  C   UNL     1       3.232   3.761  17.826  0.00  0.00    +0.000 A 
ATOM     14  C   UNL     1       2.245   2.769  17.736  0.00  0.00    +0.000 A 
ENDBRANCH   3   7
ENDBRANCH   1   3
BRANCH   1  15
ATOM     15  C   UNL     1       1.257   8.054  21.134  0.00  0.00    +0.000 C 
BRANCH  15  16
ATOM     16  C   UNL     1       0.786   9.231  20.245  0.00  0.00    +0.000 C 
ATOM     17  C   UNL     1       1.482   9.148  18.867  0.00  0.00    +0.000 C 
ATOM     18  C   UNL     1       1.732  10.436  18.095  0.00  0.00    +0.000 C 
ATOM     19  C   UNL     1       1.530  11.683  18.860  0.00  0.00    +0.000 A 
ATOM     20  N   UNL     1       1.700  12.904  18.400  0.00  0.00    +0.000 NA
ATOM     21  C   UNL     1       1.420  13.764  19.454  0.00  0.00    +0.000 A 
ATOM     22  C   UNL     1       1.057  13.013  20.561  0.00  0.00    +0.000 A 
ATOM     23  N   UNL     1       1.149  11.710  20.168  0.00  0.00    +0.000 N 
ATOM     24  C   UNL     1       0.976  10.548  21.006  0.00  0.00    +0.000 C 
BRANCH  21  25
ATOM     25  C   UNL     1       1.539  15.253  19.329  0.00  0.00    +0.000 C 
ATOM     26  F   UNL     1       1.961  15.664  18.104  0.00  0.00    +0.000 F 
ATOM     27  F   UNL     1       0.354  15.875  19.564  0.00  0.00    +0.000 F 
ATOM     28  F   UNL     1       2.423  15.760  20.233  0.00  0.00    +0.000 F 
ENDBRANCH  21  25
ENDBRANCH  15  16
ENDBRANCH   1  15
TORSDOF 5
ENDMDL
MODEL 9
REMARK VINA RESULT:      -7.5      2.127      8.066
REMARK  Name = 
REMARK  5 active torsions:
REMARK  status: ('A' for Active; 'I' for Inactive)
REMARK    1  A    between atoms: C_4  and  C_5
REMARK    2  A    between atoms: C_5  and  N_6
REMARK    3  A    between atoms: N_6  and  C_7
REMARK    4  A    between atoms: C_7  and  C_8
REMARK    5  A    between atoms: C_13  and  C_14
REMARK                            x       y       z     vdW  Elec       q    Type
REMARK                         _______ _______ _______ _____ _____    ______ ____
ROOT
ATOM      1  N   UNL     1       1.910   6.964  20.732  0.00  0.00    +0.000 NA
ATOM      2  H   UNL     1       2.755   7.198  21.250  0.00  0.00    +0.000 HD
ENDROOT
BRANCH   1   3
ATOM      3  C   UNL     1       0.793   7.721  21.309  0.00  0.00    +0.000 C 
BRANCH   3   7
ATOM      4  F   UNL     1       1.903  10.865  17.731  0.00  0.00    +0.000 F 
ATOM      5  C   UNL     1       1.303  10.636  18.906  0.00  0.00    +0.000 A 
ATOM      6  C   UNL     1       1.313   9.361  19.444  0.00  0.00    +0.000 A 
ATOM      7  C   UNL     1       0.725   9.112  20.700  0.00  0.00    +0.000 A 
ATOM      8  C   UNL     1       0.048  10.141  21.375  0.00  0.00    +0.000 A 
ATOM      9  N   UNL     1      -0.585   9.894  22.542  0.00  0.00    +0.000 NA
ATOM     10  C   UNL     1      -1.225  10.912  23.160  0.00  0.00    +0.000 A 
ATOM     11  C   UNL     1      -1.262  12.204  22.675  0.00  0.00    +0.000 A 
ATOM     12  C   UNL     1      -0.612  12.466  21.478  0.00  0.00    +0.000 A 
ATOM     13  C   UNL     1       0.044  11.432  20.800  0.00  0.00    +0.000 A 
ATOM     14  C   UNL     1       0.685  11.676  19.577  0.00  0.00    +0.000 A 
ENDBRANCH   3   7
ENDBRANCH   1   3
BRANCH   1  15
ATOM     15  C   UNL     1       1.708   5.522  20.751  0.00  0.00    +0.000 C 
BRANCH  15  16
ATOM     16  C   UNL     1       1.974   4.966  19.331  0.00  0.00    +0.000 C 
ATOM     17  C   UNL     1       2.147   3.431  19.402  0.00  0.00    +0.000 C 
ATOM     18  C   UNL     1       3.029   2.747  18.367  0.00  0.00    +0.000 C 
ATOM     19  C   UNL     1       3.864   3.648  17.548  0.00  0.00    +0.000 A 
ATOM     20  N   UNL     1       4.705   3.276  16.608  0.00  0.00    +0.000 NA
ATOM     21  C   UNL     1       5.284   4.438  16.115  0.00  0.00    +0.000 A 
ATOM     22  C   UNL     1       4.743   5.526  16.783  0.00  0.00    +0.000 A 
ATOM     23  N   UNL     1       3.866   5.004  17.688  0.00  0.00    +0.000 N 
ATOM     24  C   UNL     1       3.136   5.737  18.695  0.00  0.00    +0.000 C 
BRANCH  21  25
ATOM     25  C   UNL     1       6.334   4.422  15.045  0.00  0.00    +0.000 C 
ATOM     26  F   UNL     1       6.222   3.371  14.190  0.00  0.00    +0.000 F 
ATOM     27  F   UNL     1       6.298   5.549  14.287  0.00  0.00    +0.000 F 
ATOM     28  F   UNL     1       7.586   4.357  15.576  0.00  0.00    +0.000 F 
ENDBRANCH  21  25
ENDBRANCH  15  16
ENDBRANCH   1  15
TORSDOF 5
ENDMDL
