MODEL 1
REMARK VINA RESULT:      -8.2      0.000      0.000
REMARK  Name = 
REMARK  7 active torsions:
REMARK  status: ('A' for Active; 'I' for Inactive)
REMARK    1  A    between atoms: C_1  and  C_2
REMARK    2  A    between atoms: C_2  and  N_3
REMARK    3  A    between atoms: C_7  and  C_8
REMARK    4  A    between atoms: C_8  and  C_9
REMARK    5  A    between atoms: C_11  and  N_12
REMARK    6  A    between atoms: C_19  and  C_20
REMARK    7  A    between atoms: C_28  and  C_29
REMARK                            x       y       z     vdW  Elec       q    Type
REMARK                         _______ _______ _______ _____ _____    ______ ____
ROOT
ATOM      1  C   UNL     1       1.252   8.743  19.749  0.00  0.00    +0.000 A 
ATOM      2  C   UNL     1       1.972   7.610  20.163  0.00  0.00    +0.000 A 
ATOM      3  C   UNL     1       2.724   6.855  19.249  0.00  0.00    +0.000 A 
ATOM      4  C   UNL     1       2.979   7.388  17.984  0.00  0.00    +0.000 A 
ATOM      5  C   UNL     1       2.324   8.550  17.578  0.00  0.00    +0.000 A 
ATOM      6  C   UNL     1       1.406   9.194  18.424  0.00  0.00    +0.000 A 
ATOM      7  C   UNL     1       0.520  10.264  17.850  0.00  0.00    +0.000 C 
ENDROOT
BRANCH   3   8
ATOM      8  N   UNL     1       2.888   5.430  19.449  0.00  0.00    +0.000 N 
ATOM      9  C   UNL     1       4.291   5.114  19.798  0.00  0.00    +0.000 C 
ATOM     10  C   UNL     1       4.878   4.727  18.478  0.00  0.00    +0.000 A 
ATOM     11  C   UNL     1       3.834   4.283  17.663  0.00  0.00    +0.000 A 
ATOM     12  C   UNL     1       4.001   3.970  16.327  0.00  0.00    +0.000 A 
ATOM     13  C   UNL     1       5.281   4.112  15.796  0.00  0.00    +0.000 A 
ATOM     14  C   UNL     1       6.342   4.571  16.601  0.00  0.00    +0.000 A 
ATOM     15  C   UNL     1       6.158   4.903  17.960  0.00  0.00    +0.000 A 
ATOM     16  C   UNL     1       2.561   4.607  18.342  0.00  0.00    +0.000 C 
ATOM     17  O   UNL     1       1.460   4.357  17.884  0.00  0.00    +0.000 OA
BRANCH  15  18
ATOM     18  C   UNL     1       7.290   5.531  18.731  0.00  0.00    +0.000 C 
ATOM     19  F   UNL     1       8.485   4.893  18.577  0.00  0.00    +0.000 F 
ATOM     20  F   UNL     1       7.525   6.817  18.333  0.00  0.00    +0.000 F 
ATOM     21  F   UNL     1       7.076   5.593  20.070  0.00  0.00    +0.000 F 
ENDBRANCH  15  18
ENDBRANCH   3   8
BRANCH   1  22
ATOM     22  C   UNL     1       0.232   9.321  20.717  0.00  0.00    +0.000 C 
BRANCH  22  27
ATOM     23  N   UNL     1      -0.537  11.758  20.760  0.00  0.00    +0.000 N 
ATOM     24  C   UNL     1       0.056  12.948  21.069  0.00  0.00    +0.000 A 
ATOM     25  N   UNL     1       1.290  12.735  21.453  0.00  0.00    +0.000 NA
ATOM     26  N   UNL     1       1.514  11.379  21.395  0.00  0.00    +0.000 NA
ATOM     27  C   UNL     1       0.411  10.788  20.981  0.00  0.00    +0.000 A 
BRANCH  23  29
ATOM     28  C   UNL     1      -2.669  12.928  20.347  0.00  0.00    +0.000 C 
ATOM     29  C   UNL     1      -1.898  11.619  20.299  0.00  0.00    +0.000 C 
ENDBRANCH  23  29
ENDBRANCH  22  27
ENDBRANCH   1  22
TORSDOF 5
ENDMDL
MODEL 2
REMARK VINA RESULT:      -8.1      6.504      9.452
REMARK  Name = 
REMARK  7 active torsions:
REMARK  status: ('A' for Active; 'I' for Inactive)
REMARK    1  A    between atoms: C_1  and  C_2
REMARK    2  A    between atoms: C_2  and  N_3
REMARK    3  A    between atoms: C_7  and  C_8
REMARK    4  A    between atoms: C_8  and  C_9
REMARK    5  A    between atoms: C_11  and  N_12
REMARK    6  A    between atoms: C_19  and  C_20
REMARK    7  A    between atoms: C_28  and  C_29
REMARK                            x       y       z     vdW  Elec       q    Type
REMARK                         _______ _______ _______ _____ _____    ______ ____
ROOT
ATOM      1  C   UNL     1      -5.845  12.835  22.171  0.00  0.00    +0.000 A 
ATOM      2  C   UNL     1      -4.568  12.765  21.590  0.00  0.00    +0.000 A 
ATOM      3  C   UNL     1      -3.409  12.869  22.374  0.00  0.00    +0.000 A 
ATOM      4  C   UNL     1      -3.522  12.763  23.762  0.00  0.00    +0.000 A 
ATOM      5  C   UNL     1      -4.784  12.763  24.355  0.00  0.00    +0.000 A 
ATOM      6  C   UNL     1      -5.948  12.871  23.575  0.00  0.00    +0.000 A 
ATOM      7  C   UNL     1      -7.255  13.153  24.261  0.00  0.00    +0.000 C 
ENDROOT
BRANCH   3   8
ATOM      8  N   UNL     1      -2.209  13.458  21.818  0.00  0.00    +0.000 N 
ATOM      9  C   UNL     1      -2.170  13.268  20.351  0.00  0.00    +0.000 C 
ATOM     10  C   UNL     1      -1.319  12.047  20.201  0.00  0.00    +0.000 A 
ATOM     11  C   UNL     1      -0.503  11.958  21.330  0.00  0.00    +0.000 A 
ATOM     12  C   UNL     1       0.318  10.875  21.583  0.00  0.00    +0.000 A 
ATOM     13  C   UNL     1       0.312   9.841  20.650  0.00  0.00    +0.000 A 
ATOM     14  C   UNL     1      -0.516   9.909  19.513  0.00  0.00    +0.000 A 
ATOM     15  C   UNL     1      -1.362  11.012  19.271  0.00  0.00    +0.000 A 
ATOM     16  C   UNL     1      -0.981  12.952  22.314  0.00  0.00    +0.000 C 
ATOM     17  O   UNL     1      -0.484  13.119  23.414  0.00  0.00    +0.000 OA
BRANCH  15  18
ATOM     18  C   UNL     1      -2.335  10.964  18.121  0.00  0.00    +0.000 C 
ATOM     19  F   UNL     1      -3.625  11.224  18.477  0.00  0.00    +0.000 F 
ATOM     20  F   UNL     1      -2.039  11.895  17.165  0.00  0.00    +0.000 F 
ATOM     21  F   UNL     1      -2.365   9.770  17.476  0.00  0.00    +0.000 F 
ENDBRANCH  15  18
ENDBRANCH   3   8
BRANCH   1  22
ATOM     22  C   UNL     1      -7.033  13.021  21.240  0.00  0.00    +0.000 C 
BRANCH  22  27
ATOM     23  N   UNL     1      -6.827  12.771  18.705  0.00  0.00    +0.000 N 
ATOM     24  C   UNL     1      -6.828  11.716  17.839  0.00  0.00    +0.000 A 
ATOM     25  N   UNL     1      -6.929  10.598  18.514  0.00  0.00    +0.000 NA
ATOM     26  N   UNL     1      -6.997  10.923  19.849  0.00  0.00    +0.000 NA
ATOM     27  C   UNL     1      -6.932  12.234  19.965  0.00  0.00    +0.000 A 
BRANCH  23  29
ATOM     28  C   UNL     1      -6.882  14.343  16.805  0.00  0.00    +0.000 C 
ATOM     29  C   UNL     1      -6.731  14.155  18.305  0.00  0.00    +0.000 C 
ENDBRANCH  23  29
ENDBRANCH  22  27
ENDBRANCH   1  22
TORSDOF 5
ENDMDL
MODEL 3
REMARK VINA RESULT:      -8.1      4.550      8.265
REMARK  Name = 
REMARK  7 active torsions:
REMARK  status: ('A' for Active; 'I' for Inactive)
REMARK    1  A    between atoms: C_1  and  C_2
REMARK    2  A    between atoms: C_2  and  N_3
REMARK    3  A    between atoms: C_7  and  C_8
REMARK    4  A    between atoms: C_8  and  C_9
REMARK    5  A    between atoms: C_11  and  N_12
REMARK    6  A    between atoms: C_19  and  C_20
REMARK    7  A    between atoms: C_28  and  C_29
REMARK                            x       y       z     vdW  Elec       q    Type
REMARK                         _______ _______ _______ _____ _____    ______ ____
ROOT
ATOM      1  C   UNL     1       5.889   4.324  16.203  0.00  0.00    +0.000 A 
ATOM      2  C   UNL     1       4.492   4.339  16.058  0.00  0.00    +0.000 A 
ATOM      3  C   UNL     1       3.660   4.786  17.097  0.00  0.00    +0.000 A 
ATOM      4  C   UNL     1       4.232   5.473  18.169  0.00  0.00    +0.000 A 
ATOM      5  C   UNL     1       5.619   5.527  18.297  0.00  0.00    +0.000 A 
ATOM      6  C   UNL     1       6.454   4.895  17.359  0.00  0.00    +0.000 A 
ATOM      7  C   UNL     1       7.913   4.734  17.683  0.00  0.00    +0.000 C 
ENDROOT
BRANCH   3   8
ATOM      8  N   UNL     1       2.338   4.218  17.261  0.00  0.00    +0.000 N 
ATOM      9  C   UNL     1       1.474   5.134  18.038  0.00  0.00    +0.000 C 
ATOM     10  C   UNL     1       1.587   4.593  19.428  0.00  0.00    +0.000 A 
ATOM     11  C   UNL     1       1.929   3.243  19.330  0.00  0.00    +0.000 A 
ATOM     12  C   UNL     1       2.243   2.463  20.427  0.00  0.00    +0.000 A 
ATOM     13  C   UNL     1       2.208   3.079  21.676  0.00  0.00    +0.000 A 
ATOM     14  C   UNL     1       1.878   4.444  21.790  0.00  0.00    +0.000 A 
ATOM     15  C   UNL     1       1.574   5.235  20.662  0.00  0.00    +0.000 A 
ATOM     16  C   UNL     1       2.278   2.964  17.920  0.00  0.00    +0.000 C 
ATOM     17  O   UNL     1       2.631   1.874  17.506  0.00  0.00    +0.000 OA
BRANCH  15  18
ATOM     18  C   UNL     1       1.377   6.720  20.828  0.00  0.00    +0.000 C 
ATOM     19  F   UNL     1       0.082   7.086  21.041  0.00  0.00    +0.000 F 
ATOM     20  F   UNL     1       2.061   7.207  21.906  0.00  0.00    +0.000 F 
ATOM     21  F   UNL     1       1.796   7.452  19.764  0.00  0.00    +0.000 F 
ENDBRANCH  15  18
ENDBRANCH   3   8
BRANCH   1  22
ATOM     22  C   UNL     1       6.695   3.553  15.170  0.00  0.00    +0.000 C 
BRANCH  22  27
ATOM     23  N   UNL     1       6.840   4.083  12.674  0.00  0.00    +0.000 N 
ATOM     24  C   UNL     1       7.452   5.050  11.930  0.00  0.00    +0.000 A 
ATOM     25  N   UNL     1       8.067   5.889  12.726  0.00  0.00    +0.000 NA
ATOM     26  N   UNL     1       7.856   5.466  14.018  0.00  0.00    +0.000 NA
ATOM     27  C   UNL     1       7.113   4.378  13.988  0.00  0.00    +0.000 A 
BRANCH  23  29
ATOM     28  C   UNL     1       4.640   3.389  11.801  0.00  0.00    +0.000 C 
ATOM     29  C   UNL     1       6.071   2.992  12.122  0.00  0.00    +0.000 C 
ENDBRANCH  23  29
ENDBRANCH  22  27
ENDBRANCH   1  22
TORSDOF 5
ENDMDL
MODEL 4
REMARK VINA RESULT:      -7.9      1.350      1.730
REMARK  Name = 
REMARK  7 active torsions:
REMARK  status: ('A' for Active; 'I' for Inactive)
REMARK    1  A    between atoms: C_1  and  C_2
REMARK    2  A    between atoms: C_2  and  N_3
REMARK    3  A    between atoms: C_7  and  C_8
REMARK    4  A    between atoms: C_8  and  C_9
REMARK    5  A    between atoms: C_11  and  N_12
REMARK    6  A    between atoms: C_19  and  C_20
REMARK    7  A    between atoms: C_28  and  C_29
REMARK                            x       y       z     vdW  Elec       q    Type
REMARK                         _______ _______ _______ _____ _____    ______ ____
ROOT
ATOM      1  C   UNL     1       0.827   9.044  20.003  0.00  0.00    +0.000 A 
ATOM      2  C   UNL     1       1.645   8.091  20.631  0.00  0.00    +0.000 A 
ATOM      3  C   UNL     1       2.405   7.181  19.879  0.00  0.00    +0.000 A 
ATOM      4  C   UNL     1       2.562   7.405  18.510  0.00  0.00    +0.000 A 
ATOM      5  C   UNL     1       1.808   8.393  17.879  0.00  0.00    +0.000 A 
ATOM      6  C   UNL     1       0.886   9.168  18.602  0.00  0.00    +0.000 A 
ATOM      7  C   UNL     1      -0.100  10.013  17.844  0.00  0.00    +0.000 C 
ENDROOT
BRANCH   3   8
ATOM      8  N   UNL     1       2.680   5.859  20.404  0.00  0.00    +0.000 N 
ATOM      9  C   UNL     1       4.030   5.411  19.996  0.00  0.00    +0.000 C 
ATOM     10  C   UNL     1       3.748   4.580  18.784  0.00  0.00    +0.000 A 
ATOM     11  C   UNL     1       2.433   4.120  18.883  0.00  0.00    +0.000 A 
ATOM     12  C   UNL     1       1.798   3.429  17.868  0.00  0.00    +0.000 A 
ATOM     13  C   UNL     1       2.528   3.193  16.706  0.00  0.00    +0.000 A 
ATOM     14  C   UNL     1       3.851   3.663  16.585  0.00  0.00    +0.000 A 
ATOM     15  C   UNL     1       4.485   4.381  17.621  0.00  0.00    +0.000 A 
ATOM     16  C   UNL     1       1.786   4.835  20.004  0.00  0.00    +0.000 C 
ATOM     17  O   UNL     1       0.628   4.666  20.345  0.00  0.00    +0.000 OA
BRANCH  15  18
ATOM     18  C   UNL     1       5.843   4.988  17.380  0.00  0.00    +0.000 C 
ATOM     19  F   UNL     1       6.787   4.609  18.288  0.00  0.00    +0.000 F 
ATOM     20  F   UNL     1       6.356   4.623  16.167  0.00  0.00    +0.000 F 
ATOM     21  F   UNL     1       5.848   6.345  17.390  0.00  0.00    +0.000 F 
ENDBRANCH  15  18
ENDBRANCH   3   8
BRANCH   1  22
ATOM     22  C   UNL     1      -0.186   9.780  20.866  0.00  0.00    +0.000 C 
BRANCH  22  27
ATOM     23  N   UNL     1      -0.664  12.199  21.540  0.00  0.00    +0.000 N 
ATOM     24  C   UNL     1       0.092  13.327  21.676  0.00  0.00    +0.000 A 
ATOM     25  N   UNL     1       1.345  13.046  21.421  0.00  0.00    +0.000 NA
ATOM     26  N   UNL     1       1.416  11.707  21.110  0.00  0.00    +0.000 NA
ATOM     27  C   UNL     1       0.204  11.194  21.185  0.00  0.00    +0.000 A 
BRANCH  23  29
ATOM     28  C   UNL     1      -2.492  12.480  23.172  0.00  0.00    +0.000 C 
ATOM     29  C   UNL     1      -2.093  12.144  21.746  0.00  0.00    +0.000 C 
ENDBRANCH  23  29
ENDBRANCH  22  27
ENDBRANCH   1  22
TORSDOF 5
ENDMDL
MODEL 5
REMARK VINA RESULT:      -7.8      3.667      8.277
REMARK  Name = 
REMARK  7 active torsions:
REMARK  status: ('A' for Active; 'I' for Inactive)
REMARK    1  A    between atoms: C_1  and  C_2
REMARK    2  A    between atoms: C_2  and  N_3
REMARK    3  A    between atoms: C_7  and  C_8
REMARK    4  A    between atoms: C_8  and  C_9
REMARK    5  A    between atoms: C_11  and  N_12
REMARK    6  A    between atoms: C_19  and  C_20
REMARK    7  A    between atoms: C_28  and  C_29
REMARK                            x       y       z     vdW  Elec       q    Type
REMARK                         _______ _______ _______ _____ _____    ______ ____
ROOT
ATOM      1  C   UNL     1       2.247   7.341  18.812  0.00  0.00    +0.000 A 
ATOM      2  C   UNL     1       2.043   8.642  18.325  0.00  0.00    +0.000 A 
ATOM      3  C   UNL     1       1.348   9.598  19.082  0.00  0.00    +0.000 A 
ATOM      4  C   UNL     1       1.101   9.339  20.432  0.00  0.00    +0.000 A 
ATOM      5  C   UNL     1       1.359   8.072  20.952  0.00  0.00    +0.000 A 
ATOM      6  C   UNL     1       1.864   7.046  20.135  0.00  0.00    +0.000 A 
ATOM      7  C   UNL     1       1.858   5.637  20.657  0.00  0.00    +0.000 C 
ENDROOT
BRANCH   3   8
ATOM      8  N   UNL     1       0.567  10.621  18.417  0.00  0.00    +0.000 N 
ATOM      9  C   UNL     1       1.172  11.955  18.631  0.00  0.00    +0.000 C 
ATOM     10  C   UNL     1       0.390  12.488  19.789  0.00  0.00    +0.000 A 
ATOM     11  C   UNL     1      -0.848  11.842  19.798  0.00  0.00    +0.000 A 
ATOM     12  C   UNL     1      -1.773  11.998  20.813  0.00  0.00    +0.000 A 
ATOM     13  C   UNL     1      -1.428  12.848  21.862  0.00  0.00    +0.000 A 
ATOM     14  C   UNL     1      -0.178  13.497  21.874  0.00  0.00    +0.000 A 
ATOM     15  C   UNL     1       0.766  13.318  20.841  0.00  0.00    +0.000 A 
ATOM     16  C   UNL     1      -0.786  10.732  18.823  0.00  0.00    +0.000 C 
ATOM     17  O   UNL     1      -1.708   9.966  18.600  0.00  0.00    +0.000 OA
BRANCH  15  18
ATOM     18  C   UNL     1       2.142  13.915  20.981  0.00  0.00    +0.000 C 
ATOM     19  F   UNL     1       2.498  14.733  19.949  0.00  0.00    +0.000 F 
ATOM     20  F   UNL     1       2.248  14.695  22.098  0.00  0.00    +0.000 F 
ATOM     21  F   UNL     1       3.134  12.994  21.078  0.00  0.00    +0.000 F 
ENDBRANCH  15  18
ENDBRANCH   3   8
BRANCH   1  22
ATOM     22  C   UNL     1       2.731   6.288  17.827  0.00  0.00    +0.000 C 
BRANCH  22  27
ATOM     23  N   UNL     1       5.220   5.873  18.235  0.00  0.00    +0.000 N 
ATOM     24  C   UNL     1       6.373   6.256  17.615  0.00  0.00    +0.000 A 
ATOM     25  N   UNL     1       6.083   6.972  16.558  0.00  0.00    +0.000 NA
ATOM     26  N   UNL     1       4.712   7.064  16.481  0.00  0.00    +0.000 NA
ATOM     27  C   UNL     1       4.190   6.398  17.492  0.00  0.00    +0.000 A 
BRANCH  23  29
ATOM     28  C   UNL     1       4.785   3.627  19.159  0.00  0.00    +0.000 C 
ATOM     29  C   UNL     1       5.165   5.072  19.436  0.00  0.00    +0.000 C 
ENDBRANCH  23  29
ENDBRANCH  22  27
ENDBRANCH   1  22
TORSDOF 5
ENDMDL
MODEL 6
REMARK VINA RESULT:      -7.8      7.126      9.481
REMARK  Name = 
REMARK  7 active torsions:
REMARK  status: ('A' for Active; 'I' for Inactive)
REMARK    1  A    between atoms: C_1  and  C_2
REMARK    2  A    between atoms: C_2  and  N_3
REMARK    3  A    between atoms: C_7  and  C_8
REMARK    4  A    between atoms: C_8  and  C_9
REMARK    5  A    between atoms: C_11  and  N_12
REMARK    6  A    between atoms: C_19  and  C_20
REMARK    7  A    between atoms: C_28  and  C_29
REMARK                            x       y       z     vdW  Elec       q    Type
REMARK                         _______ _______ _______ _____ _____    ______ ____
ROOT
ATOM      1  C   UNL     1      -4.678  13.408  21.800  0.00  0.00    +0.000 A 
ATOM      2  C   UNL     1      -3.556  12.640  22.153  0.00  0.00    +0.000 A 
ATOM      3  C   UNL     1      -2.776  12.969  23.273  0.00  0.00    +0.000 A 
ATOM      4  C   UNL     1      -3.275  13.893  24.193  0.00  0.00    +0.000 A 
ATOM      5  C   UNL     1      -4.427  14.618  23.891  0.00  0.00    +0.000 A 
ATOM      6  C   UNL     1      -5.094  14.435  22.668  0.00  0.00    +0.000 A 
ATOM      7  C   UNL     1      -6.150  15.426  22.265  0.00  0.00    +0.000 C 
ENDROOT
BRANCH   3   8
ATOM      8  N   UNL     1      -1.356  12.682  23.276  0.00  0.00    +0.000 N 
ATOM      9  C   UNL     1      -0.620  13.701  22.494  0.00  0.00    +0.000 C 
ATOM     10  C   UNL     1      -0.478  13.048  21.156  0.00  0.00    +0.000 A 
ATOM     11  C   UNL     1      -0.547  11.667  21.349  0.00  0.00    +0.000 A 
ATOM     12  C   UNL     1      -0.582  10.760  20.306  0.00  0.00    +0.000 A 
ATOM     13  C   UNL     1      -0.543  11.278  19.013  0.00  0.00    +0.000 A 
ATOM     14  C   UNL     1      -0.487  12.669  18.802  0.00  0.00    +0.000 A 
ATOM     15  C   UNL     1      -0.467  13.587  19.873  0.00  0.00    +0.000 A 
ATOM     16  C   UNL     1      -0.976  11.425  22.744  0.00  0.00    +0.000 C 
ATOM     17  O   UNL     1      -1.142  10.318  23.226  0.00  0.00    +0.000 OA
BRANCH  15  18
ATOM     18  C   UNL     1      -0.560  15.064  19.588  0.00  0.00    +0.000 C 
ATOM     19  F   UNL     1      -1.706  15.644  20.043  0.00  0.00    +0.000 F 
ATOM     20  F   UNL     1       0.449  15.762  20.189  0.00  0.00    +0.000 F 
ATOM     21  F   UNL     1      -0.489  15.374  18.269  0.00  0.00    +0.000 F 
ENDBRANCH  15  18
ENDBRANCH   3   8
BRANCH   1  22
ATOM     22  C   UNL     1      -5.283  13.178  20.424  0.00  0.00    +0.000 C 
BRANCH  22  27
ATOM     23  N   UNL     1      -6.138  11.121  19.171  0.00  0.00    +0.000 N 
ATOM     24  C   UNL     1      -6.973  10.087  19.478  0.00  0.00    +0.000 A 
ATOM     25  N   UNL     1      -7.378  10.205  20.718  0.00  0.00    +0.000 NA
ATOM     26  N   UNL     1      -6.799  11.340  21.237  0.00  0.00    +0.000 NA
ATOM     27  C   UNL     1      -6.047  11.892  20.305  0.00  0.00    +0.000 A 
BRANCH  23  29
ATOM     28  C   UNL     1      -4.094  10.750  17.840  0.00  0.00    +0.000 C 
ATOM     29  C   UNL     1      -5.507  11.308  17.885  0.00  0.00    +0.000 C 
ENDBRANCH  23  29
ENDBRANCH  22  27
ENDBRANCH   1  22
TORSDOF 5
ENDMDL
MODEL 7
REMARK VINA RESULT:      -7.8      3.552      8.252
REMARK  Name = 
REMARK  7 active torsions:
REMARK  status: ('A' for Active; 'I' for Inactive)
REMARK    1  A    between atoms: C_1  and  C_2
REMARK    2  A    between atoms: C_2  and  N_3
REMARK    3  A    between atoms: C_7  and  C_8
REMARK    4  A    between atoms: C_8  and  C_9
REMARK    5  A    between atoms: C_11  and  N_12
REMARK    6  A    between atoms: C_19  and  C_20
REMARK    7  A    between atoms: C_28  and  C_29
REMARK                            x       y       z     vdW  Elec       q    Type
REMARK                         _______ _______ _______ _____ _____    ______ ____
ROOT
ATOM      1  C   UNL     1       2.395   7.073  18.955  0.00  0.00    +0.000 A 
ATOM      2  C   UNL     1       2.298   8.353  18.385  0.00  0.00    +0.000 A 
ATOM      3  C   UNL     1       1.531   9.360  18.992  0.00  0.00    +0.000 A 
ATOM      4  C   UNL     1       1.090   9.173  20.303  0.00  0.00    +0.000 A 
ATOM      5  C   UNL     1       1.237   7.927  20.912  0.00  0.00    +0.000 A 
ATOM      6  C   UNL     1       1.822   6.852  20.222  0.00  0.00    +0.000 A 
ATOM      7  C   UNL     1       1.703   5.470  20.802  0.00  0.00    +0.000 C 
ENDROOT
BRANCH   3   8
ATOM      8  N   UNL     1       0.881  10.365  18.177  0.00  0.00    +0.000 N 
ATOM      9  C   UNL     1       1.461  11.701  18.442  0.00  0.00    +0.000 C 
ATOM     10  C   UNL     1       0.510  12.279  19.441  0.00  0.00    +0.000 A 
ATOM     11  C   UNL     1      -0.721  11.643  19.271  0.00  0.00    +0.000 A 
ATOM     12  C   UNL     1      -1.796  11.841  20.119  0.00  0.00    +0.000 A 
ATOM     13  C   UNL     1      -1.613  12.723  21.181  0.00  0.00    +0.000 A 
ATOM     14  C   UNL     1      -0.372  13.362  21.374  0.00  0.00    +0.000 A 
ATOM     15  C   UNL     1       0.723  13.141  20.513  0.00  0.00    +0.000 A 
ATOM     16  C   UNL     1      -0.518  10.500  18.356  0.00  0.00    +0.000 C 
ATOM     17  O   UNL     1      -1.402   9.733  18.012  0.00  0.00    +0.000 OA
BRANCH  15  18
ATOM     18  C   UNL     1       2.066  13.733  20.853  0.00  0.00    +0.000 C 
ATOM     19  F   UNL     1       2.580  14.536  19.879  0.00  0.00    +0.000 F 
ATOM     20  F   UNL     1       2.007  14.524  21.966  0.00  0.00    +0.000 F 
ATOM     21  F   UNL     1       3.025  12.807  21.109  0.00  0.00    +0.000 F 
ENDBRANCH  15  18
ENDBRANCH   3   8
BRANCH   1  22
ATOM     22  C   UNL     1       2.982   5.963  18.097  0.00  0.00    +0.000 C 
BRANCH  22  27
ATOM     23  N   UNL     1       5.438   5.871  17.393  0.00  0.00    +0.000 N 
ATOM     24  C   UNL     1       6.599   5.495  18.003  0.00  0.00    +0.000 A 
ATOM     25  N   UNL     1       6.349   5.137  19.237  0.00  0.00    +0.000 NA
ATOM     26  N   UNL     1       4.996   5.278  19.444  0.00  0.00    +0.000 NA
ATOM     27  C   UNL     1       4.446   5.725  18.333  0.00  0.00    +0.000 A 
BRANCH  23  29
ATOM     28  C   UNL     1       5.714   5.244  15.024  0.00  0.00    +0.000 C 
ATOM     29  C   UNL     1       5.343   6.325  16.025  0.00  0.00    +0.000 C 
ENDBRANCH  23  29
ENDBRANCH  22  27
ENDBRANCH   1  22
TORSDOF 5
ENDMDL
MODEL 8
REMARK VINA RESULT:      -7.8      4.296      8.344
REMARK  Name = 
REMARK  7 active torsions:
REMARK  status: ('A' for Active; 'I' for Inactive)
REMARK    1  A    between atoms: C_1  and  C_2
REMARK    2  A    between atoms: C_2  and  N_3
REMARK    3  A    between atoms: C_7  and  C_8
REMARK    4  A    between atoms: C_8  and  C_9
REMARK    5  A    between atoms: C_11  and  N_12
REMARK    6  A    between atoms: C_19  and  C_20
REMARK    7  A    between atoms: C_28  and  C_29
REMARK                            x       y       z     vdW  Elec       q    Type
REMARK                         _______ _______ _______ _____ _____    ______ ____
ROOT
ATOM      1  C   UNL     1       2.585   6.875  19.352  0.00  0.00    +0.000 A 
ATOM      2  C   UNL     1       1.535   7.450  20.085  0.00  0.00    +0.000 A 
ATOM      3  C   UNL     1       0.993   8.693  19.722  0.00  0.00    +0.000 A 
ATOM      4  C   UNL     1       1.311   9.227  18.471  0.00  0.00    +0.000 A 
ATOM      5  C   UNL     1       2.306   8.631  17.697  0.00  0.00    +0.000 A 
ATOM      6  C   UNL     1       2.998   7.499  18.159  0.00  0.00    +0.000 A 
ATOM      7  C   UNL     1       4.241   7.065  17.433  0.00  0.00    +0.000 C 
ENDROOT
BRANCH   3   8
ATOM      8  N   UNL     1       0.459   9.576  20.738  0.00  0.00    +0.000 N 
ATOM      9  C   UNL     1      -0.941   9.939  20.425  0.00  0.00    +0.000 C 
ATOM     10  C   UNL     1      -0.792  11.258  19.736  0.00  0.00    +0.000 A 
ATOM     11  C   UNL     1       0.408  11.828  20.167  0.00  0.00    +0.000 A 
ATOM     12  C   UNL     1       0.925  12.992  19.631  0.00  0.00    +0.000 A 
ATOM     13  C   UNL     1       0.192  13.605  18.617  0.00  0.00    +0.000 A 
ATOM     14  C   UNL     1      -1.013  13.036  18.162  0.00  0.00    +0.000 A 
ATOM     15  C   UNL     1      -1.525  11.839  18.706  0.00  0.00    +0.000 A 
ATOM     16  C   UNL     1       1.152  10.799  20.925  0.00  0.00    +0.000 C 
ATOM     17  O   UNL     1       2.247  10.978  21.427  0.00  0.00    +0.000 OA
BRANCH  15  18
ATOM     18  C   UNL     1      -2.736  11.197  18.079  0.00  0.00    +0.000 C 
ATOM     19  F   UNL     1      -3.880  11.351  18.804  0.00  0.00    +0.000 F 
ATOM     20  F   UNL     1      -3.021  11.733  16.855  0.00  0.00    +0.000 F 
ATOM     21  F   UNL     1      -2.607   9.861  17.876  0.00  0.00    +0.000 F 
ENDBRANCH  15  18
ENDBRANCH   3   8
BRANCH   1  22
ATOM     22  C   UNL     1       3.315   5.695  19.974  0.00  0.00    +0.000 C 
BRANCH  22  27
ATOM     23  N   UNL     1       1.690   3.824  19.349  0.00  0.00    +0.000 N 
ATOM     24  C   UNL     1       0.981   2.892  20.050  0.00  0.00    +0.000 A 
ATOM     25  N   UNL     1       1.254   3.004  21.326  0.00  0.00    +0.000 NA
ATOM     26  N   UNL     1       2.159   4.030  21.468  0.00  0.00    +0.000 NA
ATOM     27  C   UNL     1       2.425   4.523  20.275  0.00  0.00    +0.000 A 
BRANCH  23  29
ATOM     28  C   UNL     1       2.857   3.431  17.212  0.00  0.00    +0.000 C 
ATOM     29  C   UNL     1       1.630   3.987  17.915  0.00  0.00    +0.000 C 
ENDBRANCH  23  29
ENDBRANCH  22  27
ENDBRANCH   1  22
TORSDOF 5
ENDMDL
MODEL 9
REMARK VINA RESULT:      -7.7      1.987      3.049
REMARK  Name = 
REMARK  7 active torsions:
REMARK  status: ('A' for Active; 'I' for Inactive)
REMARK    1  A    between atoms: C_1  and  C_2
REMARK    2  A    between atoms: C_2  and  N_3
REMARK    3  A    between atoms: C_7  and  C_8
REMARK    4  A    between atoms: C_8  and  C_9
REMARK    5  A    between atoms: C_11  and  N_12
REMARK    6  A    between atoms: C_19  and  C_20
REMARK    7  A    between atoms: C_28  and  C_29
REMARK                            x       y       z     vdW  Elec       q    Type
REMARK                         _______ _______ _______ _____ _____    ______ ____
ROOT
ATOM      1  C   UNL     1       2.411   7.191  18.976  0.00  0.00    +0.000 A 
ATOM      2  C   UNL     1       2.986   6.020  18.455  0.00  0.00    +0.000 A 
ATOM      3  C   UNL     1       3.079   4.853  19.229  0.00  0.00    +0.000 A 
ATOM      4  C   UNL     1       2.352   4.773  20.419  0.00  0.00    +0.000 A 
ATOM      5  C   UNL     1       1.717   5.909  20.919  0.00  0.00    +0.000 A 
ATOM      6  C   UNL     1       1.800   7.139  20.244  0.00  0.00    +0.000 A 
ATOM      7  C   UNL     1       1.351   8.386  20.953  0.00  0.00    +0.000 C 
ENDROOT
BRANCH   3   8
ATOM      8  N   UNL     1       4.180   3.935  19.026  0.00  0.00    +0.000 N 
ATOM      9  C   UNL     1       5.469   4.664  19.022  0.00  0.00    +0.000 C 
ATOM     10  C   UNL     1       5.723   4.874  17.563  0.00  0.00    +0.000 A 
ATOM     11  C   UNL     1       5.036   3.879  16.866  0.00  0.00    +0.000 A 
ATOM     12  C   UNL     1       4.944   3.850  15.487  0.00  0.00    +0.000 A 
ATOM     13  C   UNL     1       5.579   4.874  14.787  0.00  0.00    +0.000 A 
ATOM     14  C   UNL     1       6.265   5.893  15.476  0.00  0.00    +0.000 A 
ATOM     15  C   UNL     1       6.339   5.921  16.885  0.00  0.00    +0.000 A 
ATOM     16  C   UNL     1       4.149   3.184  17.824  0.00  0.00    +0.000 C 
ATOM     17  O   UNL     1       3.404   2.267  17.525  0.00  0.00    +0.000 OA
BRANCH  15  18
ATOM     18  C   UNL     1       6.955   7.113  17.572  0.00  0.00    +0.000 C 
ATOM     19  F   UNL     1       7.883   7.767  16.818  0.00  0.00    +0.000 F 
ATOM     20  F   UNL     1       6.021   8.061  17.880  0.00  0.00    +0.000 F 
ATOM     21  F   UNL     1       7.575   6.813  18.741  0.00  0.00    +0.000 F 
ENDBRANCH  15  18
ENDBRANCH   3   8
BRANCH   1  22
ATOM     22  C   UNL     1       2.619   8.483  18.200  0.00  0.00    +0.000 C 
BRANCH  22  27
ATOM     23  N   UNL     1       1.198  10.595  18.424  0.00  0.00    +0.000 N 
ATOM     24  C   UNL     1      -0.096  10.919  18.134  0.00  0.00    +0.000 A 
ATOM     25  N   UNL     1      -0.693   9.887  17.592  0.00  0.00    +0.000 NA
ATOM     26  N   UNL     1       0.224   8.864  17.525  0.00  0.00    +0.000 NA
ATOM     27  C   UNL     1       1.367   9.292  18.023  0.00  0.00    +0.000 A 
BRANCH  23  29
ATOM     28  C   UNL     1       2.480  12.684  18.145  0.00  0.00    +0.000 C 
ATOM     29  C   UNL     1       2.149  11.496  19.032  0.00  0.00    +0.000 C 
ENDBRANCH  23  29
ENDBRANCH  22  27
ENDBRANCH   1  22
TORSDOF 5
ENDMDL
