MODEL 1
REMARK VINA RESULT:      -8.0      0.000      0.000
REMARK  Name = 
REMARK  5 active torsions:
REMARK  status: ('A' for Active; 'I' for Inactive)
REMARK    1  A    between atoms: C_1  and  C_2
REMARK    2  A    between atoms: C_7  and  C_8
REMARK    3  A    between atoms: C_8  and  N_9
REMARK    4  A    between atoms: C_13  and  C_14
REMARK    5  A    between atoms: C_13  and  C_15
REMARK                            x       y       z     vdW  Elec       q    Type
REMARK                         _______ _______ _______ _____ _____    ______ ____
ROOT
ATOM      1  N   UNL     1       3.793   3.037  18.300  0.00  0.00    +0.000 N 
ATOM      2  C   UNL     1       3.931   2.769  19.623  0.00  0.00    +0.000 C 
ATOM      3  O   UNL     1       4.924   2.359  20.207  0.00  0.00    +0.000 OA
ATOM      4  N   UNL     1       2.735   3.027  20.257  0.00  0.00    +0.000 N 
ATOM      5  C   UNL     1       1.860   3.815  19.414  0.00  0.00    +0.000 C 
ATOM      6  C   UNL     1       0.433   3.280  19.434  0.00  0.00    +0.000 C 
ATOM      7  C   UNL     1       2.549   3.545  18.051  0.00  0.00    +0.000 C 
ATOM      8  O   UNL     1       2.089   3.817  16.945  0.00  0.00    +0.000 OA
ATOM      9  H   UNL     1       2.718   3.046  21.265  0.00  0.00    +0.000 HD
ENDROOT
BRANCH   5  10
ATOM     10  C   UNL     1       1.939   5.316  19.723  0.00  0.00    +0.000 A 
ATOM     11  C   UNL     1       2.576   6.247  18.860  0.00  0.00    +0.000 A 
ATOM     12  C   UNL     1       2.427   7.628  19.039  0.00  0.00    +0.000 A 
ATOM     13  C   UNL     1       1.617   8.049  20.069  0.00  0.00    +0.000 A 
ATOM     14  C   UNL     1       1.055   7.160  20.953  0.00  0.00    +0.000 A 
ATOM     15  C   UNL     1       1.208   5.803  20.822  0.00  0.00    +0.000 A 
ATOM     16  O   UNL     1       0.247   7.772  21.862  0.00  0.00    +0.000 OA
ATOM     17  C   UNL     1       0.102   9.045  21.207  0.00  0.00    +0.000 C 
ATOM     18  O   UNL     1       1.185   9.322  20.292  0.00  0.00    +0.000 OA
ENDBRANCH   5  10
BRANCH   1  19
ATOM     19  C   UNL     1       4.867   3.029  17.339  0.00  0.00    +0.000 C 
BRANCH  19  26
ATOM     20  C   UNL     1       8.217   9.662  17.496  0.00  0.00    +0.000 C 
ATOM     21  C   UNL     1       7.815   8.248  17.787  0.00  0.00    +0.000 A 
ATOM     22  C   UNL     1       8.511   7.508  18.837  0.00  0.00    +0.000 A 
ATOM     23  C   UNL     1       8.210   6.225  19.116  0.00  0.00    +0.000 A 
ATOM     24  C   UNL     1       7.184   5.563  18.383  0.00  0.00    +0.000 A 
ATOM     25  N   UNL     1       6.713   4.336  18.453  0.00  0.00    +0.000 NA
ATOM     26  C   UNL     1       5.699   4.268  17.513  0.00  0.00    +0.000 A 
ATOM     27  C   UNL     1       5.587   5.473  16.849  0.00  0.00    +0.000 A 
ATOM     28  N   UNL     1       6.531   6.298  17.407  0.00  0.00    +0.000 N 
ATOM     29  C   UNL     1       6.840   7.623  17.103  0.00  0.00    +0.000 A 
ENDBRANCH  19  26
ENDBRANCH   1  19
TORSDOF 3
ENDMDL
MODEL 2
REMARK VINA RESULT:      -7.9      3.116      7.080
REMARK  Name = 
REMARK  5 active torsions:
REMARK  status: ('A' for Active; 'I' for Inactive)
REMARK    1  A    between atoms: C_1  and  C_2
REMARK    2  A    between atoms: C_7  and  C_8
REMARK    3  A    between atoms: C_8  and  N_9
REMARK    4  A    between atoms: C_13  and  C_14
REMARK    5  A    between atoms: C_13  and  C_15
REMARK                            x       y       z     vdW  Elec       q    Type
REMARK                         _______ _______ _______ _____ _____    ______ ____
ROOT
ATOM      1  N   UNL     1       3.949   5.478  18.499  0.00  0.00    +0.000 N 
ATOM      2  C   UNL     1       4.544   4.410  19.087  0.00  0.00    +0.000 C 
ATOM      3  O   UNL     1       4.011   3.493  19.695  0.00  0.00    +0.000 OA
ATOM      4  N   UNL     1       5.907   4.504  18.906  0.00  0.00    +0.000 N 
ATOM      5  C   UNL     1       6.228   5.471  17.878  0.00  0.00    +0.000 C 
ATOM      6  C   UNL     1       7.383   6.373  18.300  0.00  0.00    +0.000 C 
ATOM      7  C   UNL     1       4.884   6.243  17.859  0.00  0.00    +0.000 C 
ATOM      8  O   UNL     1       4.675   7.314  17.296  0.00  0.00    +0.000 OA
ATOM      9  H   UNL     1       6.479   3.703  19.129  0.00  0.00    +0.000 HD
ENDROOT
BRANCH   5  10
ATOM     10  C   UNL     1       6.450   4.822  16.505  0.00  0.00    +0.000 A 
ATOM     11  C   UNL     1       5.599   3.810  15.986  0.00  0.00    +0.000 A 
ATOM     12  C   UNL     1       5.676   3.408  14.646  0.00  0.00    +0.000 A 
ATOM     13  C   UNL     1       6.592   4.050  13.846  0.00  0.00    +0.000 A 
ATOM     14  C   UNL     1       7.469   4.977  14.353  0.00  0.00    +0.000 A 
ATOM     15  C   UNL     1       7.438   5.369  15.667  0.00  0.00    +0.000 A 
ATOM     16  O   UNL     1       8.253   5.533  13.390  0.00  0.00    +0.000 OA
ATOM     17  C   UNL     1       7.510   5.115  12.231  0.00  0.00    +0.000 C 
ATOM     18  O   UNL     1       6.692   3.953  12.490  0.00  0.00    +0.000 OA
ENDBRANCH   5  10
BRANCH   1  19
ATOM     19  C   UNL     1       2.526   5.652  18.350  0.00  0.00    +0.000 C 
BRANCH  19  26
ATOM     20  C   UNL     1       0.225  12.249  20.885  0.00  0.00    +0.000 C 
ATOM     21  C   UNL     1       0.650  10.817  20.789  0.00  0.00    +0.000 A 
ATOM     22  C   UNL     1       0.712  10.005  22.003  0.00  0.00    +0.000 A 
ATOM     23  C   UNL     1       1.118   8.722  21.976  0.00  0.00    +0.000 A 
ATOM     24  C   UNL     1       1.492   8.123  20.739  0.00  0.00    +0.000 A 
ATOM     25  N   UNL     1       1.923   6.914  20.448  0.00  0.00    +0.000 NA
ATOM     26  C   UNL     1       2.100   6.897  19.075  0.00  0.00    +0.000 A 
ATOM     27  C   UNL     1       1.795   8.134  18.543  0.00  0.00    +0.000 A 
ATOM     28  N   UNL     1       1.405   8.913  19.604  0.00  0.00    +0.000 N 
ATOM     29  C   UNL     1       0.994  10.245  19.621  0.00  0.00    +0.000 A 
ENDBRANCH  19  26
ENDBRANCH   1  19
TORSDOF 3
ENDMDL
MODEL 3
REMARK VINA RESULT:      -7.7      3.295      7.306
REMARK  Name = 
REMARK  5 active torsions:
REMARK  status: ('A' for Active; 'I' for Inactive)
REMARK    1  A    between atoms: C_1  and  C_2
REMARK    2  A    between atoms: C_7  and  C_8
REMARK    3  A    between atoms: C_8  and  N_9
REMARK    4  A    between atoms: C_13  and  C_14
REMARK    5  A    between atoms: C_13  and  C_15
REMARK                            x       y       z     vdW  Elec       q    Type
REMARK                         _______ _______ _______ _____ _____    ______ ____
ROOT
ATOM      1  N   UNL     1       3.594   6.558  17.721  0.00  0.00    +0.000 N 
ATOM      2  C   UNL     1       3.146   5.302  17.970  0.00  0.00    +0.000 C 
ATOM      3  O   UNL     1       1.990   4.904  17.976  0.00  0.00    +0.000 OA
ATOM      4  N   UNL     1       4.226   4.489  18.240  0.00  0.00    +0.000 N 
ATOM      5  C   UNL     1       5.464   5.117  17.830  0.00  0.00    +0.000 C 
ATOM      6  C   UNL     1       6.548   4.963  18.890  0.00  0.00    +0.000 C 
ATOM      7  C   UNL     1       4.961   6.582  17.740  0.00  0.00    +0.000 C 
ATOM      8  O   UNL     1       5.666   7.580  17.624  0.00  0.00    +0.000 OA
ATOM      9  H   UNL     1       4.081   3.491  18.274  0.00  0.00    +0.000 HD
ENDROOT
BRANCH   5  10
ATOM     10  C   UNL     1       5.922   4.663  16.437  0.00  0.00    +0.000 A 
ATOM     11  C   UNL     1       5.130   3.835  15.598  0.00  0.00    +0.000 A 
ATOM     12  C   UNL     1       5.459   3.633  14.251  0.00  0.00    +0.000 A 
ATOM     13  C   UNL     1       6.567   4.290  13.766  0.00  0.00    +0.000 A 
ATOM     14  C   UNL     1       7.380   5.034  14.585  0.00  0.00    +0.000 A 
ATOM     15  C   UNL     1       7.101   5.224  15.914  0.00  0.00    +0.000 A 
ATOM     16  O   UNL     1       8.388   5.643  13.902  0.00  0.00    +0.000 OA
ATOM     17  C   UNL     1       7.877   5.485  12.567  0.00  0.00    +0.000 C 
ATOM     18  O   UNL     1       6.942   4.388  12.460  0.00  0.00    +0.000 OA
ENDBRANCH   5  10
BRANCH   1  19
ATOM     19  C   UNL     1       2.776   7.649  17.256  0.00  0.00    +0.000 C 
BRANCH  19  26
ATOM     20  C   UNL     1      -0.825  11.741  22.309  0.00  0.00    +0.000 C 
ATOM     21  C   UNL     1      -0.065  10.648  21.623  0.00  0.00    +0.000 A 
ATOM     22  C   UNL     1       0.333   9.466  22.385  0.00  0.00    +0.000 A 
ATOM     23  C   UNL     1       1.045   8.470  21.825  0.00  0.00    +0.000 A 
ATOM     24  C   UNL     1       1.420   8.552  20.454  0.00  0.00    +0.000 A 
ATOM     25  N   UNL     1       2.108   7.734  19.685  0.00  0.00    +0.000 NA
ATOM     26  C   UNL     1       2.131   8.324  18.433  0.00  0.00    +0.000 A 
ATOM     27  C   UNL     1       1.467   9.534  18.467  0.00  0.00    +0.000 A 
ATOM     28  N   UNL     1       1.012   9.676  19.754  0.00  0.00    +0.000 N 
ATOM     29  C   UNL     1       0.283  10.718  20.325  0.00  0.00    +0.000 A 
ENDBRANCH  19  26
ENDBRANCH   1  19
TORSDOF 3
ENDMDL
MODEL 4
REMARK VINA RESULT:      -7.7      3.320      7.446
REMARK  Name = 
REMARK  5 active torsions:
REMARK  status: ('A' for Active; 'I' for Inactive)
REMARK    1  A    between atoms: C_1  and  C_2
REMARK    2  A    between atoms: C_7  and  C_8
REMARK    3  A    between atoms: C_8  and  N_9
REMARK    4  A    between atoms: C_13  and  C_14
REMARK    5  A    between atoms: C_13  and  C_15
REMARK                            x       y       z     vdW  Elec       q    Type
REMARK                         _______ _______ _______ _____ _____    ______ ____
ROOT
ATOM      1  N   UNL     1       3.736   6.507  17.565  0.00  0.00    +0.000 N 
ATOM      2  C   UNL     1       3.237   5.261  17.760  0.00  0.00    +0.000 C 
ATOM      3  O   UNL     1       2.067   4.906  17.730  0.00  0.00    +0.000 OA
ATOM      4  N   UNL     1       4.280   4.399  18.021  0.00  0.00    +0.000 N 
ATOM      5  C   UNL     1       5.548   4.995  17.657  0.00  0.00    +0.000 C 
ATOM      6  C   UNL     1       6.605   4.763  18.731  0.00  0.00    +0.000 C 
ATOM      7  C   UNL     1       5.102   6.479  17.611  0.00  0.00    +0.000 C 
ATOM      8  O   UNL     1       5.846   7.454  17.544  0.00  0.00    +0.000 OA
ATOM      9  H   UNL     1       4.099   3.407  18.016  0.00  0.00    +0.000 HD
ENDROOT
BRANCH   5  10
ATOM     10  C   UNL     1       6.018   4.573  16.258  0.00  0.00    +0.000 A 
ATOM     11  C   UNL     1       5.252   3.729  15.410  0.00  0.00    +0.000 A 
ATOM     12  C   UNL     1       5.584   3.555  14.061  0.00  0.00    +0.000 A 
ATOM     13  C   UNL     1       6.667   4.255  13.581  0.00  0.00    +0.000 A 
ATOM     14  C   UNL     1       7.457   5.016  14.407  0.00  0.00    +0.000 A 
ATOM     15  C   UNL     1       7.176   5.180  15.739  0.00  0.00    +0.000 A 
ATOM     16  O   UNL     1       8.441   5.668  13.729  0.00  0.00    +0.000 OA
ATOM     17  C   UNL     1       7.932   5.508  12.392  0.00  0.00    +0.000 C 
ATOM     18  O   UNL     1       7.035   4.382  12.275  0.00  0.00    +0.000 OA
ENDBRANCH   5  10
BRANCH   1  19
ATOM     19  C   UNL     1       2.968   7.645  17.124  0.00  0.00    +0.000 C 
BRANCH  19  26
ATOM     20  C   UNL     1      -0.263   9.654  23.508  0.00  0.00    +0.000 C 
ATOM     21  C   UNL     1       0.189   9.603  22.082  0.00  0.00    +0.000 A 
ATOM     22  C   UNL     1      -0.269  10.629  21.148  0.00  0.00    +0.000 A 
ATOM     23  C   UNL     1       0.083  10.611  19.848  0.00  0.00    +0.000 A 
ATOM     24  C   UNL     1       0.929   9.576  19.358  0.00  0.00    +0.000 A 
ATOM     25  N   UNL     1       1.403   9.331  18.155  0.00  0.00    +0.000 NA
ATOM     26  C   UNL     1       2.194   8.202  18.284  0.00  0.00    +0.000 A 
ATOM     27  C   UNL     1       2.164   7.750  19.589  0.00  0.00    +0.000 A 
ATOM     28  N   UNL     1       1.361   8.628  20.272  0.00  0.00    +0.000 N 
ATOM     29  C   UNL     1       0.997   8.632  21.618  0.00  0.00    +0.000 A 
ENDBRANCH  19  26
ENDBRANCH   1  19
TORSDOF 3
ENDMDL
MODEL 5
REMARK VINA RESULT:      -7.4      3.095      7.226
REMARK  Name = 
REMARK  5 active torsions:
REMARK  status: ('A' for Active; 'I' for Inactive)
REMARK    1  A    between atoms: C_1  and  C_2
REMARK    2  A    between atoms: C_7  and  C_8
REMARK    3  A    between atoms: C_8  and  N_9
REMARK    4  A    between atoms: C_13  and  C_14
REMARK    5  A    between atoms: C_13  and  C_15
REMARK                            x       y       z     vdW  Elec       q    Type
REMARK                         _______ _______ _______ _____ _____    ______ ____
ROOT
ATOM      1  N   UNL     1       4.357   5.157  18.421  0.00  0.00    +0.000 N 
ATOM      2  C   UNL     1       5.261   4.307  18.968  0.00  0.00    +0.000 C 
ATOM      3  O   UNL     1       5.047   3.346  19.694  0.00  0.00    +0.000 OA
ATOM      4  N   UNL     1       6.526   4.694  18.582  0.00  0.00    +0.000 N 
ATOM      5  C   UNL     1       6.469   5.620  17.470  0.00  0.00    +0.000 C 
ATOM      6  C   UNL     1       7.421   6.793  17.670  0.00  0.00    +0.000 C 
ATOM      7  C   UNL     1       4.989   6.059  17.611  0.00  0.00    +0.000 C 
ATOM      8  O   UNL     1       4.459   7.003  17.032  0.00  0.00    +0.000 OA
ATOM      9  H   UNL     1       7.297   4.068  18.758  0.00  0.00    +0.000 HD
ENDROOT
BRANCH   5  10
ATOM     10  C   UNL     1       6.655   4.925  16.115  0.00  0.00    +0.000 A 
ATOM     11  C   UNL     1       5.863   3.821  15.700  0.00  0.00    +0.000 A 
ATOM     12  C   UNL     1       5.887   3.363  14.376  0.00  0.00    +0.000 A 
ATOM     13  C   UNL     1       6.689   4.040  13.487  0.00  0.00    +0.000 A 
ATOM     14  C   UNL     1       7.513   5.061  13.892  0.00  0.00    +0.000 A 
ATOM     15  C   UNL     1       7.535   5.512  15.187  0.00  0.00    +0.000 A 
ATOM     16  O   UNL     1       8.181   5.633  12.853  0.00  0.00    +0.000 OA
ATOM     17  C   UNL     1       7.402   5.098  11.768  0.00  0.00    +0.000 C 
ATOM     18  O   UNL     1       6.707   3.886  12.133  0.00  0.00    +0.000 OA
ENDBRANCH   5  10
BRANCH   1  19
ATOM     19  C   UNL     1       2.926   4.988  18.476  0.00  0.00    +0.000 C 
BRANCH  19  26
ATOM     20  C   UNL     1       0.001  10.333  22.733  0.00  0.00    +0.000 C 
ATOM     21  C   UNL     1       0.584   9.570  21.583  0.00  0.00    +0.000 A 
ATOM     22  C   UNL     1       0.743  10.235  20.292  0.00  0.00    +0.000 A 
ATOM     23  C   UNL     1       1.232   9.585  19.218  0.00  0.00    +0.000 A 
ATOM     24  C   UNL     1       1.615   8.218  19.331  0.00  0.00    +0.000 A 
ATOM     25  N   UNL     1       2.102   7.371  18.449  0.00  0.00    +0.000 NA
ATOM     26  C   UNL     1       2.309   6.188  19.138  0.00  0.00    +0.000 A 
ATOM     27  C   UNL     1       1.907   6.328  20.451  0.00  0.00    +0.000 A 
ATOM     28  N   UNL     1       1.468   7.622  20.573  0.00  0.00    +0.000 N 
ATOM     29  C   UNL     1       0.956   8.282  21.689  0.00  0.00    +0.000 A 
ENDBRANCH  19  26
ENDBRANCH   1  19
TORSDOF 3
ENDMDL
MODEL 6
REMARK VINA RESULT:      -7.4      2.621      5.986
REMARK  Name = 
REMARK  5 active torsions:
REMARK  status: ('A' for Active; 'I' for Inactive)
REMARK    1  A    between atoms: C_1  and  C_2
REMARK    2  A    between atoms: C_7  and  C_8
REMARK    3  A    between atoms: C_8  and  N_9
REMARK    4  A    between atoms: C_13  and  C_14
REMARK    5  A    between atoms: C_13  and  C_15
REMARK                            x       y       z     vdW  Elec       q    Type
REMARK                         _______ _______ _______ _____ _____    ______ ____
ROOT
ATOM      1  N   UNL     1       2.292   3.550  19.787  0.00  0.00    +0.000 N 
ATOM      2  C   UNL     1       1.621   3.319  18.631  0.00  0.00    +0.000 C 
ATOM      3  O   UNL     1       0.506   3.710  18.318  0.00  0.00    +0.000 OA
ATOM      4  N   UNL     1       2.403   2.533  17.812  0.00  0.00    +0.000 N 
ATOM      5  C   UNL     1       3.776   2.511  18.271  0.00  0.00    +0.000 C 
ATOM      6  C   UNL     1       4.353   1.100  18.243  0.00  0.00    +0.000 C 
ATOM      7  C   UNL     1       3.542   2.999  19.724  0.00  0.00    +0.000 C 
ATOM      8  O   UNL     1       4.364   2.971  20.635  0.00  0.00    +0.000 OA
ATOM      9  H   UNL     1       2.126   2.415  16.849  0.00  0.00    +0.000 HD
ENDROOT
BRANCH   5  10
ATOM     10  C   UNL     1       4.660   3.530  17.540  0.00  0.00    +0.000 A 
ATOM     11  C   UNL     1       5.674   4.280  18.194  0.00  0.00    +0.000 A 
ATOM     12  C   UNL     1       6.618   5.017  17.468  0.00  0.00    +0.000 A 
ATOM     13  C   UNL     1       6.541   4.968  16.096  0.00  0.00    +0.000 A 
ATOM     14  C   UNL     1       5.522   4.307  15.455  0.00  0.00    +0.000 A 
ATOM     15  C   UNL     1       4.565   3.601  16.138  0.00  0.00    +0.000 A 
ATOM     16  O   UNL     1       5.657   4.332  14.101  0.00  0.00    +0.000 OA
ATOM     17  C   UNL     1       7.032   4.750  14.024  0.00  0.00    +0.000 C 
ATOM     18  O   UNL     1       7.465   5.443  15.214  0.00  0.00    +0.000 OA
ENDBRANCH   5  10
BRANCH   1  19
ATOM     19  C   UNL     1       1.860   4.450  20.827  0.00  0.00    +0.000 C 
BRANCH  19  26
ATOM     20  C   UNL     1       0.995  11.631  19.117  0.00  0.00    +0.000 C 
ATOM     21  C   UNL     1       1.400  10.189  19.099  0.00  0.00    +0.000 A 
ATOM     22  C   UNL     1       2.212   9.687  17.993  0.00  0.00    +0.000 A 
ATOM     23  C   UNL     1       2.576   8.393  17.914  0.00  0.00    +0.000 A 
ATOM     24  C   UNL     1       2.174   7.480  18.930  0.00  0.00    +0.000 A 
ATOM     25  N   UNL     1       2.386   6.190  19.080  0.00  0.00    +0.000 NA
ATOM     26  C   UNL     1       1.777   5.844  20.275  0.00  0.00    +0.000 A 
ATOM     27  C   UNL     1       1.164   6.949  20.830  0.00  0.00    +0.000 A 
ATOM     28  N   UNL     1       1.420   7.991  19.975  0.00  0.00    +0.000 N 
ATOM     29  C   UNL     1       1.030   9.327  20.063  0.00  0.00    +0.000 A 
ENDBRANCH  19  26
ENDBRANCH   1  19
TORSDOF 3
ENDMDL
MODEL 7
REMARK VINA RESULT:      -7.3      6.532     10.743
REMARK  Name = 
REMARK  5 active torsions:
REMARK  status: ('A' for Active; 'I' for Inactive)
REMARK    1  A    between atoms: C_1  and  C_2
REMARK    2  A    between atoms: C_7  and  C_8
REMARK    3  A    between atoms: C_8  and  N_9
REMARK    4  A    between atoms: C_13  and  C_14
REMARK    5  A    between atoms: C_13  and  C_15
REMARK                            x       y       z     vdW  Elec       q    Type
REMARK                         _______ _______ _______ _____ _____    ______ ____
ROOT
ATOM      1  N   UNL     1       0.092  11.849  21.210  0.00  0.00    +0.000 N 
ATOM      2  C   UNL     1      -0.108  10.551  21.548  0.00  0.00    +0.000 C 
ATOM      3  O   UNL     1      -0.432  10.098  22.637  0.00  0.00    +0.000 OA
ATOM      4  N   UNL     1       0.123   9.762  20.441  0.00  0.00    +0.000 N 
ATOM      5  C   UNL     1       0.146  10.558  19.232  0.00  0.00    +0.000 C 
ATOM      6  C   UNL     1       1.305  10.164  18.324  0.00  0.00    +0.000 C 
ATOM      7  C   UNL     1       0.376  11.950  19.876  0.00  0.00    +0.000 C 
ATOM      8  O   UNL     1       0.678  12.979  19.279  0.00  0.00    +0.000 OA
ATOM      9  H   UNL     1      -0.151   8.791  20.476  0.00  0.00    +0.000 HD
ENDROOT
BRANCH   5  10
ATOM     10  C   UNL     1      -1.206  10.563  18.504  0.00  0.00    +0.000 A 
ATOM     11  C   UNL     1      -2.281  11.411  18.883  0.00  0.00    +0.000 A 
ATOM     12  C   UNL     1      -3.406  11.571  18.065  0.00  0.00    +0.000 A 
ATOM     13  C   UNL     1      -3.419  10.895  16.867  0.00  0.00    +0.000 A 
ATOM     14  C   UNL     1      -2.419  10.018  16.524  0.00  0.00    +0.000 A 
ATOM     15  C   UNL     1      -1.320   9.816  17.318  0.00  0.00    +0.000 A 
ATOM     16  O   UNL     1      -2.591   9.495  15.279  0.00  0.00    +0.000 OA
ATOM     17  C   UNL     1      -3.578  10.419  14.786  0.00  0.00    +0.000 C 
ATOM     18  O   UNL     1      -4.311  11.064  15.850  0.00  0.00    +0.000 OA
ENDBRANCH   5  10
BRANCH   1  19
ATOM     19  C   UNL     1      -0.195  12.977  22.059  0.00  0.00    +0.000 C 
BRANCH  19  26
ATOM     20  C   UNL     1      -7.607  13.108  22.588  0.00  0.00    +0.000 C 
ATOM     21  C   UNL     1      -6.148  12.969  22.894  0.00  0.00    +0.000 A 
ATOM     22  C   UNL     1      -5.732  12.609  24.248  0.00  0.00    +0.000 A 
ATOM     23  C   UNL     1      -4.432  12.502  24.583  0.00  0.00    +0.000 A 
ATOM     24  C   UNL     1      -3.426  12.735  23.603  0.00  0.00    +0.000 A 
ATOM     25  N   UNL     1      -2.112  12.703  23.674  0.00  0.00    +0.000 NA
ATOM     26  C   UNL     1      -1.659  12.986  22.396  0.00  0.00    +0.000 A 
ATOM     27  C   UNL     1      -2.729  13.220  21.556  0.00  0.00    +0.000 A 
ATOM     28  N   UNL     1      -3.853  13.057  22.324  0.00  0.00    +0.000 N 
ATOM     29  C   UNL     1      -5.195  13.179  21.967  0.00  0.00    +0.000 A 
ENDBRANCH  19  26
ENDBRANCH   1  19
TORSDOF 3
ENDMDL
MODEL 8
REMARK VINA RESULT:      -7.3      6.552     10.911
REMARK  Name = 
REMARK  5 active torsions:
REMARK  status: ('A' for Active; 'I' for Inactive)
REMARK    1  A    between atoms: C_1  and  C_2
REMARK    2  A    between atoms: C_7  and  C_8
REMARK    3  A    between atoms: C_8  and  N_9
REMARK    4  A    between atoms: C_13  and  C_14
REMARK    5  A    between atoms: C_13  and  C_15
REMARK                            x       y       z     vdW  Elec       q    Type
REMARK                         _______ _______ _______ _____ _____    ______ ____
ROOT
ATOM      1  N   UNL     1      -0.149  11.622  21.373  0.00  0.00    +0.000 N 
ATOM      2  C   UNL     1      -0.358  10.306  21.623  0.00  0.00    +0.000 C 
ATOM      3  O   UNL     1      -0.717   9.786  22.670  0.00  0.00    +0.000 OA
ATOM      4  N   UNL     1      -0.089   9.588  20.477  0.00  0.00    +0.000 N 
ATOM      5  C   UNL     1      -0.027  10.458  19.322  0.00  0.00    +0.000 C 
ATOM      6  C   UNL     1       1.163  10.121  18.431  0.00  0.00    +0.000 C 
ATOM      7  C   UNL     1       0.179  11.806  20.059  0.00  0.00    +0.000 C 
ATOM      8  O   UNL     1       0.500  12.871  19.538  0.00  0.00    +0.000 OA
ATOM      9  H   UNL     1      -0.361   8.617  20.442  0.00  0.00    +0.000 HD
ENDROOT
BRANCH   5  10
ATOM     10  C   UNL     1      -1.353  10.509  18.551  0.00  0.00    +0.000 A 
ATOM     11  C   UNL     1      -2.408  11.397  18.892  0.00  0.00    +0.000 A 
ATOM     12  C   UNL     1      -3.500  11.595  18.037  0.00  0.00    +0.000 A 
ATOM     13  C   UNL     1      -3.498  10.914  16.841  0.00  0.00    +0.000 A 
ATOM     14  C   UNL     1      -2.521   9.999  16.534  0.00  0.00    +0.000 A 
ATOM     15  C   UNL     1      -1.456   9.761  17.364  0.00  0.00    +0.000 A 
ATOM     16  O   UNL     1      -2.672   9.478  15.286  0.00  0.00    +0.000 OA
ATOM     17  C   UNL     1      -3.608  10.435  14.758  0.00  0.00    +0.000 C 
ATOM     18  O   UNL     1      -4.351  11.111  15.796  0.00  0.00    +0.000 OA
ENDBRANCH   5  10
BRANCH   1  19
ATOM     19  C   UNL     1      -0.466  12.696  22.282  0.00  0.00    +0.000 C 
BRANCH  19  26
ATOM     20  C   UNL     1      -7.733  13.194  23.759  0.00  0.00    +0.000 C 
ATOM     21  C   UNL     1      -6.392  13.292  23.101  0.00  0.00    +0.000 A 
ATOM     22  C   UNL     1      -6.287  13.897  21.775  0.00  0.00    +0.000 A 
ATOM     23  C   UNL     1      -5.109  13.980  21.126  0.00  0.00    +0.000 A 
ATOM     24  C   UNL     1      -3.926  13.479  21.739  0.00  0.00    +0.000 A 
ATOM     25  N   UNL     1      -2.679  13.433  21.323  0.00  0.00    +0.000 NA
ATOM     26  C   UNL     1      -1.958  12.859  22.357  0.00  0.00    +0.000 A 
ATOM     27  C   UNL     1      -2.803  12.530  23.397  0.00  0.00    +0.000 A 
ATOM     28  N   UNL     1      -4.056  12.928  23.004  0.00  0.00    +0.000 N 
ATOM     29  C   UNL     1      -5.270  12.828  23.681  0.00  0.00    +0.000 A 
ENDBRANCH  19  26
ENDBRANCH   1  19
TORSDOF 3
ENDMDL
MODEL 9
REMARK VINA RESULT:      -7.3      7.431     11.183
REMARK  Name = 
REMARK  5 active torsions:
REMARK  status: ('A' for Active; 'I' for Inactive)
REMARK    1  A    between atoms: C_1  and  C_2
REMARK    2  A    between atoms: C_7  and  C_8
REMARK    3  A    between atoms: C_8  and  N_9
REMARK    4  A    between atoms: C_13  and  C_14
REMARK    5  A    between atoms: C_13  and  C_15
REMARK                            x       y       z     vdW  Elec       q    Type
REMARK                         _______ _______ _______ _____ _____    ______ ____
ROOT
ATOM      1  N   UNL     1      -3.578  14.015  23.513  0.00  0.00    +0.000 N 
ATOM      2  C   UNL     1      -4.039  15.039  22.754  0.00  0.00    +0.000 C 
ATOM      3  O   UNL     1      -3.410  15.987  22.306  0.00  0.00    +0.000 OA
ATOM      4  N   UNL     1      -5.391  14.866  22.547  0.00  0.00    +0.000 N 
ATOM      5  C   UNL     1      -5.799  13.518  22.881  0.00  0.00    +0.000 C 
ATOM      6  C   UNL     1      -7.091  13.507  23.689  0.00  0.00    +0.000 C 
ATOM      7  C   UNL     1      -4.580  13.118  23.753  0.00  0.00    +0.000 C 
ATOM      8  O   UNL     1      -4.502  12.123  24.468  0.00  0.00    +0.000 OA
ATOM      9  H   UNL     1      -5.852  15.444  21.860  0.00  0.00    +0.000 HD
ENDROOT
BRANCH   5  10
ATOM     10  C   UNL     1      -5.856  12.599  21.653  0.00  0.00    +0.000 A 
ATOM     11  C   UNL     1      -7.013  11.851  21.305  0.00  0.00    +0.000 A 
ATOM     12  C   UNL     1      -7.122  11.214  20.062  0.00  0.00    +0.000 A 
ATOM     13  C   UNL     1      -6.076  11.362  19.181  0.00  0.00    +0.000 A 
ATOM     14  C   UNL     1      -4.924  12.021  19.534  0.00  0.00    +0.000 A 
ATOM     15  C   UNL     1      -4.775  12.628  20.754  0.00  0.00    +0.000 A 
ATOM     16  O   UNL     1      -4.037  12.104  18.505  0.00  0.00    +0.000 OA
ATOM     17  C   UNL     1      -4.920  11.757  17.423  0.00  0.00    +0.000 C 
ATOM     18  O   UNL     1      -6.066  10.998  17.868  0.00  0.00    +0.000 OA
ENDBRANCH   5  10
BRANCH   1  19
ATOM     19  C   UNL     1      -2.189  13.771  23.814  0.00  0.00    +0.000 C 
BRANCH  19  26
ATOM     20  C   UNL     1       0.592   9.727  18.233  0.00  0.00    +0.000 C 
ATOM     21  C   UNL     1       0.129  10.188  19.581  0.00  0.00    +0.000 A 
ATOM     22  C   UNL     1       0.229   9.280  20.721  0.00  0.00    +0.000 A 
ATOM     23  C   UNL     1      -0.203   9.634  21.947  0.00  0.00    +0.000 A 
ATOM     24  C   UNL     1      -0.766  10.925  22.153  0.00  0.00    +0.000 A 
ATOM     25  N   UNL     1      -1.260  11.501  23.229  0.00  0.00    +0.000 NA
ATOM     26  C   UNL     1      -1.636  12.775  22.836  0.00  0.00    +0.000 A 
ATOM     27  C   UNL     1      -1.387  12.947  21.489  0.00  0.00    +0.000 A 
ATOM     28  N   UNL     1      -0.830  11.769  21.056  0.00  0.00    +0.000 N 
ATOM     29  C   UNL     1      -0.395  11.411  19.781  0.00  0.00    +0.000 A 
ENDBRANCH  19  26
ENDBRANCH   1  19
TORSDOF 3
ENDMDL
