MODEL 1
REMARK VINA RESULT:     -10.0      0.000      0.000
REMARK  Name = 
REMARK  4 active torsions:
REMARK  status: ('A' for Active; 'I' for Inactive)
REMARK    1  A    between atoms: C_1  and  C_2
REMARK    2  A    between atoms: C_6  and  N_7
REMARK    3  A    between atoms: C_8  and  C_10
REMARK    4  A    between atoms: C_14  and  C_16
REMARK                            x       y       z     vdW  Elec       q    Type
REMARK                         _______ _______ _______ _____ _____    ______ ____
ROOT
ATOM      1  C   UNL     1       7.685   5.832  18.148  0.00  0.00    +0.000 C 
ATOM      2  C   UNL     1       7.278   4.980  16.925  0.00  0.00    +0.000 C 
ATOM      3  C   UNL     1       5.770   4.927  16.630  0.00  0.00    +0.000 C 
ATOM      4  N   UNL     1       4.982   4.744  17.851  0.00  0.00    +0.000 N 
ATOM      5  C   UNL     1       4.026   3.711  17.901  0.00  0.00    +0.000 C 
ATOM      6  O   UNL     1       3.841   2.922  16.980  0.00  0.00    +0.000 OA
ATOM      7  C   UNL     1       5.291   5.718  18.894  0.00  0.00    +0.000 C 
ATOM      8  C   UNL     1       6.741   5.592  19.323  0.00  0.00    +0.000 C 
ENDROOT
BRANCH   5   9
ATOM      9  C   UNL     1       3.203   3.542  19.132  0.00  0.00    +0.000 A 
ATOM     10  C   UNL     1       3.726   2.934  20.282  0.00  0.00    +0.000 A 
ATOM     11  C   UNL     1       2.878   2.564  21.328  0.00  0.00    +0.000 A 
ATOM     12  C   UNL     1       1.537   2.920  21.281  0.00  0.00    +0.000 A 
ATOM     13  F   UNL     1       0.722   2.540  22.273  0.00  0.00    +0.000 F 
ATOM     14  C   UNL     1       1.031   3.659  20.220  0.00  0.00    +0.000 A 
ATOM     15  C   UNL     1       1.865   3.955  19.141  0.00  0.00    +0.000 A 
ATOM     16  F   UNL     1       1.331   4.619  18.104  0.00  0.00    +0.000 F 
ENDBRANCH   5   9
BRANCH   1  18
ATOM     17  N   UNL     1       8.433   8.065  18.818  0.00  0.00    +0.000 N 
ATOM     18  C   UNL     1       7.765   7.328  17.835  0.00  0.00    +0.000 C 
ATOM     19  O   UNL     1       7.228   7.791  16.833  0.00  0.00    +0.000 OA
ATOM     20  H   UNL     1       8.682   7.579  19.673  0.00  0.00    +0.000 HD
BRANCH  17  26
ATOM     21  C   UNL     1      11.325  14.663  19.985  0.00  0.00    +0.000 C 
ATOM     22  C   UNL     1      10.643  13.399  19.647  0.00  0.00    +0.000 A 
ATOM     23  N   UNL     1      10.793  12.219  20.216  0.00  0.00    +0.000 NA
ATOM     24  C   UNL     1       9.948  11.408  19.502  0.00  0.00    +0.000 A 
ATOM     25  C   UNL     1       9.675  10.040  19.626  0.00  0.00    +0.000 A 
ATOM     26  C   UNL     1       8.754   9.444  18.753  0.00  0.00    +0.000 A 
ATOM     27  C   UNL     1       8.102  10.236  17.785  0.00  0.00    +0.000 A 
ATOM     28  C   UNL     1       8.365  11.613  17.644  0.00  0.00    +0.000 A 
ATOM     29  C   UNL     1       9.298  12.141  18.526  0.00  0.00    +0.000 A 
ATOM     30  O   UNL     1       9.744  13.431  18.609  0.00  0.00    +0.000 OA
ENDBRANCH  17  26
ENDBRANCH   1  18
TORSDOF 3
ENDMDL
MODEL 2
REMARK VINA RESULT:      -9.9      1.061      1.329
REMARK  Name = 
REMARK  4 active torsions:
REMARK  status: ('A' for Active; 'I' for Inactive)
REMARK    1  A    between atoms: C_1  and  C_2
REMARK    2  A    between atoms: C_6  and  N_7
REMARK    3  A    between atoms: C_8  and  C_10
REMARK    4  A    between atoms: C_14  and  C_16
REMARK                            x       y       z     vdW  Elec       q    Type
REMARK                         _______ _______ _______ _____ _____    ______ ____
ROOT
ATOM      1  C   UNL     1       7.751   6.309  18.015  0.00  0.00    +0.000 C 
ATOM      2  C   UNL     1       7.217   5.690  16.704  0.00  0.00    +0.000 C 
ATOM      3  C   UNL     1       5.688   5.705  16.543  0.00  0.00    +0.000 C 
ATOM      4  N   UNL     1       5.006   5.316  17.780  0.00  0.00    +0.000 N 
ATOM      5  C   UNL     1       4.032   4.300  17.735  0.00  0.00    +0.000 C 
ATOM      6  O   UNL     1       3.747   3.687  16.711  0.00  0.00    +0.000 OA
ATOM      7  C   UNL     1       5.429   6.088  18.945  0.00  0.00    +0.000 C 
ATOM      8  C   UNL     1       6.909   5.875  19.211  0.00  0.00    +0.000 C 
ENDROOT
BRANCH   5   9
ATOM      9  C   UNL     1       3.316   3.924  18.988  0.00  0.00    +0.000 A 
ATOM     10  C   UNL     1       3.857   2.995  19.887  0.00  0.00    +0.000 A 
ATOM     11  C   UNL     1       3.071   2.475  20.917  0.00  0.00    +0.000 A 
ATOM     12  C   UNL     1       1.794   2.981  21.126  0.00  0.00    +0.000 A 
ATOM     13  F   UNL     1       1.034   2.461  22.098  0.00  0.00    +0.000 F 
ATOM     14  C   UNL     1       1.298   4.013  20.342  0.00  0.00    +0.000 A 
ATOM     15  C   UNL     1       2.057   4.471  19.264  0.00  0.00    +0.000 A 
ATOM     16  F   UNL     1       1.524   5.428  18.488  0.00  0.00    +0.000 F 
ENDBRANCH   5   9
BRANCH   1  18
ATOM     17  N   UNL     1       8.712   8.374  18.915  0.00  0.00    +0.000 N 
ATOM     18  C   UNL     1       7.841   7.837  17.962  0.00  0.00    +0.000 C 
ATOM     19  O   UNL     1       7.151   8.481  17.178  0.00  0.00    +0.000 OA
ATOM     20  H   UNL     1       9.092   7.737  19.608  0.00  0.00    +0.000 HD
BRANCH  17  26
ATOM     21  C   UNL     1      10.644  15.274  17.534  0.00  0.00    +0.000 C 
ATOM     22  C   UNL     1      10.275  13.913  17.966  0.00  0.00    +0.000 A 
ATOM     23  N   UNL     1      10.050  12.855  17.210  0.00  0.00    +0.000 NA
ATOM     24  C   UNL     1       9.724  11.878  18.115  0.00  0.00    +0.000 A 
ATOM     25  C   UNL     1       9.373  10.536  17.922  0.00  0.00    +0.000 A 
ATOM     26  C   UNL     1       9.079   9.737  19.036  0.00  0.00    +0.000 A 
ATOM     27  C   UNL     1       9.168  10.292  20.330  0.00  0.00    +0.000 A 
ATOM     28  C   UNL     1       9.517  11.640  20.544  0.00  0.00    +0.000 A 
ATOM     29  C   UNL     1       9.780  12.383  19.401  0.00  0.00    +0.000 A 
ATOM     30  O   UNL     1      10.132  13.701  19.315  0.00  0.00    +0.000 OA
ENDBRANCH  17  26
ENDBRANCH   1  18
TORSDOF 3
ENDMDL
MODEL 3
REMARK VINA RESULT:      -9.7      1.342      1.800
REMARK  Name = 
REMARK  4 active torsions:
REMARK  status: ('A' for Active; 'I' for Inactive)
REMARK    1  A    between atoms: C_1  and  C_2
REMARK    2  A    between atoms: C_6  and  N_7
REMARK    3  A    between atoms: C_8  and  C_10
REMARK    4  A    between atoms: C_14  and  C_16
REMARK                            x       y       z     vdW  Elec       q    Type
REMARK                         _______ _______ _______ _____ _____    ______ ____
ROOT
ATOM      1  C   UNL     1       7.643   6.269  17.912  0.00  0.00    +0.000 C 
ATOM      2  C   UNL     1       7.174   5.692  16.558  0.00  0.00    +0.000 C 
ATOM      3  C   UNL     1       5.654   5.707  16.326  0.00  0.00    +0.000 C 
ATOM      4  N   UNL     1       4.917   5.276  17.517  0.00  0.00    +0.000 N 
ATOM      5  C   UNL     1       3.951   4.259  17.393  0.00  0.00    +0.000 C 
ATOM      6  O   UNL     1       3.717   3.679  16.338  0.00  0.00    +0.000 OA
ATOM      7  C   UNL     1       5.282   6.010  18.724  0.00  0.00    +0.000 C 
ATOM      8  C   UNL     1       6.748   5.794  19.052  0.00  0.00    +0.000 C 
ENDROOT
BRANCH   5   9
ATOM      9  C   UNL     1       3.180   3.839  18.598  0.00  0.00    +0.000 A 
ATOM     10  C   UNL     1       1.872   4.291  18.822  0.00  0.00    +0.000 A 
ATOM     11  C   UNL     1       1.263   4.091  20.062  0.00  0.00    +0.000 A 
ATOM     12  C   UNL     1       1.907   3.327  21.027  0.00  0.00    +0.000 A 
ATOM     13  F   UNL     1       1.331   3.160  22.224  0.00  0.00    +0.000 F 
ATOM     14  C   UNL     1       3.138   2.740  20.767  0.00  0.00    +0.000 A 
ATOM     15  C   UNL     1       3.777   3.011  19.556  0.00  0.00    +0.000 A 
ATOM     16  F   UNL     1       4.993   2.477  19.360  0.00  0.00    +0.000 F 
ENDBRANCH   5   9
BRANCH   1  18
ATOM     17  N   UNL     1       8.634   8.302  18.852  0.00  0.00    +0.000 N 
ATOM     18  C   UNL     1       7.729   7.798  17.913  0.00  0.00    +0.000 C 
ATOM     19  O   UNL     1       7.008   8.469  17.181  0.00  0.00    +0.000 OA
ATOM     20  H   UNL     1       9.041   7.641  19.506  0.00  0.00    +0.000 HD
BRANCH  17  26
ATOM     21  C   UNL     1      10.521  15.250  17.660  0.00  0.00    +0.000 C 
ATOM     22  C   UNL     1      10.165  13.873  18.054  0.00  0.00    +0.000 A 
ATOM     23  N   UNL     1       9.921  12.842  17.269  0.00  0.00    +0.000 NA
ATOM     24  C   UNL     1       9.620  11.833  18.147  0.00  0.00    +0.000 A 
ATOM     25  C   UNL     1       9.265  10.498  17.917  0.00  0.00    +0.000 A 
ATOM     26  C   UNL     1       9.003   9.661  19.010  0.00  0.00    +0.000 A 
ATOM     27  C   UNL     1       9.127  10.170  20.320  0.00  0.00    +0.000 A 
ATOM     28  C   UNL     1       9.481  11.511  20.571  0.00  0.00    +0.000 A 
ATOM     29  C   UNL     1       9.711  12.293  19.448  0.00  0.00    +0.000 A 
ATOM     30  O   UNL     1      10.059  13.614  19.399  0.00  0.00    +0.000 OA
ENDBRANCH  17  26
ENDBRANCH   1  18
TORSDOF 3
ENDMDL
MODEL 4
REMARK VINA RESULT:      -9.6      0.958      1.310
REMARK  Name = 
REMARK  4 active torsions:
REMARK  status: ('A' for Active; 'I' for Inactive)
REMARK    1  A    between atoms: C_1  and  C_2
REMARK    2  A    between atoms: C_6  and  N_7
REMARK    3  A    between atoms: C_8  and  C_10
REMARK    4  A    between atoms: C_14  and  C_16
REMARK                            x       y       z     vdW  Elec       q    Type
REMARK                         _______ _______ _______ _____ _____    ______ ____
ROOT
ATOM      1  C   UNL     1       7.672   5.907  18.200  0.00  0.00    +0.000 C 
ATOM      2  C   UNL     1       7.360   5.129  16.903  0.00  0.00    +0.000 C 
ATOM      3  C   UNL     1       5.871   5.040  16.529  0.00  0.00    +0.000 C 
ATOM      4  N   UNL     1       5.033   4.743  17.693  0.00  0.00    +0.000 N 
ATOM      5  C   UNL     1       4.118   3.675  17.623  0.00  0.00    +0.000 C 
ATOM      6  O   UNL     1       4.011   2.945  16.644  0.00  0.00    +0.000 OA
ATOM      7  C   UNL     1       5.251   5.653  18.814  0.00  0.00    +0.000 C 
ATOM      8  C   UNL     1       6.683   5.552  19.307  0.00  0.00    +0.000 C 
ENDROOT
BRANCH   5   9
ATOM      9  C   UNL     1       3.244   3.389  18.797  0.00  0.00    +0.000 A 
ATOM     10  C   UNL     1       1.938   3.891  18.875  0.00  0.00    +0.000 A 
ATOM     11  C   UNL     1       1.230   3.823  20.076  0.00  0.00    +0.000 A 
ATOM     12  C   UNL     1       1.774   3.139  21.154  0.00  0.00    +0.000 A 
ATOM     13  F   UNL     1       1.103   3.099  22.312  0.00  0.00    +0.000 F 
ATOM     14  C   UNL     1       3.003   2.501  21.048  0.00  0.00    +0.000 A 
ATOM     15  C   UNL     1       3.740   2.642  19.872  0.00  0.00    +0.000 A 
ATOM     16  F   UNL     1       4.951   2.063  19.822  0.00  0.00    +0.000 F 
ENDBRANCH   5   9
BRANCH   1  18
ATOM     17  N   UNL     1       8.530   8.089  18.907  0.00  0.00    +0.000 N 
ATOM     18  C   UNL     1       7.706   7.424  17.994  0.00  0.00    +0.000 C 
ATOM     19  O   UNL     1       7.014   7.958  17.132  0.00  0.00    +0.000 OA
ATOM     20  H   UNL     1       8.915   7.542  19.670  0.00  0.00    +0.000 HD
BRANCH  17  26
ATOM     21  C   UNL     1      10.934  14.758  20.641  0.00  0.00    +0.000 C 
ATOM     22  C   UNL     1      10.381  13.476  20.164  0.00  0.00    +0.000 A 
ATOM     23  N   UNL     1      10.384  12.311  20.782  0.00  0.00    +0.000 NA
ATOM     24  C   UNL     1       9.771  11.471  19.888  0.00  0.00    +0.000 A 
ATOM     25  C   UNL     1       9.489  10.102  19.969  0.00  0.00    +0.000 A 
ATOM     26  C   UNL     1       8.843   9.471  18.896  0.00  0.00    +0.000 A 
ATOM     27  C   UNL     1       8.467  10.232  17.769  0.00  0.00    +0.000 A 
ATOM     28  C   UNL     1       8.745  11.609  17.669  0.00  0.00    +0.000 A 
ATOM     29  C   UNL     1       9.401  12.172  18.755  0.00  0.00    +0.000 A 
ATOM     30  O   UNL     1       9.794  13.470  18.922  0.00  0.00    +0.000 OA
ENDBRANCH  17  26
ENDBRANCH   1  18
TORSDOF 3
ENDMDL
MODEL 5
REMARK VINA RESULT:      -9.1      1.647      1.988
REMARK  Name = 
REMARK  4 active torsions:
REMARK  status: ('A' for Active; 'I' for Inactive)
REMARK    1  A    between atoms: C_1  and  C_2
REMARK    2  A    between atoms: C_6  and  N_7
REMARK    3  A    between atoms: C_8  and  C_10
REMARK    4  A    between atoms: C_14  and  C_16
REMARK                            x       y       z     vdW  Elec       q    Type
REMARK                         _______ _______ _______ _____ _____    ______ ____
ROOT
ATOM      1  C   UNL     1       6.747   6.032  17.317  0.00  0.00    +0.000 C 
ATOM      2  C   UNL     1       5.612   6.700  16.510  0.00  0.00    +0.000 C 
ATOM      3  C   UNL     1       4.380   7.119  17.328  0.00  0.00    +0.000 C 
ATOM      4  N   UNL     1       3.984   6.084  18.287  0.00  0.00    +0.000 N 
ATOM      5  C   UNL     1       2.646   5.645  18.308  0.00  0.00    +0.000 C 
ATOM      6  O   UNL     1       1.792   6.057  17.532  0.00  0.00    +0.000 OA
ATOM      7  C   UNL     1       5.077   5.644  19.150  0.00  0.00    +0.000 C 
ATOM      8  C   UNL     1       6.190   5.028  18.322  0.00  0.00    +0.000 C 
ENDROOT
BRANCH   5   9
ATOM      9  C   UNL     1       2.237   4.613  19.303  0.00  0.00    +0.000 A 
ATOM     10  C   UNL     1       2.074   4.929  20.659  0.00  0.00    +0.000 A 
ATOM     11  C   UNL     1       1.934   3.912  21.605  0.00  0.00    +0.000 A 
ATOM     12  C   UNL     1       1.825   2.593  21.183  0.00  0.00    +0.000 A 
ATOM     13  F   UNL     1       1.717   1.619  22.095  0.00  0.00    +0.000 F 
ATOM     14  C   UNL     1       1.827   2.274  19.831  0.00  0.00    +0.000 A 
ATOM     15  C   UNL     1       2.049   3.286  18.896  0.00  0.00    +0.000 A 
ATOM     16  F   UNL     1       2.106   2.937  17.601  0.00  0.00    +0.000 F 
ENDBRANCH   5   9
BRANCH   1  18
ATOM     17  N   UNL     1       7.592   8.325  17.474  0.00  0.00    +0.000 N 
ATOM     18  C   UNL     1       7.650   7.042  18.029  0.00  0.00    +0.000 C 
ATOM     19  O   UNL     1       8.377   6.694  18.954  0.00  0.00    +0.000 OA
ATOM     20  H   UNL     1       7.074   8.433  16.608  0.00  0.00    +0.000 HD
BRANCH  17  26
ATOM     21  C   UNL     1       9.926  15.155  18.547  0.00  0.00    +0.000 C 
ATOM     22  C   UNL     1       9.552  13.732  18.446  0.00  0.00    +0.000 A 
ATOM     23  N   UNL     1       8.790  13.156  17.537  0.00  0.00    +0.000 NA
ATOM     24  C   UNL     1       8.756  11.843  17.932  0.00  0.00    +0.000 A 
ATOM     25  C   UNL     1       8.100  10.739  17.372  0.00  0.00    +0.000 A 
ATOM     26  C   UNL     1       8.230   9.483  17.982  0.00  0.00    +0.000 A 
ATOM     27  C   UNL     1       9.038   9.351  19.131  0.00  0.00    +0.000 A 
ATOM     28  C   UNL     1       9.704  10.450  19.709  0.00  0.00    +0.000 A 
ATOM     29  C   UNL     1       9.522  11.668  19.069  0.00  0.00    +0.000 A 
ATOM     30  O   UNL     1      10.039  12.886  19.413  0.00  0.00    +0.000 OA
ENDBRANCH  17  26
ENDBRANCH   1  18
TORSDOF 3
ENDMDL
MODEL 6
REMARK VINA RESULT:      -8.5      5.850      7.844
REMARK  Name = 
REMARK  4 active torsions:
REMARK  status: ('A' for Active; 'I' for Inactive)
REMARK    1  A    between atoms: C_1  and  C_2
REMARK    2  A    between atoms: C_6  and  N_7
REMARK    3  A    between atoms: C_8  and  C_10
REMARK    4  A    between atoms: C_14  and  C_16
REMARK                            x       y       z     vdW  Elec       q    Type
REMARK                         _______ _______ _______ _____ _____    ______ ____
ROOT
ATOM      1  C   UNL     1       3.310   3.516  18.701  0.00  0.00    +0.000 C 
ATOM      2  C   UNL     1       4.709   3.618  19.348  0.00  0.00    +0.000 C 
ATOM      3  C   UNL     1       5.656   4.648  18.710  0.00  0.00    +0.000 C 
ATOM      4  N   UNL     1       5.610   4.600  17.247  0.00  0.00    +0.000 N 
ATOM      5  C   UNL     1       6.815   4.484  16.527  0.00  0.00    +0.000 C 
ATOM      6  O   UNL     1       7.912   4.382  17.065  0.00  0.00    +0.000 OA
ATOM      7  C   UNL     1       4.259   4.707  16.704  0.00  0.00    +0.000 C 
ATOM      8  C   UNL     1       3.405   3.545  17.178  0.00  0.00    +0.000 C 
ENDROOT
BRANCH   5   9
ATOM      9  C   UNL     1       6.771   4.464  15.037  0.00  0.00    +0.000 A 
ATOM     10  C   UNL     1       5.963   3.553  14.342  0.00  0.00    +0.000 A 
ATOM     11  C   UNL     1       6.120   3.384  12.965  0.00  0.00    +0.000 A 
ATOM     12  C   UNL     1       6.986   4.215  12.267  0.00  0.00    +0.000 A 
ATOM     13  F   UNL     1       7.153   4.032  10.951  0.00  0.00    +0.000 F 
ATOM     14  C   UNL     1       7.679   5.229  12.914  0.00  0.00    +0.000 A 
ATOM     15  C   UNL     1       7.580   5.339  14.302  0.00  0.00    +0.000 A 
ATOM     16  F   UNL     1       8.310   6.291  14.905  0.00  0.00    +0.000 F 
ENDBRANCH   5   9
BRANCH   1  18
ATOM     17  N   UNL     1       2.917   5.876  19.223  0.00  0.00    +0.000 N 
ATOM     18  C   UNL     1       2.345   4.601  19.187  0.00  0.00    +0.000 C 
ATOM     19  O   UNL     1       1.209   4.314  19.553  0.00  0.00    +0.000 OA
ATOM     20  H   UNL     1       3.915   5.943  19.051  0.00  0.00    +0.000 HD
BRANCH  17  26
ATOM     21  C   UNL     1      -0.709  11.240  22.590  0.00  0.00    +0.000 C 
ATOM     22  C   UNL     1       0.007  10.239  21.777  0.00  0.00    +0.000 A 
ATOM     23  N   UNL     1       0.424   9.043  22.145  0.00  0.00    +0.000 NA
ATOM     24  C   UNL     1       1.039   8.557  21.020  0.00  0.00    +0.000 A 
ATOM     25  C   UNL     1       1.688   7.337  20.789  0.00  0.00    +0.000 A 
ATOM     26  C   UNL     1       2.243   7.085  19.527  0.00  0.00    +0.000 A 
ATOM     27  C   UNL     1       2.118   8.053  18.507  0.00  0.00    +0.000 A 
ATOM     28  C   UNL     1       1.471   9.286  18.721  0.00  0.00    +0.000 A 
ATOM     29  C   UNL     1       0.957   9.483  19.996  0.00  0.00    +0.000 A 
ATOM     30  O   UNL     1       0.293  10.577  20.477  0.00  0.00    +0.000 OA
ENDBRANCH  17  26
ENDBRANCH   1  18
TORSDOF 3
ENDMDL
MODEL 7
REMARK VINA RESULT:      -8.5      1.725      2.015
REMARK  Name = 
REMARK  4 active torsions:
REMARK  status: ('A' for Active; 'I' for Inactive)
REMARK    1  A    between atoms: C_1  and  C_2
REMARK    2  A    between atoms: C_6  and  N_7
REMARK    3  A    between atoms: C_8  and  C_10
REMARK    4  A    between atoms: C_14  and  C_16
REMARK                            x       y       z     vdW  Elec       q    Type
REMARK                         _______ _______ _______ _____ _____    ______ ____
ROOT
ATOM      1  C   UNL     1       6.980   6.136  17.375  0.00  0.00    +0.000 C 
ATOM      2  C   UNL     1       5.794   6.718  16.575  0.00  0.00    +0.000 C 
ATOM      3  C   UNL     1       4.545   7.060  17.404  0.00  0.00    +0.000 C 
ATOM      4  N   UNL     1       4.231   6.011  18.378  0.00  0.00    +0.000 N 
ATOM      5  C   UNL     1       2.927   5.482  18.419  0.00  0.00    +0.000 C 
ATOM      6  O   UNL     1       2.037   5.828  17.649  0.00  0.00    +0.000 OA
ATOM      7  C   UNL     1       5.361   5.655  19.232  0.00  0.00    +0.000 C 
ATOM      8  C   UNL     1       6.504   5.108  18.396  0.00  0.00    +0.000 C 
ENDROOT
BRANCH   5   9
ATOM      9  C   UNL     1       2.599   4.435  19.428  0.00  0.00    +0.000 A 
ATOM     10  C   UNL     1       2.649   3.071  19.109  0.00  0.00    +0.000 A 
ATOM     11  C   UNL     1       2.106   2.126  19.980  0.00  0.00    +0.000 A 
ATOM     12  C   UNL     1       1.638   2.529  21.224  0.00  0.00    +0.000 A 
ATOM     13  F   UNL     1       1.094   1.623  22.046  0.00  0.00    +0.000 F 
ATOM     14  C   UNL     1       1.723   3.857  21.622  0.00  0.00    +0.000 A 
ATOM     15  C   UNL     1       2.191   4.808  20.714  0.00  0.00    +0.000 A 
ATOM     16  F   UNL     1       2.205   6.091  21.109  0.00  0.00    +0.000 F 
ENDBRANCH   5   9
BRANCH   1  18
ATOM     17  N   UNL     1       7.705   8.474  17.472  0.00  0.00    +0.000 N 
ATOM     18  C   UNL     1       7.821   7.213  18.066  0.00  0.00    +0.000 C 
ATOM     19  O   UNL     1       8.552   6.931  19.011  0.00  0.00    +0.000 OA
ATOM     20  H   UNL     1       7.193   8.529  16.597  0.00  0.00    +0.000 HD
BRANCH  17  26
ATOM     21  C   UNL     1       9.526  15.469  18.474  0.00  0.00    +0.000 C 
ATOM     22  C   UNL     1       9.266  14.019  18.380  0.00  0.00    +0.000 A 
ATOM     23  N   UNL     1       8.497  13.388  17.516  0.00  0.00    +0.000 NA
ATOM     24  C   UNL     1       8.598  12.074  17.895  0.00  0.00    +0.000 A 
ATOM     25  C   UNL     1       8.002  10.922  17.366  0.00  0.00    +0.000 A 
ATOM     26  C   UNL     1       8.276   9.678  17.951  0.00  0.00    +0.000 A 
ATOM     27  C   UNL     1       9.165   9.607  19.045  0.00  0.00    +0.000 A 
ATOM     28  C   UNL     1       9.772  10.754  19.592  0.00  0.00    +0.000 A 
ATOM     29  C   UNL     1       9.449  11.957  18.980  0.00  0.00    +0.000 A 
ATOM     30  O   UNL     1       9.884  13.211  19.304  0.00  0.00    +0.000 OA
ENDBRANCH  17  26
ENDBRANCH   1  18
TORSDOF 3
ENDMDL
MODEL 8
REMARK VINA RESULT:      -8.4      5.437      7.926
REMARK  Name = 
REMARK  4 active torsions:
REMARK  status: ('A' for Active; 'I' for Inactive)
REMARK    1  A    between atoms: C_1  and  C_2
REMARK    2  A    between atoms: C_6  and  N_7
REMARK    3  A    between atoms: C_8  and  C_10
REMARK    4  A    between atoms: C_14  and  C_16
REMARK                            x       y       z     vdW  Elec       q    Type
REMARK                         _______ _______ _______ _____ _____    ______ ____
ROOT
ATOM      1  C   UNL     1       4.097   4.424  18.998  0.00  0.00    +0.000 C 
ATOM      2  C   UNL     1       5.398   5.241  19.154  0.00  0.00    +0.000 C 
ATOM      3  C   UNL     1       5.755   6.146  17.963  0.00  0.00    +0.000 C 
ATOM      4  N   UNL     1       5.556   5.465  16.682  0.00  0.00    +0.000 N 
ATOM      5  C   UNL     1       6.605   5.452  15.742  0.00  0.00    +0.000 C 
ATOM      6  O   UNL     1       7.704   5.953  15.955  0.00  0.00    +0.000 OA
ATOM      7  C   UNL     1       4.224   4.883  16.533  0.00  0.00    +0.000 C 
ATOM      8  C   UNL     1       3.987   3.828  17.598  0.00  0.00    +0.000 C 
ENDROOT
BRANCH   5   9
ATOM      9  C   UNL     1       6.393   4.784  14.426  0.00  0.00    +0.000 A 
ATOM     10  C   UNL     1       5.247   4.017  14.173  0.00  0.00    +0.000 A 
ATOM     11  C   UNL     1       5.183   3.205  13.039  0.00  0.00    +0.000 A 
ATOM     12  C   UNL     1       6.201   3.262  12.097  0.00  0.00    +0.000 A 
ATOM     13  F   UNL     1       6.148   2.462  11.024  0.00  0.00    +0.000 F 
ATOM     14  C   UNL     1       7.271   4.133  12.254  0.00  0.00    +0.000 A 
ATOM     15  C   UNL     1       7.370   4.880  13.428  0.00  0.00    +0.000 A 
ATOM     16  F   UNL     1       8.447   5.668  13.577  0.00  0.00    +0.000 F 
ENDBRANCH   5   9
BRANCH   1  18
ATOM     17  N   UNL     1       3.101   6.580  19.595  0.00  0.00    +0.000 N 
ATOM     18  C   UNL     1       2.839   5.232  19.326  0.00  0.00    +0.000 C 
ATOM     19  O   UNL     1       1.741   4.689  19.389  0.00  0.00    +0.000 OA
ATOM     20  H   UNL     1       4.074   6.858  19.669  0.00  0.00    +0.000 HD
BRANCH  17  26
ATOM     21  C   UNL     1      -1.402  12.279  18.889  0.00  0.00    +0.000 C 
ATOM     22  C   UNL     1      -0.536  11.121  19.183  0.00  0.00    +0.000 A 
ATOM     23  N   UNL     1       0.366  10.563  18.399  0.00  0.00    +0.000 NA
ATOM     24  C   UNL     1       0.848   9.524  19.153  0.00  0.00    +0.000 A 
ATOM     25  C   UNL     1       1.820   8.559  18.861  0.00  0.00    +0.000 A 
ATOM     26  C   UNL     1       2.132   7.588  19.823  0.00  0.00    +0.000 A 
ATOM     27  C   UNL     1       1.481   7.617  21.075  0.00  0.00    +0.000 A 
ATOM     28  C   UNL     1       0.499   8.579  21.386  0.00  0.00    +0.000 A 
ATOM     29  C   UNL     1       0.223   9.502  20.386  0.00  0.00    +0.000 A 
ATOM     30  O   UNL     1      -0.678  10.529  20.414  0.00  0.00    +0.000 OA
ENDBRANCH  17  26
ENDBRANCH   1  18
TORSDOF 3
ENDMDL
MODEL 9
REMARK VINA RESULT:      -8.3      5.463      7.933
REMARK  Name = 
REMARK  4 active torsions:
REMARK  status: ('A' for Active; 'I' for Inactive)
REMARK    1  A    between atoms: C_1  and  C_2
REMARK    2  A    between atoms: C_6  and  N_7
REMARK    3  A    between atoms: C_8  and  C_10
REMARK    4  A    between atoms: C_14  and  C_16
REMARK                            x       y       z     vdW  Elec       q    Type
REMARK                         _______ _______ _______ _____ _____    ______ ____
ROOT
ATOM      1  C   UNL     1       4.001   4.421  18.983  0.00  0.00    +0.000 C 
ATOM      2  C   UNL     1       5.337   5.177  19.158  0.00  0.00    +0.000 C 
ATOM      3  C   UNL     1       5.741   6.080  17.981  0.00  0.00    +0.000 C 
ATOM      4  N   UNL     1       5.520   5.426  16.689  0.00  0.00    +0.000 N 
ATOM      5  C   UNL     1       6.573   5.379  15.755  0.00  0.00    +0.000 C 
ATOM      6  O   UNL     1       7.692   5.826  15.982  0.00  0.00    +0.000 OA
ATOM      7  C   UNL     1       4.165   4.907  16.525  0.00  0.00    +0.000 C 
ATOM      8  C   UNL     1       3.873   3.849  17.574  0.00  0.00    +0.000 C 
ENDROOT
BRANCH   5   9
ATOM      9  C   UNL     1       6.340   4.738  14.430  0.00  0.00    +0.000 A 
ATOM     10  C   UNL     1       5.180   3.994  14.172  0.00  0.00    +0.000 A 
ATOM     11  C   UNL     1       5.094   3.204  13.024  0.00  0.00    +0.000 A 
ATOM     12  C   UNL     1       6.105   3.262  12.074  0.00  0.00    +0.000 A 
ATOM     13  F   UNL     1       6.031   2.484  10.988  0.00  0.00    +0.000 F 
ATOM     14  C   UNL     1       7.190   4.113  12.239  0.00  0.00    +0.000 A 
ATOM     15  C   UNL     1       7.310   4.838  13.425  0.00  0.00    +0.000 A 
ATOM     16  F   UNL     1       8.400   5.606  13.579  0.00  0.00    +0.000 F 
ENDBRANCH   5   9
BRANCH   1  18
ATOM     17  N   UNL     1       3.107   6.577  19.722  0.00  0.00    +0.000 N 
ATOM     18  C   UNL     1       2.779   5.281  19.314  0.00  0.00    +0.000 C 
ATOM     19  O   UNL     1       1.647   4.810  19.265  0.00  0.00    +0.000 OA
ATOM     20  H   UNL     1       4.090   6.781  19.876  0.00  0.00    +0.000 HD
BRANCH  17  26
ATOM     21  C   UNL     1      -1.480  11.238  22.961  0.00  0.00    +0.000 C 
ATOM     22  C   UNL     1      -0.595  10.362  22.170  0.00  0.00    +0.000 A 
ATOM     23  N   UNL     1       0.098   9.320  22.586  0.00  0.00    +0.000 NA
ATOM     24  C   UNL     1       0.756   8.901  21.458  0.00  0.00    +0.000 A 
ATOM     25  C   UNL     1       1.652   7.842  21.265  0.00  0.00    +0.000 A 
ATOM     26  C   UNL     1       2.192   7.625  19.989  0.00  0.00    +0.000 A 
ATOM     27  C   UNL     1       1.804   8.461  18.921  0.00  0.00    +0.000 A 
ATOM     28  C   UNL     1       0.906   9.532  19.096  0.00  0.00    +0.000 A 
ATOM     29  C   UNL     1       0.419   9.705  20.384  0.00  0.00    +0.000 A 
ATOM     30  O   UNL     1      -0.452  10.657  20.836  0.00  0.00    +0.000 OA
ENDBRANCH  17  26
ENDBRANCH   1  18
TORSDOF 3
ENDMDL
