MODEL 1
REMARK VINA RESULT:      -8.9      0.000      0.000
REMARK  Name = 
REMARK  4 active torsions:
REMARK  status: ('A' for Active; 'I' for Inactive)
REMARK    1  A    between atoms: C_2  and  C_17
REMARK    2  A    between atoms: N_3  and  C_4
REMARK    3  A    between atoms: C_9  and  O_10
REMARK    4  A    between atoms: O_10  and  C_11
REMARK                            x       y       z     vdW  Elec       q    Type
REMARK                         _______ _______ _______ _____ _____    ______ ____
ROOT
ATOM      1  O   UNL     1       3.790   6.076  19.531  0.00  0.00    +0.000 OA
ATOM      2  C   UNL     1       3.270   6.757  18.644  0.00  0.00    +0.000 C 
ATOM      3  N   UNL     1       3.680   6.758  17.313  0.00  0.00    +0.000 N 
ATOM      4  H   UNL     1       3.418   7.572  16.766  0.00  0.00    +0.000 HD
ENDROOT
BRANCH   2   5
ATOM      5  C   UNL     1       2.238   7.743  19.070  0.00  0.00    +0.000 A 
ATOM      6  C   UNL     1       1.937   8.768  18.174  0.00  0.00    +0.000 A 
ATOM      7  C   UNL     1       0.988   9.696  18.543  0.00  0.00    +0.000 A 
ATOM      8  C   UNL     1       0.487   9.669  19.855  0.00  0.00    +0.000 A 
ATOM      9  C   UNL     1      -0.380  10.672  20.285  0.00  0.00    +0.000 A 
ATOM     10  C   UNL     1      -0.436  10.970  21.639  0.00  0.00    +0.000 A 
ATOM     11  C   UNL     1       0.135  10.090  22.543  0.00  0.00    +0.000 A 
ATOM     12  C   UNL     1       0.733   8.916  22.097  0.00  0.00    +0.000 A 
ATOM     13  C   UNL     1       0.982   8.694  20.739  0.00  0.00    +0.000 A 
ATOM     14  N   UNL     1       1.747   7.663  20.335  0.00  0.00    +0.000 NA
ENDBRANCH   2   5
BRANCH   3  15
ATOM     15  C   UNL     1       4.847   6.022  16.943  0.00  0.00    +0.000 A 
ATOM     16  C   UNL     1       6.089   6.666  16.920  0.00  0.00    +0.000 A 
ATOM     17  N   UNL     1       7.271   6.093  16.577  0.00  0.00    +0.000 NA
ATOM     18  C   UNL     1       7.227   4.801  16.223  0.00  0.00    +0.000 A 
ATOM     19  C   UNL     1       6.060   4.060  16.207  0.00  0.00    +0.000 A 
ATOM     20  C   UNL     1       4.847   4.673  16.561  0.00  0.00    +0.000 A 
BRANCH  20  21
ATOM     21  O   UNL     1       3.784   3.802  16.489  0.00  0.00    +0.000 OA
BRANCH  21  22
ATOM     22  C   UNL     1       3.078   3.414  17.597  0.00  0.00    +0.000 A 
ATOM     23  C   UNL     1       1.719   3.640  17.813  0.00  0.00    +0.000 A 
ATOM     24  C   UNL     1       1.158   3.335  19.055  0.00  0.00    +0.000 A 
ATOM     25  C   UNL     1       1.930   2.723  20.041  0.00  0.00    +0.000 A 
ATOM     26  C   UNL     1       3.254   2.380  19.776  0.00  0.00    +0.000 A 
ATOM     27  C   UNL     1       3.825   2.723  18.553  0.00  0.00    +0.000 A 
ENDBRANCH  21  22
ENDBRANCH  20  21
ENDBRANCH   3  15
TORSDOF 4
ENDMDL
MODEL 2
REMARK VINA RESULT:      -8.6      1.044      1.430
REMARK  Name = 
REMARK  4 active torsions:
REMARK  status: ('A' for Active; 'I' for Inactive)
REMARK    1  A    between atoms: C_2  and  C_17
REMARK    2  A    between atoms: N_3  and  C_4
REMARK    3  A    between atoms: C_9  and  O_10
REMARK    4  A    between atoms: O_10  and  C_11
REMARK                            x       y       z     vdW  Elec       q    Type
REMARK                         _______ _______ _______ _____ _____    ______ ____
ROOT
ATOM      1  O   UNL     1       3.341   7.858  16.519  0.00  0.00    +0.000 OA
ATOM      2  C   UNL     1       3.291   7.622  17.728  0.00  0.00    +0.000 C 
ATOM      3  N   UNL     1       4.070   6.664  18.374  0.00  0.00    +0.000 N 
ATOM      4  H   UNL     1       3.720   6.331  19.267  0.00  0.00    +0.000 HD
ENDROOT
BRANCH   2   5
ATOM      5  C   UNL     1       2.222   8.308  18.505  0.00  0.00    +0.000 A 
ATOM      6  C   UNL     1       1.628   9.422  17.912  0.00  0.00    +0.000 A 
ATOM      7  C   UNL     1       0.637  10.078  18.610  0.00  0.00    +0.000 A 
ATOM      8  C   UNL     1       0.382   9.705  19.939  0.00  0.00    +0.000 A 
ATOM      9  C   UNL     1      -0.529  10.435  20.700  0.00  0.00    +0.000 A 
ATOM     10  C   UNL     1      -0.388  10.445  22.082  0.00  0.00    +0.000 A 
ATOM     11  C   UNL     1       0.450   9.517  22.676  0.00  0.00    +0.000 A 
ATOM     12  C   UNL     1       1.119   8.576  21.899  0.00  0.00    +0.000 A 
ATOM     13  C   UNL     1       1.156   8.676  20.505  0.00  0.00    +0.000 A 
ATOM     14  N   UNL     1       1.976   7.895  19.776  0.00  0.00    +0.000 NA
ENDBRANCH   2   5
BRANCH   3  15
ATOM     15  C   UNL     1       4.906   5.807  17.595  0.00  0.00    +0.000 A 
ATOM     16  C   UNL     1       6.179   6.247  17.214  0.00  0.00    +0.000 A 
ATOM     17  N   UNL     1       7.068   5.544  16.467  0.00  0.00    +0.000 NA
ATOM     18  C   UNL     1       6.676   4.328  16.059  0.00  0.00    +0.000 A 
ATOM     19  C   UNL     1       5.443   3.786  16.373  0.00  0.00    +0.000 A 
ATOM     20  C   UNL     1       4.536   4.532  17.143  0.00  0.00    +0.000 A 
BRANCH  20  21
ATOM     21  O   UNL     1       3.359   3.853  17.362  0.00  0.00    +0.000 OA
BRANCH  21  22
ATOM     22  C   UNL     1       2.865   3.628  18.619  0.00  0.00    +0.000 A 
ATOM     23  C   UNL     1       3.550   3.000  19.660  0.00  0.00    +0.000 A 
ATOM     24  C   UNL     1       2.874   2.689  20.842  0.00  0.00    +0.000 A 
ATOM     25  C   UNL     1       1.550   3.088  21.017  0.00  0.00    +0.000 A 
ATOM     26  C   UNL     1       0.909   3.830  20.028  0.00  0.00    +0.000 A 
ATOM     27  C   UNL     1       1.569   4.102  18.831  0.00  0.00    +0.000 A 
ENDBRANCH  21  22
ENDBRANCH  20  21
ENDBRANCH   3  15
TORSDOF 4
ENDMDL
MODEL 3
REMARK VINA RESULT:      -8.5      2.314      7.645
REMARK  Name = 
REMARK  4 active torsions:
REMARK  status: ('A' for Active; 'I' for Inactive)
REMARK    1  A    between atoms: C_2  and  C_17
REMARK    2  A    between atoms: N_3  and  C_4
REMARK    3  A    between atoms: C_9  and  O_10
REMARK    4  A    between atoms: O_10  and  C_11
REMARK                            x       y       z     vdW  Elec       q    Type
REMARK                         _______ _______ _______ _____ _____    ______ ____
ROOT
ATOM      1  O   UNL     1       5.602   4.068  18.858  0.00  0.00    +0.000 OA
ATOM      2  C   UNL     1       5.000   4.340  17.816  0.00  0.00    +0.000 C 
ATOM      3  N   UNL     1       3.613   4.386  17.700  0.00  0.00    +0.000 N 
ATOM      4  H   UNL     1       3.239   4.288  16.762  0.00  0.00    +0.000 HD
ENDROOT
BRANCH   2   5
ATOM      5  C   UNL     1       5.821   4.479  16.581  0.00  0.00    +0.000 A 
ATOM      6  C   UNL     1       6.654   5.595  16.500  0.00  0.00    +0.000 A 
ATOM      7  C   UNL     1       7.423   5.750  15.366  0.00  0.00    +0.000 A 
ATOM      8  C   UNL     1       7.218   4.880  14.283  0.00  0.00    +0.000 A 
ATOM      9  C   UNL     1       7.896   5.095  13.085  0.00  0.00    +0.000 A 
ATOM     10  C   UNL     1       7.330   4.633  11.905  0.00  0.00    +0.000 A 
ATOM     11  C   UNL     1       6.280   3.733  11.974  0.00  0.00    +0.000 A 
ATOM     12  C   UNL     1       5.819   3.285  13.207  0.00  0.00    +0.000 A 
ATOM     13  C   UNL     1       6.230   3.886  14.401  0.00  0.00    +0.000 A 
ATOM     14  N   UNL     1       5.623   3.596  15.567  0.00  0.00    +0.000 NA
ENDBRANCH   2   5
BRANCH   3  15
ATOM     15  C   UNL     1       2.808   3.987  18.811  0.00  0.00    +0.000 A 
ATOM     16  C   UNL     1       2.232   2.711  18.821  0.00  0.00    +0.000 A 
ATOM     17  N   UNL     1       1.439   2.209  19.801  0.00  0.00    +0.000 NA
ATOM     18  C   UNL     1       1.186   3.020  20.838  0.00  0.00    +0.000 A 
ATOM     19  C   UNL     1       1.698   4.300  20.940  0.00  0.00    +0.000 A 
ATOM     20  C   UNL     1       2.513   4.803  19.912  0.00  0.00    +0.000 A 
BRANCH  20  21
ATOM     21  O   UNL     1       2.935   6.088  20.165  0.00  0.00    +0.000 OA
BRANCH  21  22
ATOM     22  C   UNL     1       2.321   7.183  19.617  0.00  0.00    +0.000 A 
ATOM     23  C   UNL     1       2.397   7.570  18.279  0.00  0.00    +0.000 A 
ATOM     24  C   UNL     1       1.856   8.796  17.885  0.00  0.00    +0.000 A 
ATOM     25  C   UNL     1       1.164   9.585  18.803  0.00  0.00    +0.000 A 
ATOM     26  C   UNL     1       0.978   9.133  20.108  0.00  0.00    +0.000 A 
ATOM     27  C   UNL     1       1.555   7.932  20.512  0.00  0.00    +0.000 A 
ENDBRANCH  21  22
ENDBRANCH  20  21
ENDBRANCH   3  15
TORSDOF 4
ENDMDL
MODEL 4
REMARK VINA RESULT:      -8.5      0.811      1.854
REMARK  Name = 
REMARK  4 active torsions:
REMARK  status: ('A' for Active; 'I' for Inactive)
REMARK    1  A    between atoms: C_2  and  C_17
REMARK    2  A    between atoms: N_3  and  C_4
REMARK    3  A    between atoms: C_9  and  O_10
REMARK    4  A    between atoms: O_10  and  C_11
REMARK                            x       y       z     vdW  Elec       q    Type
REMARK                         _______ _______ _______ _____ _____    ______ ____
ROOT
ATOM      1  O   UNL     1       3.885   5.794  19.521  0.00  0.00    +0.000 OA
ATOM      2  C   UNL     1       3.408   6.621  18.740  0.00  0.00    +0.000 C 
ATOM      3  N   UNL     1       3.800   6.763  17.411  0.00  0.00    +0.000 N 
ATOM      4  H   UNL     1       3.595   7.657  16.977  0.00  0.00    +0.000 HD
ENDROOT
BRANCH   2   5
ATOM      5  C   UNL     1       2.461   7.619  19.310  0.00  0.00    +0.000 A 
ATOM      6  C   UNL     1       1.917   7.328  20.562  0.00  0.00    +0.000 A 
ATOM      7  C   UNL     1       1.035   8.232  21.113  0.00  0.00    +0.000 A 
ATOM      8  C   UNL     1       0.598   9.315  20.333  0.00  0.00    +0.000 A 
ATOM      9  C   UNL     1      -0.385  10.171  20.826  0.00  0.00    +0.000 A 
ATOM     10  C   UNL     1      -1.188  10.856  19.925  0.00  0.00    +0.000 A 
ATOM     11  C   UNL     1      -0.810  10.901  18.593  0.00  0.00    +0.000 A 
ATOM     12  C   UNL     1       0.366  10.289  18.175  0.00  0.00    +0.000 A 
ATOM     13  C   UNL     1       1.078   9.427  19.016  0.00  0.00    +0.000 A 
ATOM     14  N   UNL     1       2.088   8.675  18.541  0.00  0.00    +0.000 NA
ENDBRANCH   2   5
BRANCH   3  15
ATOM     15  C   UNL     1       4.902   5.994  16.924  0.00  0.00    +0.000 A 
ATOM     16  C   UNL     1       6.184   6.555  16.921  0.00  0.00    +0.000 A 
ATOM     17  N   UNL     1       7.313   5.945  16.478  0.00  0.00    +0.000 NA
ATOM     18  C   UNL     1       7.170   4.702  15.994  0.00  0.00    +0.000 A 
ATOM     19  C   UNL     1       5.954   4.045  15.946  0.00  0.00    +0.000 A 
ATOM     20  C   UNL     1       4.797   4.696  16.405  0.00  0.00    +0.000 A 
BRANCH  20  21
ATOM     21  O   UNL     1       3.675   3.909  16.285  0.00  0.00    +0.000 OA
BRANCH  21  22
ATOM     22  C   UNL     1       3.083   3.305  17.362  0.00  0.00    +0.000 A 
ATOM     23  C   UNL     1       3.682   2.354  18.190  0.00  0.00    +0.000 A 
ATOM     24  C   UNL     1       2.913   1.700  19.155  0.00  0.00    +0.000 A 
ATOM     25  C   UNL     1       1.581   2.061  19.353  0.00  0.00    +0.000 A 
ATOM     26  C   UNL     1       1.024   3.101  18.614  0.00  0.00    +0.000 A 
ATOM     27  C   UNL     1       1.777   3.724  17.621  0.00  0.00    +0.000 A 
ENDBRANCH  21  22
ENDBRANCH  20  21
ENDBRANCH   3  15
TORSDOF 4
ENDMDL
MODEL 5
REMARK VINA RESULT:      -8.5      0.760      1.225
REMARK  Name = 
REMARK  4 active torsions:
REMARK  status: ('A' for Active; 'I' for Inactive)
REMARK    1  A    between atoms: C_2  and  C_17
REMARK    2  A    between atoms: N_3  and  C_4
REMARK    3  A    between atoms: C_9  and  O_10
REMARK    4  A    between atoms: O_10  and  C_11
REMARK                            x       y       z     vdW  Elec       q    Type
REMARK                         _______ _______ _______ _____ _____    ______ ____
ROOT
ATOM      1  O   UNL     1       3.422   6.377  19.948  0.00  0.00    +0.000 OA
ATOM      2  C   UNL     1       2.821   6.997  19.068  0.00  0.00    +0.000 C 
ATOM      3  N   UNL     1       3.112   6.912  17.709  0.00  0.00    +0.000 N 
ATOM      4  H   UNL     1       2.797   7.688  17.135  0.00  0.00    +0.000 HD
ENDROOT
BRANCH   2   5
ATOM      5  C   UNL     1       1.823   8.007  19.519  0.00  0.00    +0.000 A 
ATOM      6  C   UNL     1       1.653   9.130  18.709  0.00  0.00    +0.000 A 
ATOM      7  C   UNL     1       0.738  10.082  19.103  0.00  0.00    +0.000 A 
ATOM      8  C   UNL     1       0.140   9.967  20.369  0.00  0.00    +0.000 A 
ATOM      9  C   UNL     1      -0.693  10.981  20.836  0.00  0.00    +0.000 A 
ATOM     10  C   UNL     1      -0.831  11.154  22.206  0.00  0.00    +0.000 A 
ATOM     11  C   UNL     1      -0.384  10.156  23.055  0.00  0.00    +0.000 A 
ATOM     12  C   UNL     1       0.172   8.990  22.537  0.00  0.00    +0.000 A 
ATOM     13  C   UNL     1       0.507   8.881  21.184  0.00  0.00    +0.000 A 
ATOM     14  N   UNL     1       1.235   7.843  20.733  0.00  0.00    +0.000 NA
ENDBRANCH   2   5
BRANCH   3  15
ATOM     15  C   UNL     1       4.247   6.156  17.286  0.00  0.00    +0.000 A 
ATOM     16  C   UNL     1       5.452   6.814  17.014  0.00  0.00    +0.000 A 
ATOM     17  N   UNL     1       6.599   6.224  16.594  0.00  0.00    +0.000 NA
ATOM     18  C   UNL     1       6.558   4.895  16.421  0.00  0.00    +0.000 A 
ATOM     19  C   UNL     1       5.426   4.136  16.658  0.00  0.00    +0.000 A 
ATOM     20  C   UNL     1       4.248   4.768  17.087  0.00  0.00    +0.000 A 
BRANCH  20  21
ATOM     21  O   UNL     1       3.218   3.875  17.272  0.00  0.00    +0.000 OA
BRANCH  21  22
ATOM     22  C   UNL     1       2.790   3.497  18.517  0.00  0.00    +0.000 A 
ATOM     23  C   UNL     1       3.606   3.041  19.552  0.00  0.00    +0.000 A 
ATOM     24  C   UNL     1       3.025   2.535  20.717  0.00  0.00    +0.000 A 
ATOM     25  C   UNL     1       1.641   2.573  20.883  0.00  0.00    +0.000 A 
ATOM     26  C   UNL     1       0.837   3.149  19.902  0.00  0.00    +0.000 A 
ATOM     27  C   UNL     1       1.413   3.613  18.721  0.00  0.00    +0.000 A 
ENDBRANCH  21  22
ENDBRANCH  20  21
ENDBRANCH   3  15
TORSDOF 4
ENDMDL
MODEL 6
REMARK VINA RESULT:      -8.4      2.296      7.700
REMARK  Name = 
REMARK  4 active torsions:
REMARK  status: ('A' for Active; 'I' for Inactive)
REMARK    1  A    between atoms: C_2  and  C_17
REMARK    2  A    between atoms: N_3  and  C_4
REMARK    3  A    between atoms: C_9  and  O_10
REMARK    4  A    between atoms: O_10  and  C_11
REMARK                            x       y       z     vdW  Elec       q    Type
REMARK                         _______ _______ _______ _____ _____    ______ ____
ROOT
ATOM      1  O   UNL     1       5.226   3.780  18.585  0.00  0.00    +0.000 OA
ATOM      2  C   UNL     1       4.741   4.325  17.591  0.00  0.00    +0.000 C 
ATOM      3  N   UNL     1       3.396   4.661  17.457  0.00  0.00    +0.000 N 
ATOM      4  H   UNL     1       3.059   4.787  16.508  0.00  0.00    +0.000 HD
ENDROOT
BRANCH   2   5
ATOM      5  C   UNL     1       5.635   4.493  16.411  0.00  0.00    +0.000 A 
ATOM      6  C   UNL     1       6.413   5.650  16.369  0.00  0.00    +0.000 A 
ATOM      7  C   UNL     1       7.247   5.832  15.287  0.00  0.00    +0.000 A 
ATOM      8  C   UNL     1       7.162   4.941  14.206  0.00  0.00    +0.000 A 
ATOM      9  C   UNL     1       7.907   5.177  13.053  0.00  0.00    +0.000 A 
ATOM     10  C   UNL     1       7.447   4.672  11.845  0.00  0.00    +0.000 A 
ATOM     11  C   UNL     1       6.442   3.719  11.857  0.00  0.00    +0.000 A 
ATOM     12  C   UNL     1       5.923   3.262  13.064  0.00  0.00    +0.000 A 
ATOM     13  C   UNL     1       6.220   3.898  14.273  0.00  0.00    +0.000 A 
ATOM     14  N   UNL     1       5.552   3.589  15.400  0.00  0.00    +0.000 NA
ENDBRANCH   2   5
BRANCH   3  15
ATOM     15  C   UNL     1       2.474   4.258  18.471  0.00  0.00    +0.000 A 
ATOM     16  C   UNL     1       1.756   3.066  18.316  0.00  0.00    +0.000 A 
ATOM     17  N   UNL     1       0.843   2.573  19.190  0.00  0.00    +0.000 NA
ATOM     18  C   UNL     1       0.612   3.305  20.289  0.00  0.00    +0.000 A 
ATOM     19  C   UNL     1       1.260   4.498  20.552  0.00  0.00    +0.000 A 
ATOM     20  C   UNL     1       2.197   4.994  19.632  0.00  0.00    +0.000 A 
BRANCH  20  21
ATOM     21  O   UNL     1       2.746   6.188  20.041  0.00  0.00    +0.000 OA
BRANCH  21  22
ATOM     22  C   UNL     1       2.170   7.396  19.752  0.00  0.00    +0.000 A 
ATOM     23  C   UNL     1       1.449   8.186  20.648  0.00  0.00    +0.000 A 
ATOM     24  C   UNL     1       0.777   9.319  20.183  0.00  0.00    +0.000 A 
ATOM     25  C   UNL     1       0.903   9.710  18.850  0.00  0.00    +0.000 A 
ATOM     26  C   UNL     1       1.730   8.992  17.989  0.00  0.00    +0.000 A 
ATOM     27  C   UNL     1       2.364   7.838  18.442  0.00  0.00    +0.000 A 
ENDBRANCH  21  22
ENDBRANCH  20  21
ENDBRANCH   3  15
TORSDOF 4
ENDMDL
MODEL 7
REMARK VINA RESULT:      -8.3      2.040      4.116
REMARK  Name = 
REMARK  4 active torsions:
REMARK  status: ('A' for Active; 'I' for Inactive)
REMARK    1  A    between atoms: C_2  and  C_17
REMARK    2  A    between atoms: N_3  and  C_4
REMARK    3  A    between atoms: C_9  and  O_10
REMARK    4  A    between atoms: O_10  and  C_11
REMARK                            x       y       z     vdW  Elec       q    Type
REMARK                         _______ _______ _______ _____ _____    ______ ____
ROOT
ATOM      1  O   UNL     1       2.455   7.498  18.150  0.00  0.00    +0.000 OA
ATOM      2  C   UNL     1       2.142   7.256  19.318  0.00  0.00    +0.000 C 
ATOM      3  N   UNL     1       2.204   5.994  19.902  0.00  0.00    +0.000 N 
ATOM      4  H   UNL     1       1.626   5.853  20.725  0.00  0.00    +0.000 HD
ENDROOT
BRANCH   2   5
ATOM      5  C   UNL     1       1.520   8.367  20.092  0.00  0.00    +0.000 A 
ATOM      6  C   UNL     1       1.370   8.172  21.465  0.00  0.00    +0.000 A 
ATOM      7  C   UNL     1       0.795   9.182  22.205  0.00  0.00    +0.000 A 
ATOM      8  C   UNL     1       0.240  10.284  21.534  0.00  0.00    +0.000 A 
ATOM      9  C   UNL     1      -0.453  11.255  22.254  0.00  0.00    +0.000 A 
ATOM     10  C   UNL     1      -1.429  11.998  21.604  0.00  0.00    +0.000 A 
ATOM     11  C   UNL     1      -1.485  11.965  20.221  0.00  0.00    +0.000 A 
ATOM     12  C   UNL     1      -0.561  11.217  19.498  0.00  0.00    +0.000 A 
ATOM     13  C   UNL     1       0.292  10.306  20.129  0.00  0.00    +0.000 A 
ATOM     14  N   UNL     1       1.027   9.436  19.412  0.00  0.00    +0.000 NA
ENDBRANCH   2   5
BRANCH   3  15
ATOM     15  C   UNL     1       2.540   4.867  19.091  0.00  0.00    +0.000 A 
ATOM     16  C   UNL     1       1.537   4.224  18.357  0.00  0.00    +0.000 A 
ATOM     17  N   UNL     1       1.712   3.140  17.559  0.00  0.00    +0.000 NA
ATOM     18  C   UNL     1       2.957   2.647  17.486  0.00  0.00    +0.000 A 
ATOM     19  C   UNL     1       4.029   3.197  18.166  0.00  0.00    +0.000 A 
ATOM     20  C   UNL     1       3.825   4.316  18.990  0.00  0.00    +0.000 A 
BRANCH  20  21
ATOM     21  O   UNL     1       4.988   4.735  19.594  0.00  0.00    +0.000 OA
BRANCH  21  22
ATOM     22  C   UNL     1       5.921   5.495  18.941  0.00  0.00    +0.000 A 
ATOM     23  C   UNL     1       7.244   5.680  19.344  0.00  0.00    +0.000 A 
ATOM     24  C   UNL     1       8.046   6.608  18.676  0.00  0.00    +0.000 A 
ATOM     25  C   UNL     1       7.557   7.278  17.555  0.00  0.00    +0.000 A 
ATOM     26  C   UNL     1       6.280   6.994  17.077  0.00  0.00    +0.000 A 
ATOM     27  C   UNL     1       5.465   6.101  17.768  0.00  0.00    +0.000 A 
ENDBRANCH  21  22
ENDBRANCH  20  21
ENDBRANCH   3  15
TORSDOF 4
ENDMDL
MODEL 8
REMARK VINA RESULT:      -8.3      1.989      4.075
REMARK  Name = 
REMARK  4 active torsions:
REMARK  status: ('A' for Active; 'I' for Inactive)
REMARK    1  A    between atoms: C_2  and  C_17
REMARK    2  A    between atoms: N_3  and  C_4
REMARK    3  A    between atoms: C_9  and  O_10
REMARK    4  A    between atoms: O_10  and  C_11
REMARK                            x       y       z     vdW  Elec       q    Type
REMARK                         _______ _______ _______ _____ _____    ______ ____
ROOT
ATOM      1  O   UNL     1       2.378   6.647  18.101  0.00  0.00    +0.000 OA
ATOM      2  C   UNL     1       2.320   6.680  19.332  0.00  0.00    +0.000 C 
ATOM      3  N   UNL     1       2.600   5.595  20.160  0.00  0.00    +0.000 N 
ATOM      4  H   UNL     1       2.208   5.634  21.096  0.00  0.00    +0.000 HD
ENDROOT
BRANCH   2   5
ATOM      5  C   UNL     1       1.773   7.921  19.948  0.00  0.00    +0.000 A 
ATOM      6  C   UNL     1       1.473   7.869  21.310  0.00  0.00    +0.000 A 
ATOM      7  C   UNL     1       0.963   9.003  21.905  0.00  0.00    +0.000 A 
ATOM      8  C   UNL     1       0.616  10.097  21.097  0.00  0.00    +0.000 A 
ATOM      9  C   UNL     1      -0.014  11.203  21.662  0.00  0.00    +0.000 A 
ATOM     10  C   UNL     1      -0.824  11.994  20.859  0.00  0.00    +0.000 A 
ATOM     11  C   UNL     1      -0.755  11.843  19.484  0.00  0.00    +0.000 A 
ATOM     12  C   UNL     1       0.131  10.930  18.922  0.00  0.00    +0.000 A 
ATOM     13  C   UNL     1       0.801   9.986  19.707  0.00  0.00    +0.000 A 
ATOM     14  N   UNL     1       1.484   8.974  19.140  0.00  0.00    +0.000 NA
ENDBRANCH   2   5
BRANCH   3  15
ATOM     15  C   UNL     1       2.861   4.320  19.572  0.00  0.00    +0.000 A 
ATOM     16  C   UNL     1       1.790   3.521  19.155  0.00  0.00    +0.000 A 
ATOM     17  N   UNL     1       1.893   2.289  18.596  0.00  0.00    +0.000 NA
ATOM     18  C   UNL     1       3.134   1.804  18.444  0.00  0.00    +0.000 A 
ATOM     19  C   UNL     1       4.269   2.500  18.818  0.00  0.00    +0.000 A 
ATOM     20  C   UNL     1       4.140   3.771  19.400  0.00  0.00    +0.000 A 
BRANCH  20  21
ATOM     21  O   UNL     1       5.360   4.325  19.715  0.00  0.00    +0.000 OA
BRANCH  21  22
ATOM     22  C   UNL     1       5.970   5.256  18.919  0.00  0.00    +0.000 A 
ATOM     23  C   UNL     1       5.459   5.763  17.724  0.00  0.00    +0.000 A 
ATOM     24  C   UNL     1       6.257   6.588  16.927  0.00  0.00    +0.000 A 
ATOM     25  C   UNL     1       7.520   6.979  17.369  0.00  0.00    +0.000 A 
ATOM     26  C   UNL     1       7.975   6.576  18.622  0.00  0.00    +0.000 A 
ATOM     27  C   UNL     1       7.199   5.718  19.397  0.00  0.00    +0.000 A 
ENDBRANCH  21  22
ENDBRANCH  20  21
ENDBRANCH   3  15
TORSDOF 4
ENDMDL
MODEL 9
REMARK VINA RESULT:      -8.2      1.306      1.941
REMARK  Name = 
REMARK  4 active torsions:
REMARK  status: ('A' for Active; 'I' for Inactive)
REMARK    1  A    between atoms: C_2  and  C_17
REMARK    2  A    between atoms: N_3  and  C_4
REMARK    3  A    between atoms: C_9  and  O_10
REMARK    4  A    between atoms: O_10  and  C_11
REMARK                            x       y       z     vdW  Elec       q    Type
REMARK                         _______ _______ _______ _____ _____    ______ ____
ROOT
ATOM      1  O   UNL     1       1.866   6.477  17.520  0.00  0.00    +0.000 OA
ATOM      2  C   UNL     1       2.611   7.252  18.126  0.00  0.00    +0.000 C 
ATOM      3  N   UNL     1       3.998   7.264  18.002  0.00  0.00    +0.000 N 
ATOM      4  H   UNL     1       4.511   7.691  18.767  0.00  0.00    +0.000 HD
ENDROOT
BRANCH   2   5
ATOM      5  C   UNL     1       1.982   8.120  19.160  0.00  0.00    +0.000 A 
ATOM      6  C   UNL     1       1.805   7.564  20.427  0.00  0.00    +0.000 A 
ATOM      7  C   UNL     1       1.224   8.344  21.403  0.00  0.00    +0.000 A 
ATOM      8  C   UNL     1       0.690   9.593  21.045  0.00  0.00    +0.000 A 
ATOM      9  C   UNL     1      -0.010  10.342  21.989  0.00  0.00    +0.000 A 
ATOM     10  C   UNL     1      -0.968  11.245  21.547  0.00  0.00    +0.000 A 
ATOM     11  C   UNL     1      -0.998  11.586  20.206  0.00  0.00    +0.000 A 
ATOM     12  C   UNL     1      -0.066  11.049  19.323  0.00  0.00    +0.000 A 
ATOM     13  C   UNL     1       0.768   9.992  19.699  0.00  0.00    +0.000 A 
ATOM     14  N   UNL     1       1.510   9.338  18.786  0.00  0.00    +0.000 NA
ENDBRANCH   2   5
BRANCH   3  15
ATOM     15  C   UNL     1       4.636   6.254  17.220  0.00  0.00    +0.000 A 
ATOM     16  C   UNL     1       5.064   6.555  15.922  0.00  0.00    +0.000 A 
ATOM     17  N   UNL     1       5.670   5.692  15.068  0.00  0.00    +0.000 NA
ATOM     18  C   UNL     1       5.861   4.443  15.517  0.00  0.00    +0.000 A 
ATOM     19  C   UNL     1       5.481   4.027  16.781  0.00  0.00    +0.000 A 
ATOM     20  C   UNL     1       4.851   4.935  17.647  0.00  0.00    +0.000 A 
BRANCH  20  21
ATOM     21  O   UNL     1       4.536   4.365  18.859  0.00  0.00    +0.000 OA
BRANCH  21  22
ATOM     22  C   UNL     1       3.292   3.861  19.131  0.00  0.00    +0.000 A 
ATOM     23  C   UNL     1       2.510   3.112  18.252  0.00  0.00    +0.000 A 
ATOM     24  C   UNL     1       1.193   2.797  18.597  0.00  0.00    +0.000 A 
ATOM     25  C   UNL     1       0.695   3.149  19.851  0.00  0.00    +0.000 A 
ATOM     26  C   UNL     1       1.521   3.782  20.777  0.00  0.00    +0.000 A 
ATOM     27  C   UNL     1       2.820   4.135  20.416  0.00  0.00    +0.000 A 
ENDBRANCH  21  22
ENDBRANCH  20  21
ENDBRANCH   3  15
TORSDOF 4
ENDMDL
