MODEL 1
REMARK VINA RESULT:      -9.1      0.000      0.000
REMARK  Name = 
REMARK  6 active torsions:
REMARK  status: ('A' for Active; 'I' for Inactive)
REMARK    1  A    between atoms: C_1  and  C_2
REMARK    2  A    between atoms: C_4  and  C_5
REMARK    3  A    between atoms: C_5  and  O_6
REMARK    4  A    between atoms: O_6  and  C_7
REMARK    5  A    between atoms: C_11  and  C_12
REMARK    6  A    between atoms: N_14  and  C_15
REMARK                            x       y       z     vdW  Elec       q    Type
REMARK                         _______ _______ _______ _____ _____    ______ ____
ROOT
ATOM      1  C   UNL     1       4.734   4.242  19.319  0.00  0.00    +0.000 A 
ATOM      2  C   UNL     1       3.956   3.231  19.879  0.00  0.00    +0.000 A 
ATOM      3  C   UNL     1       2.641   3.503  20.281  0.00  0.00    +0.000 A 
ATOM      4  C   UNL     1       2.098   4.786  20.128  0.00  0.00    +0.000 A 
ATOM      5  C   UNL     1       2.877   5.798  19.563  0.00  0.00    +0.000 A 
ATOM      6  C   UNL     1       4.182   5.509  19.140  0.00  0.00    +0.000 A 
ENDROOT
BRANCH   5   7
ATOM      7  C   UNL     1       2.395   7.186  19.338  0.00  0.00    +0.000 C 
ATOM      8  O   UNL     1       2.809   7.769  18.334  0.00  0.00    +0.000 OA
ATOM      9  N   UNL     1       1.579   7.743  20.312  0.00  0.00    +0.000 N 
ATOM     10  H   UNL     1       1.375   7.183  21.127  0.00  0.00    +0.000 HD
BRANCH   9  11
ATOM     11  C   UNL     1       1.021   9.047  20.277  0.00  0.00    +0.000 A 
ATOM     12  C   UNL     1       0.897   9.810  19.105  0.00  0.00    +0.000 A 
ATOM     13  C   UNL     1       0.253  11.052  19.085  0.00  0.00    +0.000 A 
ATOM     14  C   UNL     1      -0.348  11.563  20.235  0.00  0.00    +0.000 A 
ATOM     15  C   UNL     1      -0.221  10.837  21.429  0.00  0.00    +0.000 A 
ATOM     16  C   UNL     1      -0.690  10.985  22.753  0.00  0.00    +0.000 A 
ATOM     17  N   UNL     1      -0.194  10.059  23.576  0.00  0.00    +0.000 NA
ATOM     18  N   UNL     1       0.586   9.320  22.768  0.00  0.00    +0.000 N 
ATOM     19  C   UNL     1       0.499   9.643  21.438  0.00  0.00    +0.000 A 
ATOM     20  H   UNL     1       1.192   8.631  23.197  0.00  0.00    +0.000 HD
ENDBRANCH   9  11
ENDBRANCH   5   7
BRANCH   1  21
ATOM     21  O   UNL     1       6.012   4.109  18.860  0.00  0.00    +0.000 OA
BRANCH  21  22
ATOM     22  C   UNL     1       6.633   5.285  18.329  0.00  0.00    +0.000 C 
BRANCH  22  26
ATOM     23  C   UNL     1       6.319   3.780  13.617  0.00  0.00    +0.000 C 
ATOM     24  C   UNL     1       6.599   4.469  14.889  0.00  0.00    +0.000 A 
ATOM     25  N   UNL     1       6.191   4.191  16.104  0.00  0.00    +0.000 NA
ATOM     26  C   UNL     1       6.792   5.184  16.847  0.00  0.00    +0.000 A 
ATOM     27  N   UNL     1       7.515   6.056  16.129  0.00  0.00    +0.000 NA
ATOM     28  O   UNL     1       7.396   5.576  14.822  0.00  0.00    +0.000 OA
ENDBRANCH  22  26
ENDBRANCH  21  22
ENDBRANCH   1  21
TORSDOF 5
ENDMDL
MODEL 2
REMARK VINA RESULT:      -9.0      1.044      1.185
REMARK  Name = 
REMARK  6 active torsions:
REMARK  status: ('A' for Active; 'I' for Inactive)
REMARK    1  A    between atoms: C_1  and  C_2
REMARK    2  A    between atoms: C_4  and  C_5
REMARK    3  A    between atoms: C_5  and  O_6
REMARK    4  A    between atoms: O_6  and  C_7
REMARK    5  A    between atoms: C_11  and  C_12
REMARK    6  A    between atoms: N_14  and  C_15
REMARK                            x       y       z     vdW  Elec       q    Type
REMARK                         _______ _______ _______ _____ _____    ______ ____
ROOT
ATOM      1  C   UNL     1       4.921   3.882  19.362  0.00  0.00    +0.000 A 
ATOM      2  C   UNL     1       4.410   2.602  19.566  0.00  0.00    +0.000 A 
ATOM      3  C   UNL     1       3.081   2.439  19.983  0.00  0.00    +0.000 A 
ATOM      4  C   UNL     1       2.260   3.554  20.201  0.00  0.00    +0.000 A 
ATOM      5  C   UNL     1       2.772   4.836  19.993  0.00  0.00    +0.000 A 
ATOM      6  C   UNL     1       4.094   4.987  19.550  0.00  0.00    +0.000 A 
ENDROOT
BRANCH   5   7
ATOM      7  C   UNL     1       1.984   6.082  20.176  0.00  0.00    +0.000 C 
ATOM      8  O   UNL     1       1.027   6.033  20.951  0.00  0.00    +0.000 OA
ATOM      9  N   UNL     1       2.337   7.180  19.405  0.00  0.00    +0.000 N 
ATOM     10  H   UNL     1       3.096   7.065  18.749  0.00  0.00    +0.000 HD
BRANCH   9  11
ATOM     11  C   UNL     1       1.708   8.452  19.437  0.00  0.00    +0.000 A 
ATOM     12  C   UNL     1       1.402   9.199  18.288  0.00  0.00    +0.000 A 
ATOM     13  C   UNL     1       0.693  10.403  18.345  0.00  0.00    +0.000 A 
ATOM     14  C   UNL     1       0.207  10.888  19.559  0.00  0.00    +0.000 A 
ATOM     15  C   UNL     1       0.518  10.179  20.729  0.00  0.00    +0.000 A 
ATOM     16  C   UNL     1       0.204  10.311  22.100  0.00  0.00    +0.000 A 
ATOM     17  N   UNL     1       0.847   9.420  22.858  0.00  0.00    +0.000 NA
ATOM     18  N   UNL     1       1.563   8.718  21.962  0.00  0.00    +0.000 N 
ATOM     19  C   UNL     1       1.298   9.026  20.652  0.00  0.00    +0.000 A 
ATOM     20  H   UNL     1       2.253   8.066  22.315  0.00  0.00    +0.000 HD
ENDBRANCH   9  11
ENDBRANCH   5   7
BRANCH   1  21
ATOM     21  O   UNL     1       6.181   4.182  18.930  0.00  0.00    +0.000 OA
BRANCH  21  22
ATOM     22  C   UNL     1       6.357   5.448  18.283  0.00  0.00    +0.000 C 
BRANCH  22  26
ATOM     23  C   UNL     1       6.201   3.837  13.598  0.00  0.00    +0.000 C 
ATOM     24  C   UNL     1       6.478   4.523  14.873  0.00  0.00    +0.000 A 
ATOM     25  N   UNL     1       5.935   4.353  16.054  0.00  0.00    +0.000 NA
ATOM     26  C   UNL     1       6.618   5.271  16.823  0.00  0.00    +0.000 A 
ATOM     27  N   UNL     1       7.521   5.999  16.149  0.00  0.00    +0.000 NA
ATOM     28  O   UNL     1       7.437   5.495  14.849  0.00  0.00    +0.000 OA
ENDBRANCH  22  26
ENDBRANCH  21  22
ENDBRANCH   1  21
TORSDOF 5
ENDMDL
MODEL 3
REMARK VINA RESULT:      -9.0      2.180      3.092
REMARK  Name = 
REMARK  6 active torsions:
REMARK  status: ('A' for Active; 'I' for Inactive)
REMARK    1  A    between atoms: C_1  and  C_2
REMARK    2  A    between atoms: C_4  and  C_5
REMARK    3  A    between atoms: C_5  and  O_6
REMARK    4  A    between atoms: O_6  and  C_7
REMARK    5  A    between atoms: C_11  and  C_12
REMARK    6  A    between atoms: N_14  and  C_15
REMARK                            x       y       z     vdW  Elec       q    Type
REMARK                         _______ _______ _______ _____ _____    ______ ____
ROOT
ATOM      1  C   UNL     1       5.092   4.485  18.651  0.00  0.00    +0.000 A 
ATOM      2  C   UNL     1       4.625   3.831  17.513  0.00  0.00    +0.000 A 
ATOM      3  C   UNL     1       3.270   3.922  17.162  0.00  0.00    +0.000 A 
ATOM      4  C   UNL     1       2.377   4.661  17.950  0.00  0.00    +0.000 A 
ATOM      5  C   UNL     1       2.847   5.319  19.088  0.00  0.00    +0.000 A 
ATOM      6  C   UNL     1       4.209   5.244  19.415  0.00  0.00    +0.000 A 
ENDROOT
BRANCH   5   7
ATOM      7  C   UNL     1       1.991   6.143  19.980  0.00  0.00    +0.000 C 
ATOM      8  O   UNL     1       1.252   5.543  20.763  0.00  0.00    +0.000 OA
ATOM      9  N   UNL     1       2.033   7.520  19.810  0.00  0.00    +0.000 N 
ATOM     10  H   UNL     1       2.626   7.882  19.078  0.00  0.00    +0.000 HD
BRANCH   9  11
ATOM     11  C   UNL     1       1.293   8.469  20.561  0.00  0.00    +0.000 A 
ATOM     12  C   UNL     1       1.176   8.435  21.961  0.00  0.00    +0.000 A 
ATOM     13  C   UNL     1       0.523   9.441  22.682  0.00  0.00    +0.000 A 
ATOM     14  C   UNL     1       0.001  10.560  22.034  0.00  0.00    +0.000 A 
ATOM     15  C   UNL     1       0.078  10.612  20.634  0.00  0.00    +0.000 A 
ATOM     16  C   UNL     1      -0.286  11.546  19.639  0.00  0.00    +0.000 A 
ATOM     17  N   UNL     1      -0.100  11.075  18.404  0.00  0.00    +0.000 NA
ATOM     18  N   UNL     1       0.390   9.841  18.619  0.00  0.00    +0.000 N 
ATOM     19  C   UNL     1       0.661   9.556  19.933  0.00  0.00    +0.000 A 
ATOM     20  H   UNL     1       0.478   9.222  17.823  0.00  0.00    +0.000 HD
ENDBRANCH   9  11
ENDBRANCH   5   7
BRANCH   1  21
ATOM     21  O   UNL     1       6.384   4.506  19.089  0.00  0.00    +0.000 OA
BRANCH  21  22
ATOM     22  C   UNL     1       7.400   4.682  18.095  0.00  0.00    +0.000 C 
BRANCH  22  26
ATOM     23  C   UNL     1       8.651   9.460  18.512  0.00  0.00    +0.000 C 
ATOM     24  C   UNL     1       8.185   8.130  18.083  0.00  0.00    +0.000 A 
ATOM     25  N   UNL     1       8.193   6.988  18.728  0.00  0.00    +0.000 NA
ATOM     26  C   UNL     1       7.624   6.131  17.810  0.00  0.00    +0.000 A 
ATOM     27  N   UNL     1       7.306   6.702  16.638  0.00  0.00    +0.000 NA
ATOM     28  O   UNL     1       7.670   8.039  16.821  0.00  0.00    +0.000 OA
ENDBRANCH  22  26
ENDBRANCH  21  22
ENDBRANCH   1  21
TORSDOF 5
ENDMDL
MODEL 4
REMARK VINA RESULT:      -8.9      1.158      1.189
REMARK  Name = 
REMARK  6 active torsions:
REMARK  status: ('A' for Active; 'I' for Inactive)
REMARK    1  A    between atoms: C_1  and  C_2
REMARK    2  A    between atoms: C_4  and  C_5
REMARK    3  A    between atoms: C_5  and  O_6
REMARK    4  A    between atoms: O_6  and  C_7
REMARK    5  A    between atoms: C_11  and  C_12
REMARK    6  A    between atoms: N_14  and  C_15
REMARK                            x       y       z     vdW  Elec       q    Type
REMARK                         _______ _______ _______ _____ _____    ______ ____
ROOT
ATOM      1  C   UNL     1       4.956   5.396  18.227  0.00  0.00    +0.000 A 
ATOM      2  C   UNL     1       4.243   4.204  18.118  0.00  0.00    +0.000 A 
ATOM      3  C   UNL     1       2.841   4.231  18.076  0.00  0.00    +0.000 A 
ATOM      4  C   UNL     1       2.148   5.448  18.148  0.00  0.00    +0.000 A 
ATOM      5  C   UNL     1       2.865   6.641  18.253  0.00  0.00    +0.000 A 
ATOM      6  C   UNL     1       4.266   6.605  18.266  0.00  0.00    +0.000 A 
ENDROOT
BRANCH   5   7
ATOM      7  C   UNL     1       2.231   7.984  18.316  0.00  0.00    +0.000 C 
ATOM      8  O   UNL     1       2.320   8.695  17.313  0.00  0.00    +0.000 OA
ATOM      9  N   UNL     1       1.656   8.362  19.521  0.00  0.00    +0.000 N 
ATOM     10  H   UNL     1       1.718   7.714  20.292  0.00  0.00    +0.000 HD
BRANCH   9  11
ATOM     11  C   UNL     1       1.006   9.597  19.776  0.00  0.00    +0.000 A 
ATOM     12  C   UNL     1       0.716  10.545  18.780  0.00  0.00    +0.000 A 
ATOM     13  C   UNL     1      -0.014  11.709  19.045  0.00  0.00    +0.000 A 
ATOM     14  C   UNL     1      -0.537  11.950  20.315  0.00  0.00    +0.000 A 
ATOM     15  C   UNL     1      -0.243  11.036  21.338  0.00  0.00    +0.000 A 
ATOM     16  C   UNL     1      -0.592  10.902  22.700  0.00  0.00    +0.000 A 
ATOM     17  N   UNL     1       0.046   9.891  23.293  0.00  0.00    +0.000 NA
ATOM     18  N   UNL     1       0.795   9.380  22.301  0.00  0.00    +0.000 N 
ATOM     19  C   UNL     1       0.557   9.927  21.066  0.00  0.00    +0.000 A 
ATOM     20  H   UNL     1       1.487   8.681  22.542  0.00  0.00    +0.000 HD
ENDBRANCH   9  11
ENDBRANCH   5   7
BRANCH   1  21
ATOM     21  O   UNL     1       6.315   5.516  18.247  0.00  0.00    +0.000 OA
BRANCH  21  22
ATOM     22  C   UNL     1       7.065   4.492  17.583  0.00  0.00    +0.000 C 
BRANCH  22  26
ATOM     23  C   UNL     1       5.994   3.664  12.814  0.00  0.00    +0.000 C 
ATOM     24  C   UNL     1       6.453   4.186  14.114  0.00  0.00    +0.000 A 
ATOM     25  N   UNL     1       6.300   3.694  15.319  0.00  0.00    +0.000 NA
ATOM     26  C   UNL     1       6.952   4.624  16.099  0.00  0.00    +0.000 A 
ATOM     27  N   UNL     1       7.461   5.663  15.418  0.00  0.00    +0.000 NA
ATOM     28  O   UNL     1       7.138   5.368  14.091  0.00  0.00    +0.000 OA
ENDBRANCH  22  26
ENDBRANCH  21  22
ENDBRANCH   1  21
TORSDOF 5
ENDMDL
MODEL 5
REMARK VINA RESULT:      -8.7      2.119      2.932
REMARK  Name = 
REMARK  6 active torsions:
REMARK  status: ('A' for Active; 'I' for Inactive)
REMARK    1  A    between atoms: C_1  and  C_2
REMARK    2  A    between atoms: C_4  and  C_5
REMARK    3  A    between atoms: C_5  and  O_6
REMARK    4  A    between atoms: O_6  and  C_7
REMARK    5  A    between atoms: C_11  and  C_12
REMARK    6  A    between atoms: N_14  and  C_15
REMARK                            x       y       z     vdW  Elec       q    Type
REMARK                         _______ _______ _______ _____ _____    ______ ____
ROOT
ATOM      1  C   UNL     1       4.778   6.398  17.086  0.00  0.00    +0.000 A 
ATOM      2  C   UNL     1       4.409   5.181  17.653  0.00  0.00    +0.000 A 
ATOM      3  C   UNL     1       3.254   5.100  18.444  0.00  0.00    +0.000 A 
ATOM      4  C   UNL     1       2.466   6.237  18.674  0.00  0.00    +0.000 A 
ATOM      5  C   UNL     1       2.834   7.456  18.102  0.00  0.00    +0.000 A 
ATOM      6  C   UNL     1       3.976   7.519  17.290  0.00  0.00    +0.000 A 
ENDROOT
BRANCH   5   7
ATOM      7  C   UNL     1       2.061   8.714  18.265  0.00  0.00    +0.000 C 
ATOM      8  O   UNL     1       2.208   9.581  17.402  0.00  0.00    +0.000 OA
ATOM      9  N   UNL     1       1.294   8.846  19.414  0.00  0.00    +0.000 N 
ATOM     10  H   UNL     1       1.321   8.091  20.083  0.00  0.00    +0.000 HD
BRANCH   9  11
ATOM     11  C   UNL     1       0.490   9.967  19.748  0.00  0.00    +0.000 A 
ATOM     12  C   UNL     1       0.620  10.689  20.946  0.00  0.00    +0.000 A 
ATOM     13  C   UNL     1      -0.118  11.849  21.204  0.00  0.00    +0.000 A 
ATOM     14  C   UNL     1      -0.986  12.371  20.245  0.00  0.00    +0.000 A 
ATOM     15  C   UNL     1      -1.157  11.660  19.048  0.00  0.00    +0.000 A 
ATOM     16  C   UNL     1      -1.888  11.856  17.855  0.00  0.00    +0.000 A 
ATOM     17  N   UNL     1      -1.806  10.810  17.029  0.00  0.00    +0.000 NA
ATOM     18  N   UNL     1      -1.016   9.954  17.699  0.00  0.00    +0.000 N 
ATOM     19  C   UNL     1      -0.472  10.462  18.851  0.00  0.00    +0.000 A 
ATOM     20  H   UNL     1      -0.921   9.014  17.334  0.00  0.00    +0.000 HD
ENDBRANCH   9  11
ENDBRANCH   5   7
BRANCH   1  21
ATOM     21  O   UNL     1       5.855   6.611  16.275  0.00  0.00    +0.000 OA
BRANCH  21  22
ATOM     22  C   UNL     1       6.799   5.540  16.162  0.00  0.00    +0.000 C 
BRANCH  22  26
ATOM     23  C   UNL     1       5.840   2.936  12.054  0.00  0.00    +0.000 C 
ATOM     24  C   UNL     1       6.356   3.854  13.085  0.00  0.00    +0.000 A 
ATOM     25  N   UNL     1       5.970   4.027  14.327  0.00  0.00    +0.000 NA
ATOM     26  C   UNL     1       6.836   5.004  14.768  0.00  0.00    +0.000 A 
ATOM     27  N   UNL     1       7.699   5.443  13.840  0.00  0.00    +0.000 NA
ATOM     28  O   UNL     1       7.388   4.670  12.718  0.00  0.00    +0.000 OA
ENDBRANCH  22  26
ENDBRANCH  21  22
ENDBRANCH   1  21
TORSDOF 5
ENDMDL
MODEL 6
REMARK VINA RESULT:      -8.7      3.695      8.633
REMARK  Name = 
REMARK  6 active torsions:
REMARK  status: ('A' for Active; 'I' for Inactive)
REMARK    1  A    between atoms: C_1  and  C_2
REMARK    2  A    between atoms: C_4  and  C_5
REMARK    3  A    between atoms: C_5  and  O_6
REMARK    4  A    between atoms: O_6  and  C_7
REMARK    5  A    between atoms: C_11  and  C_12
REMARK    6  A    between atoms: N_14  and  C_15
REMARK                            x       y       z     vdW  Elec       q    Type
REMARK                         _______ _______ _______ _____ _____    ______ ____
ROOT
ATOM      1  C   UNL     1      -0.330  10.999  19.673  0.00  0.00    +0.000 A 
ATOM      2  C   UNL     1      -0.321  10.799  21.052  0.00  0.00    +0.000 A 
ATOM      3  C   UNL     1       0.458   9.772  21.603  0.00  0.00    +0.000 A 
ATOM      4  C   UNL     1       1.228   8.939  20.780  0.00  0.00    +0.000 A 
ATOM      5  C   UNL     1       1.221   9.142  19.398  0.00  0.00    +0.000 A 
ATOM      6  C   UNL     1       0.459  10.189  18.860  0.00  0.00    +0.000 A 
ENDROOT
BRANCH   5   7
ATOM      7  C   UNL     1       2.013   8.330  18.439  0.00  0.00    +0.000 C 
ATOM      8  O   UNL     1       2.217   8.817  17.325  0.00  0.00    +0.000 OA
ATOM      9  N   UNL     1       2.396   7.059  18.842  0.00  0.00    +0.000 N 
ATOM     10  H   UNL     1       2.099   6.750  19.756  0.00  0.00    +0.000 HD
BRANCH   9  11
ATOM     11  C   UNL     1       3.153   6.139  18.072  0.00  0.00    +0.000 A 
ATOM     12  C   UNL     1       4.399   6.443  17.499  0.00  0.00    +0.000 A 
ATOM     13  C   UNL     1       5.168   5.485  16.829  0.00  0.00    +0.000 A 
ATOM     14  C   UNL     1       4.744   4.159  16.748  0.00  0.00    +0.000 A 
ATOM     15  C   UNL     1       3.492   3.828  17.287  0.00  0.00    +0.000 A 
ATOM     16  C   UNL     1       2.740   2.641  17.435  0.00  0.00    +0.000 A 
ATOM     17  N   UNL     1       1.522   2.868  17.931  0.00  0.00    +0.000 NA
ATOM     18  N   UNL     1       1.506   4.201  18.104  0.00  0.00    +0.000 N 
ATOM     19  C   UNL     1       2.709   4.820  17.876  0.00  0.00    +0.000 A 
ATOM     20  H   UNL     1       0.623   4.637  18.341  0.00  0.00    +0.000 HD
ENDBRANCH   9  11
ENDBRANCH   5   7
BRANCH   1  21
ATOM     21  O   UNL     1      -1.016  11.974  19.010  0.00  0.00    +0.000 OA
BRANCH  21  22
ATOM     22  C   UNL     1      -2.445  11.926  19.089  0.00  0.00    +0.000 C 
BRANCH  22  26
ATOM     23  C   UNL     1      -3.035  10.134  14.505  0.00  0.00    +0.000 C 
ATOM     24  C   UNL     1      -3.186  10.723  15.847  0.00  0.00    +0.000 A 
ATOM     25  N   UNL     1      -2.293  10.910  16.788  0.00  0.00    +0.000 NA
ATOM     26  C   UNL     1      -3.039  11.502  17.785  0.00  0.00    +0.000 A 
ATOM     27  N   UNL     1      -4.340  11.649  17.493  0.00  0.00    +0.000 NA
ATOM     28  O   UNL     1      -4.440  11.139  16.196  0.00  0.00    +0.000 OA
ENDBRANCH  22  26
ENDBRANCH  21  22
ENDBRANCH   1  21
TORSDOF 5
ENDMDL
MODEL 7
REMARK VINA RESULT:      -8.7      2.051      2.632
REMARK  Name = 
REMARK  6 active torsions:
REMARK  status: ('A' for Active; 'I' for Inactive)
REMARK    1  A    between atoms: C_1  and  C_2
REMARK    2  A    between atoms: C_4  and  C_5
REMARK    3  A    between atoms: C_5  and  O_6
REMARK    4  A    between atoms: O_6  and  C_7
REMARK    5  A    between atoms: C_11  and  C_12
REMARK    6  A    between atoms: N_14  and  C_15
REMARK                            x       y       z     vdW  Elec       q    Type
REMARK                         _______ _______ _______ _____ _____    ______ ____
ROOT
ATOM      1  C   UNL     1       3.700   5.330  18.134  0.00  0.00    +0.000 A 
ATOM      2  C   UNL     1       3.433   4.763  19.378  0.00  0.00    +0.000 A 
ATOM      3  C   UNL     1       2.665   5.467  20.315  0.00  0.00    +0.000 A 
ATOM      4  C   UNL     1       2.164   6.741  20.015  0.00  0.00    +0.000 A 
ATOM      5  C   UNL     1       2.429   7.307  18.767  0.00  0.00    +0.000 A 
ATOM      6  C   UNL     1       3.176   6.583  17.827  0.00  0.00    +0.000 A 
ENDROOT
BRANCH   5   7
ATOM      7  C   UNL     1       1.932   8.641  18.341  0.00  0.00    +0.000 C 
ATOM      8  O   UNL     1       2.229   9.015  17.205  0.00  0.00    +0.000 OA
ATOM      9  N   UNL     1       1.238   9.392  19.278  0.00  0.00    +0.000 N 
ATOM     10  H   UNL     1       1.127   9.001  20.202  0.00  0.00    +0.000 HD
BRANCH   9  11
ATOM     11  C   UNL     1       0.687  10.682  19.061  0.00  0.00    +0.000 A 
ATOM     12  C   UNL     1       1.418  11.874  19.192  0.00  0.00    +0.000 A 
ATOM     13  C   UNL     1       0.876  13.123  18.876  0.00  0.00    +0.000 A 
ATOM     14  C   UNL     1      -0.415  13.231  18.359  0.00  0.00    +0.000 A 
ATOM     15  C   UNL     1      -1.182  12.062  18.240  0.00  0.00    +0.000 A 
ATOM     16  C   UNL     1      -2.470  11.747  17.752  0.00  0.00    +0.000 A 
ATOM     17  N   UNL     1      -2.795  10.470  17.961  0.00  0.00    +0.000 NA
ATOM     18  N   UNL     1      -1.708   9.974  18.576  0.00  0.00    +0.000 N 
ATOM     19  C   UNL     1      -0.645  10.839  18.642  0.00  0.00    +0.000 A 
ATOM     20  H   UNL     1      -1.770   9.043  18.970  0.00  0.00    +0.000 HD
ENDBRANCH   9  11
ENDBRANCH   5   7
BRANCH   1  21
ATOM     21  O   UNL     1       4.405   4.746  17.122  0.00  0.00    +0.000 OA
BRANCH  21  22
ATOM     22  C   UNL     1       5.834   4.809  17.210  0.00  0.00    +0.000 C 
BRANCH  22  26
ATOM     23  C   UNL     1       6.850   4.002  12.425  0.00  0.00    +0.000 C 
ATOM     24  C   UNL     1       6.802   4.455  13.827  0.00  0.00    +0.000 A 
ATOM     25  N   UNL     1       5.981   4.116  14.792  0.00  0.00    +0.000 NA
ATOM     26  C   UNL     1       6.451   4.864  15.850  0.00  0.00    +0.000 A 
ATOM     27  N   UNL     1       7.495   5.653  15.554  0.00  0.00    +0.000 NA
ATOM     28  O   UNL     1       7.737   5.375  14.206  0.00  0.00    +0.000 OA
ENDBRANCH  22  26
ENDBRANCH  21  22
ENDBRANCH   1  21
TORSDOF 5
ENDMDL
MODEL 8
REMARK VINA RESULT:      -8.6      1.751      2.368
REMARK  Name = 
REMARK  6 active torsions:
REMARK  status: ('A' for Active; 'I' for Inactive)
REMARK    1  A    between atoms: C_1  and  C_2
REMARK    2  A    between atoms: C_4  and  C_5
REMARK    3  A    between atoms: C_5  and  O_6
REMARK    4  A    between atoms: O_6  and  C_7
REMARK    5  A    between atoms: C_11  and  C_12
REMARK    6  A    between atoms: N_14  and  C_15
REMARK                            x       y       z     vdW  Elec       q    Type
REMARK                         _______ _______ _______ _____ _____    ______ ____
ROOT
ATOM      1  C   UNL     1       4.913   3.787  19.209  0.00  0.00    +0.000 A 
ATOM      2  C   UNL     1       4.481   2.467  19.091  0.00  0.00    +0.000 A 
ATOM      3  C   UNL     1       3.147   2.142  19.371  0.00  0.00    +0.000 A 
ATOM      4  C   UNL     1       2.240   3.132  19.775  0.00  0.00    +0.000 A 
ATOM      5  C   UNL     1       2.673   4.454  19.889  0.00  0.00    +0.000 A 
ATOM      6  C   UNL     1       4.003   4.774  19.580  0.00  0.00    +0.000 A 
ENDROOT
BRANCH   5   7
ATOM      7  C   UNL     1       1.791   5.582  20.289  0.00  0.00    +0.000 C 
ATOM      8  O   UNL     1       0.648   5.300  20.652  0.00  0.00    +0.000 OA
ATOM      9  N   UNL     1       2.297   6.866  20.151  0.00  0.00    +0.000 N 
ATOM     10  H   UNL     1       3.226   6.965  19.768  0.00  0.00    +0.000 HD
BRANCH   9  11
ATOM     11  C   UNL     1       1.612   8.065  20.479  0.00  0.00    +0.000 A 
ATOM     12  C   UNL     1       1.097   8.344  21.755  0.00  0.00    +0.000 A 
ATOM     13  C   UNL     1       0.514   9.575  22.075  0.00  0.00    +0.000 A 
ATOM     14  C   UNL     1       0.469  10.608  21.138  0.00  0.00    +0.000 A 
ATOM     15  C   UNL     1       0.951  10.353  19.845  0.00  0.00    +0.000 A 
ATOM     16  C   UNL     1       1.109  11.108  18.662  0.00  0.00    +0.000 A 
ATOM     17  N   UNL     1       1.525  10.364  17.635  0.00  0.00    +0.000 NA
ATOM     18  N   UNL     1       1.637   9.137  18.172  0.00  0.00    +0.000 N 
ATOM     19  C   UNL     1       1.450   9.090  19.530  0.00  0.00    +0.000 A 
ATOM     20  H   UNL     1       1.804   8.359  17.546  0.00  0.00    +0.000 HD
ENDBRANCH   9  11
ENDBRANCH   5   7
BRANCH   1  21
ATOM     21  O   UNL     1       6.170   4.245  18.939  0.00  0.00    +0.000 OA
BRANCH  21  22
ATOM     22  C   UNL     1       6.266   5.503  18.261  0.00  0.00    +0.000 C 
BRANCH  22  26
ATOM     23  C   UNL     1       6.226   3.854  13.586  0.00  0.00    +0.000 C 
ATOM     24  C   UNL     1       6.477   4.544  14.863  0.00  0.00    +0.000 A 
ATOM     25  N   UNL     1       5.892   4.398  16.028  0.00  0.00    +0.000 NA
ATOM     26  C   UNL     1       6.571   5.307  16.811  0.00  0.00    +0.000 A 
ATOM     27  N   UNL     1       7.512   6.008  16.161  0.00  0.00    +0.000 NA
ATOM     28  O   UNL     1       7.458   5.494  14.863  0.00  0.00    +0.000 OA
ENDBRANCH  22  26
ENDBRANCH  21  22
ENDBRANCH   1  21
TORSDOF 5
ENDMDL
MODEL 9
REMARK VINA RESULT:      -8.5      1.226      1.450
REMARK  Name = 
REMARK  6 active torsions:
REMARK  status: ('A' for Active; 'I' for Inactive)
REMARK    1  A    between atoms: C_1  and  C_2
REMARK    2  A    between atoms: C_4  and  C_5
REMARK    3  A    between atoms: C_5  and  O_6
REMARK    4  A    between atoms: O_6  and  C_7
REMARK    5  A    between atoms: C_11  and  C_12
REMARK    6  A    between atoms: N_14  and  C_15
REMARK                            x       y       z     vdW  Elec       q    Type
REMARK                         _______ _______ _______ _____ _____    ______ ____
ROOT
ATOM      1  C   UNL     1       5.162   5.065  18.730  0.00  0.00    +0.000 A 
ATOM      2  C   UNL     1       5.049   3.725  19.093  0.00  0.00    +0.000 A 
ATOM      3  C   UNL     1       3.931   3.290  19.819  0.00  0.00    +0.000 A 
ATOM      4  C   UNL     1       2.924   4.193  20.187  0.00  0.00    +0.000 A 
ATOM      5  C   UNL     1       3.036   5.535  19.820  0.00  0.00    +0.000 A 
ATOM      6  C   UNL     1       4.145   5.954  19.071  0.00  0.00    +0.000 A 
ENDROOT
BRANCH   5   7
ATOM      7  C   UNL     1       2.019   6.569  20.142  0.00  0.00    +0.000 C 
ATOM      8  O   UNL     1       1.087   6.233  20.876  0.00  0.00    +0.000 OA
ATOM      9  N   UNL     1       2.154   7.808  19.532  0.00  0.00    +0.000 N 
ATOM     10  H   UNL     1       2.922   7.932  18.889  0.00  0.00    +0.000 HD
BRANCH   9  11
ATOM     11  C   UNL     1       1.288   8.918  19.713  0.00  0.00    +0.000 A 
ATOM     12  C   UNL     1       0.694   9.623  18.653  0.00  0.00    +0.000 A 
ATOM     13  C   UNL     1      -0.233  10.650  18.864  0.00  0.00    +0.000 A 
ATOM     14  C   UNL     1      -0.650  10.982  20.153  0.00  0.00    +0.000 A 
ATOM     15  C   UNL     1      -0.056  10.314  21.235  0.00  0.00    +0.000 A 
ATOM     16  C   UNL     1      -0.214  10.331  22.638  0.00  0.00    +0.000 A 
ATOM     17  N   UNL     1       0.687   9.569  23.262  0.00  0.00    +0.000 NA
ATOM     18  N   UNL     1       1.412   9.063  22.249  0.00  0.00    +0.000 N 
ATOM     19  C   UNL     1       0.926   9.353  20.999  0.00  0.00    +0.000 A 
ATOM     20  H   UNL     1       2.259   8.559  22.479  0.00  0.00    +0.000 HD
ENDBRANCH   9  11
ENDBRANCH   5   7
BRANCH   1  21
ATOM     21  O   UNL     1       6.176   5.615  18.002  0.00  0.00    +0.000 OA
BRANCH  21  22
ATOM     22  C   UNL     1       7.141   4.710  17.452  0.00  0.00    +0.000 C 
BRANCH  22  26
ATOM     23  C   UNL     1       7.497   5.145  12.527  0.00  0.00    +0.000 C 
ATOM     24  C   UNL     1       7.159   4.791  13.917  0.00  0.00    +0.000 A 
ATOM     25  N   UNL     1       7.665   5.231  15.044  0.00  0.00    +0.000 NA
ATOM     26  C   UNL     1       6.934   4.535  15.983  0.00  0.00    +0.000 A 
ATOM     27  N   UNL     1       6.037   3.680  15.468  0.00  0.00    +0.000 NA
ATOM     28  O   UNL     1       6.178   3.856  14.089  0.00  0.00    +0.000 OA
ENDBRANCH  22  26
ENDBRANCH  21  22
ENDBRANCH   1  21
TORSDOF 5
ENDMDL
