MODEL 1
REMARK VINA RESULT:      -8.5      0.000      0.000
REMARK  Name = 
REMARK  7 active torsions:
REMARK  status: ('A' for Active; 'I' for Inactive)
REMARK    1  A    between atoms: C_1  and  C_2
REMARK    2  A    between atoms: C_2  and  C_3
REMARK    3  A    between atoms: C_3  and  C_4
REMARK    4  A    between atoms: C_4  and  C_5
REMARK    5  A    between atoms: N_14  and  C_15
REMARK    6  A    between atoms: C_15  and  C_16
REMARK    7  A    between atoms: N_18  and  C_19
REMARK                            x       y       z     vdW  Elec       q    Type
REMARK                         _______ _______ _______ _____ _____    ______ ____
ROOT
ATOM      1  C   UNL     1       1.621   2.883  22.618  0.00  0.00    +0.000 C 
ATOM      2  C   UNL     1       1.816   3.301  21.189  0.00  0.00    +0.000 C 
ATOM      3  N   UNL     1       0.626   3.011  20.414  0.00  0.00    +0.000 N 
ATOM      4  C   UNL     1       0.941   2.335  19.261  0.00  0.00    +0.000 C 
ATOM      5  O   UNL     1       0.125   2.174  18.348  0.00  0.00    +0.000 OA
ATOM      6  N   UNL     1       2.249   1.976  19.313  0.00  0.00    +0.000 N 
ATOM      7  C   UNL     1       2.832   2.410  20.448  0.00  0.00    +0.000 C 
ATOM      8  O   UNL     1       3.997   2.235  20.758  0.00  0.00    +0.000 OA
ATOM      9  H   UNL     1      -0.280   3.447  20.527  0.00  0.00    +0.000 HD
ENDROOT
BRANCH   2  10
ATOM     10  C   UNL     1       2.264   4.782  21.062  0.00  0.00    +0.000 C 
BRANCH  10  11
ATOM     11  C   UNL     1       3.046   5.111  19.779  0.00  0.00    +0.000 C 
BRANCH  11  12
ATOM     12  C   UNL     1       2.740   6.478  19.213  0.00  0.00    +0.000 A 
ATOM     13  C   UNL     1       3.158   6.824  17.921  0.00  0.00    +0.000 A 
ATOM     14  C   UNL     1       2.818   8.062  17.376  0.00  0.00    +0.000 A 
ATOM     15  C   UNL     1       2.065   8.972  18.117  0.00  0.00    +0.000 A 
ATOM     16  C   UNL     1       1.660   8.643  19.413  0.00  0.00    +0.000 A 
ATOM     17  C   UNL     1       2.000   7.403  19.958  0.00  0.00    +0.000 A 
ENDBRANCH  11  12
ENDBRANCH  10  11
ENDBRANCH   2  10
BRANCH   6  18
ATOM     18  C   UNL     1       2.982   1.630  18.106  0.00  0.00    +0.000 C 
BRANCH  18  19
ATOM     19  C   UNL     1       3.493   2.742  17.207  0.00  0.00    +0.000 C 
ATOM     20  O   UNL     1       2.642   3.454  16.667  0.00  0.00    +0.000 OA
ATOM     21  N   UNL     1       4.854   2.992  17.182  0.00  0.00    +0.000 N 
ATOM     22  H   UNL     1       5.509   2.282  17.501  0.00  0.00    +0.000 HD
BRANCH  21  23
ATOM     23  C   UNL     1       5.444   4.189  16.658  0.00  0.00    +0.000 A 
ATOM     24  C   UNL     1       5.160   4.604  15.344  0.00  0.00    +0.000 A 
ATOM     25  C   UNL     1       5.689   5.770  14.815  0.00  0.00    +0.000 A 
ATOM     26  C   UNL     1       6.337   6.647  15.661  0.00  0.00    +0.000 A 
ATOM     27  C   UNL     1       6.579   6.276  16.989  0.00  0.00    +0.000 A 
ATOM     28  C   UNL     1       7.212   7.177  17.836  0.00  0.00    +0.000 A 
ATOM     29  C   UNL     1       8.046   6.675  18.808  0.00  0.00    +0.000 A 
ATOM     30  C   UNL     1       7.866   5.355  19.147  0.00  0.00    +0.000 A 
ATOM     31  N   UNL     1       6.907   4.548  18.603  0.00  0.00    +0.000 NA
ATOM     32  C   UNL     1       6.298   4.980  17.464  0.00  0.00    +0.000 A 
ENDBRANCH  21  23
ENDBRANCH  18  19
ENDBRANCH   6  18
TORSDOF 6
ENDMDL
MODEL 2
REMARK VINA RESULT:      -8.0      3.193      7.416
REMARK  Name = 
REMARK  7 active torsions:
REMARK  status: ('A' for Active; 'I' for Inactive)
REMARK    1  A    between atoms: C_1  and  C_2
REMARK    2  A    between atoms: C_2  and  C_3
REMARK    3  A    between atoms: C_3  and  C_4
REMARK    4  A    between atoms: C_4  and  C_5
REMARK    5  A    between atoms: N_14  and  C_15
REMARK    6  A    between atoms: C_15  and  C_16
REMARK    7  A    between atoms: N_18  and  C_19
REMARK                            x       y       z     vdW  Elec       q    Type
REMARK                         _______ _______ _______ _____ _____    ______ ____
ROOT
ATOM      1  C   UNL     1       3.628   1.743  18.343  0.00  0.00    +0.000 C 
ATOM      2  C   UNL     1       4.121   3.095  17.916  0.00  0.00    +0.000 C 
ATOM      3  N   UNL     1       5.190   3.539  18.788  0.00  0.00    +0.000 N 
ATOM      4  C   UNL     1       4.964   4.817  19.235  0.00  0.00    +0.000 C 
ATOM      5  O   UNL     1       5.835   5.478  19.809  0.00  0.00    +0.000 OA
ATOM      6  N   UNL     1       3.708   5.185  18.878  0.00  0.00    +0.000 N 
ATOM      7  C   UNL     1       3.090   4.209  18.182  0.00  0.00    +0.000 C 
ATOM      8  O   UNL     1       1.959   4.265  17.734  0.00  0.00    +0.000 OA
ATOM      9  H   UNL     1       6.106   3.115  18.872  0.00  0.00    +0.000 HD
ENDROOT
BRANCH   2  10
ATOM     10  C   UNL     1       4.521   3.132  16.416  0.00  0.00    +0.000 C 
BRANCH  10  11
ATOM     11  C   UNL     1       5.119   4.469  15.942  0.00  0.00    +0.000 C 
BRANCH  11  12
ATOM     12  C   UNL     1       5.797   4.387  14.595  0.00  0.00    +0.000 A 
ATOM     13  C   UNL     1       7.015   5.043  14.370  0.00  0.00    +0.000 A 
ATOM     14  C   UNL     1       7.673   4.914  13.147  0.00  0.00    +0.000 A 
ATOM     15  C   UNL     1       7.119   4.135  12.132  0.00  0.00    +0.000 A 
ATOM     16  C   UNL     1       5.895   3.492  12.340  0.00  0.00    +0.000 A 
ATOM     17  C   UNL     1       5.238   3.622  13.565  0.00  0.00    +0.000 A 
ENDBRANCH  11  12
ENDBRANCH  10  11
ENDBRANCH   2  10
BRANCH   6  18
ATOM     18  C   UNL     1       3.318   6.584  18.830  0.00  0.00    +0.000 C 
BRANCH  18  19
ATOM     19  C   UNL     1       2.156   7.057  19.686  0.00  0.00    +0.000 C 
ATOM     20  O   UNL     1       1.702   6.250  20.501  0.00  0.00    +0.000 OA
ATOM     21  N   UNL     1       1.794   8.392  19.620  0.00  0.00    +0.000 N 
ATOM     22  H   UNL     1       2.077   8.959  18.825  0.00  0.00    +0.000 HD
BRANCH  21  23
ATOM     23  C   UNL     1       0.961   9.049  20.584  0.00  0.00    +0.000 A 
ATOM     24  C   UNL     1       1.082   8.744  21.952  0.00  0.00    +0.000 A 
ATOM     25  C   UNL     1       0.313   9.381  22.914  0.00  0.00    +0.000 A 
ATOM     26  C   UNL     1      -0.432  10.481  22.544  0.00  0.00    +0.000 A 
ATOM     27  C   UNL     1      -0.519  10.836  21.193  0.00  0.00    +0.000 A 
ATOM     28  C   UNL     1      -1.255  11.959  20.836  0.00  0.00    +0.000 A 
ATOM     29  C   UNL     1      -1.920  11.942  19.632  0.00  0.00    +0.000 A 
ATOM     30  C   UNL     1      -1.478  11.032  18.702  0.00  0.00    +0.000 A 
ATOM     31  N   UNL     1      -0.420  10.188  18.897  0.00  0.00    +0.000 NA
ATOM     32  C   UNL     1       0.027  10.030  20.174  0.00  0.00    +0.000 A 
ENDBRANCH  21  23
ENDBRANCH  18  19
ENDBRANCH   6  18
TORSDOF 6
ENDMDL
MODEL 3
REMARK VINA RESULT:      -7.9      1.008      2.250
REMARK  Name = 
REMARK  7 active torsions:
REMARK  status: ('A' for Active; 'I' for Inactive)
REMARK    1  A    between atoms: C_1  and  C_2
REMARK    2  A    between atoms: C_2  and  C_3
REMARK    3  A    between atoms: C_3  and  C_4
REMARK    4  A    between atoms: C_4  and  C_5
REMARK    5  A    between atoms: N_14  and  C_15
REMARK    6  A    between atoms: C_15  and  C_16
REMARK    7  A    between atoms: N_18  and  C_19
REMARK                            x       y       z     vdW  Elec       q    Type
REMARK                         _______ _______ _______ _____ _____    ______ ____
ROOT
ATOM      1  C   UNL     1       1.355   2.812  22.571  0.00  0.00    +0.000 C 
ATOM      2  C   UNL     1       1.652   3.280  21.176  0.00  0.00    +0.000 C 
ATOM      3  N   UNL     1       0.505   3.062  20.318  0.00  0.00    +0.000 N 
ATOM      4  C   UNL     1       0.870   2.423  19.159  0.00  0.00    +0.000 C 
ATOM      5  O   UNL     1       0.109   2.326  18.192  0.00  0.00    +0.000 OA
ATOM      6  N   UNL     1       2.160   2.019  19.276  0.00  0.00    +0.000 N 
ATOM      7  C   UNL     1       2.685   2.387  20.462  0.00  0.00    +0.000 C 
ATOM      8  O   UNL     1       3.821   2.161  20.835  0.00  0.00    +0.000 OA
ATOM      9  H   UNL     1      -0.394   3.522  20.394  0.00  0.00    +0.000 HD
ENDROOT
BRANCH   2  10
ATOM     10  C   UNL     1       2.152   4.750  21.140  0.00  0.00    +0.000 C 
BRANCH  10  11
ATOM     11  C   UNL     1       2.702   5.210  19.779  0.00  0.00    +0.000 C 
BRANCH  11  12
ATOM     12  C   UNL     1       2.290   6.612  19.398  0.00  0.00    +0.000 A 
ATOM     13  C   UNL     1       1.678   7.454  20.336  0.00  0.00    +0.000 A 
ATOM     14  C   UNL     1       1.357   8.769  20.003  0.00  0.00    +0.000 A 
ATOM     15  C   UNL     1       1.635   9.258  18.726  0.00  0.00    +0.000 A 
ATOM     16  C   UNL     1       2.227   8.419  17.777  0.00  0.00    +0.000 A 
ATOM     17  C   UNL     1       2.549   7.102  18.113  0.00  0.00    +0.000 A 
ENDBRANCH  11  12
ENDBRANCH  10  11
ENDBRANCH   2  10
BRANCH   6  18
ATOM     18  C   UNL     1       2.957   1.697  18.103  0.00  0.00    +0.000 C 
BRANCH  18  19
ATOM     19  C   UNL     1       3.615   2.824  17.325  0.00  0.00    +0.000 C 
ATOM     20  O   UNL     1       2.869   3.546  16.657  0.00  0.00    +0.000 OA
ATOM     21  N   UNL     1       4.959   3.073  17.542  0.00  0.00    +0.000 N 
ATOM     22  H   UNL     1       5.550   2.357  17.957  0.00  0.00    +0.000 HD
BRANCH  21  23
ATOM     23  C   UNL     1       5.629   4.277  17.148  0.00  0.00    +0.000 A 
ATOM     24  C   UNL     1       5.779   5.337  18.060  0.00  0.00    +0.000 A 
ATOM     25  C   UNL     1       6.446   6.504  17.723  0.00  0.00    +0.000 A 
ATOM     26  C   UNL     1       7.157   6.542  16.541  0.00  0.00    +0.000 A 
ATOM     27  C   UNL     1       7.067   5.472  15.644  0.00  0.00    +0.000 A 
ATOM     28  C   UNL     1       7.805   5.512  14.468  0.00  0.00    +0.000 A 
ATOM     29  C   UNL     1       7.266   4.932  13.344  0.00  0.00    +0.000 A 
ATOM     30  C   UNL     1       6.271   4.006  13.551  0.00  0.00    +0.000 A 
ATOM     31  N   UNL     1       5.826   3.622  14.785  0.00  0.00    +0.000 NA
ATOM     32  C   UNL     1       6.169   4.404  15.846  0.00  0.00    +0.000 A 
ENDBRANCH  21  23
ENDBRANCH  18  19
ENDBRANCH   6  18
TORSDOF 6
ENDMDL
MODEL 4
REMARK VINA RESULT:      -7.8      4.499      7.509
REMARK  Name = 
REMARK  7 active torsions:
REMARK  status: ('A' for Active; 'I' for Inactive)
REMARK    1  A    between atoms: C_1  and  C_2
REMARK    2  A    between atoms: C_2  and  C_3
REMARK    3  A    between atoms: C_3  and  C_4
REMARK    4  A    between atoms: C_4  and  C_5
REMARK    5  A    between atoms: N_14  and  C_15
REMARK    6  A    between atoms: C_15  and  C_16
REMARK    7  A    between atoms: N_18  and  C_19
REMARK                            x       y       z     vdW  Elec       q    Type
REMARK                         _______ _______ _______ _____ _____    ______ ____
ROOT
ATOM      1  C   UNL     1       3.430   5.733  17.901  0.00  0.00    +0.000 C 
ATOM      2  C   UNL     1       4.884   5.400  17.726  0.00  0.00    +0.000 C 
ATOM      3  N   UNL     1       5.487   5.093  19.008  0.00  0.00    +0.000 N 
ATOM      4  C   UNL     1       6.651   5.798  19.187  0.00  0.00    +0.000 C 
ATOM      5  O   UNL     1       7.443   5.542  20.098  0.00  0.00    +0.000 OA
ATOM      6  N   UNL     1       6.762   6.711  18.189  0.00  0.00    +0.000 N 
ATOM      7  C   UNL     1       5.727   6.628  17.329  0.00  0.00    +0.000 C 
ATOM      8  O   UNL     1       5.568   7.321  16.341  0.00  0.00    +0.000 OA
ATOM      9  H   UNL     1       5.267   4.299  19.596  0.00  0.00    +0.000 HD
ENDROOT
BRANCH   2  10
ATOM     10  C   UNL     1       5.111   4.277  16.677  0.00  0.00    +0.000 C 
BRANCH  10  11
ATOM     11  C   UNL     1       6.556   4.160  16.163  0.00  0.00    +0.000 C 
BRANCH  11  12
ATOM     12  C   UNL     1       6.678   4.268  14.661  0.00  0.00    +0.000 A 
ATOM     13  C   UNL     1       7.624   5.124  14.083  0.00  0.00    +0.000 A 
ATOM     14  C   UNL     1       7.780   5.175  12.698  0.00  0.00    +0.000 A 
ATOM     15  C   UNL     1       6.988   4.376  11.874  0.00  0.00    +0.000 A 
ATOM     16  C   UNL     1       6.028   3.533  12.440  0.00  0.00    +0.000 A 
ATOM     17  C   UNL     1       5.874   3.483  13.827  0.00  0.00    +0.000 A 
ENDBRANCH  11  12
ENDBRANCH  10  11
ENDBRANCH   2  10
BRANCH   6  18
ATOM     18  C   UNL     1       8.044   7.310  17.856  0.00  0.00    +0.000 C 
BRANCH  18  19
ATOM     19  C   UNL     1       8.278   8.777  18.174  0.00  0.00    +0.000 C 
ATOM     20  O   UNL     1       7.441   9.578  17.748  0.00  0.00    +0.000 OA
ATOM     21  N   UNL     1       9.303   9.103  19.046  0.00  0.00    +0.000 N 
ATOM     22  H   UNL     1      10.052   8.439  19.224  0.00  0.00    +0.000 HD
BRANCH  21  23
ATOM     23  C   UNL     1       9.437  10.377  19.690  0.00  0.00    +0.000 A 
ATOM     24  C   UNL     1       8.897  10.584  20.972  0.00  0.00    +0.000 A 
ATOM     25  C   UNL     1       9.034  11.793  21.637  0.00  0.00    +0.000 A 
ATOM     26  C   UNL     1       9.894  12.739  21.118  0.00  0.00    +0.000 A 
ATOM     27  C   UNL     1      10.487  12.526  19.869  0.00  0.00    +0.000 A 
ATOM     28  C   UNL     1      11.368  13.477  19.369  0.00  0.00    +0.000 A 
ATOM     29  C   UNL     1      11.403  13.676  18.009  0.00  0.00    +0.000 A 
ATOM     30  C   UNL     1      10.904  12.660  17.229  0.00  0.00    +0.000 A 
ATOM     31  N   UNL     1      10.417  11.482  17.723  0.00  0.00    +0.000 NA
ATOM     32  C   UNL     1      10.136  11.431  19.055  0.00  0.00    +0.000 A 
ENDBRANCH  21  23
ENDBRANCH  18  19
ENDBRANCH   6  18
TORSDOF 6
ENDMDL
MODEL 5
REMARK VINA RESULT:      -7.4      1.151      1.708
REMARK  Name = 
REMARK  7 active torsions:
REMARK  status: ('A' for Active; 'I' for Inactive)
REMARK    1  A    between atoms: C_1  and  C_2
REMARK    2  A    between atoms: C_2  and  C_3
REMARK    3  A    between atoms: C_3  and  C_4
REMARK    4  A    between atoms: C_4  and  C_5
REMARK    5  A    between atoms: N_14  and  C_15
REMARK    6  A    between atoms: C_15  and  C_16
REMARK    7  A    between atoms: N_18  and  C_19
REMARK                            x       y       z     vdW  Elec       q    Type
REMARK                         _______ _______ _______ _____ _____    ______ ____
ROOT
ATOM      1  C   UNL     1       1.858   3.877  22.068  0.00  0.00    +0.000 C 
ATOM      2  C   UNL     1       1.788   3.978  20.572  0.00  0.00    +0.000 C 
ATOM      3  N   UNL     1       0.624   3.272  20.075  0.00  0.00    +0.000 N 
ATOM      4  C   UNL     1       0.961   2.425  19.049  0.00  0.00    +0.000 C 
ATOM      5  O   UNL     1       0.112   1.887  18.332  0.00  0.00    +0.000 OA
ATOM      6  N   UNL     1       2.314   2.369  18.961  0.00  0.00    +0.000 N 
ATOM      7  C   UNL     1       2.899   3.170  19.874  0.00  0.00    +0.000 C 
ATOM      8  O   UNL     1       4.099   3.319  20.021  0.00  0.00    +0.000 OA
ATOM      9  H   UNL     1      -0.343   3.523  20.242  0.00  0.00    +0.000 HD
ENDROOT
BRANCH   2  10
ATOM     10  C   UNL     1       1.851   5.447  20.074  0.00  0.00    +0.000 C 
BRANCH  10  11
ATOM     11  C   UNL     1       1.820   6.507  21.189  0.00  0.00    +0.000 C 
BRANCH  11  12
ATOM     12  C   UNL     1       1.345   7.864  20.726  0.00  0.00    +0.000 A 
ATOM     13  C   UNL     1       0.618   8.696  21.587  0.00  0.00    +0.000 A 
ATOM     14  C   UNL     1       0.236   9.975  21.180  0.00  0.00    +0.000 A 
ATOM     15  C   UNL     1       0.569  10.434  19.906  0.00  0.00    +0.000 A 
ATOM     16  C   UNL     1       1.277   9.603  19.033  0.00  0.00    +0.000 A 
ATOM     17  C   UNL     1       1.659   8.324  19.442  0.00  0.00    +0.000 A 
ENDBRANCH  11  12
ENDBRANCH  10  11
ENDBRANCH   2  10
BRANCH   6  18
ATOM     18  C   UNL     1       2.971   1.909  17.748  0.00  0.00    +0.000 C 
BRANCH  18  19
ATOM     19  C   UNL     1       3.690   2.917  16.869  0.00  0.00    +0.000 C 
ATOM     20  O   UNL     1       3.044   3.910  16.522  0.00  0.00    +0.000 OA
ATOM     21  N   UNL     1       5.048   2.751  16.655  0.00  0.00    +0.000 N 
ATOM     22  H   UNL     1       5.482   1.845  16.814  0.00  0.00    +0.000 HD
BRANCH  21  23
ATOM     23  C   UNL     1       5.913   3.770  16.140  0.00  0.00    +0.000 A 
ATOM     24  C   UNL     1       6.160   3.860  14.758  0.00  0.00    +0.000 A 
ATOM     25  C   UNL     1       6.967   4.851  14.222  0.00  0.00    +0.000 A 
ATOM     26  C   UNL     1       7.366   5.892  15.035  0.00  0.00    +0.000 A 
ATOM     27  C   UNL     1       7.080   5.849  16.405  0.00  0.00    +0.000 A 
ATOM     28  C   UNL     1       7.468   6.914  17.208  0.00  0.00    +0.000 A 
ATOM     29  C   UNL     1       7.843   6.645  18.504  0.00  0.00    +0.000 A 
ATOM     30  C   UNL     1       7.410   5.451  19.030  0.00  0.00    +0.000 A 
ATOM     31  N   UNL     1       6.623   4.557  18.359  0.00  0.00    +0.000 NA
ATOM     32  C   UNL     1       6.508   4.714  17.011  0.00  0.00    +0.000 A 
ENDBRANCH  21  23
ENDBRANCH  18  19
ENDBRANCH   6  18
TORSDOF 6
ENDMDL
MODEL 6
REMARK VINA RESULT:      -7.3      4.712      6.967
REMARK  Name = 
REMARK  7 active torsions:
REMARK  status: ('A' for Active; 'I' for Inactive)
REMARK    1  A    between atoms: C_1  and  C_2
REMARK    2  A    between atoms: C_2  and  C_3
REMARK    3  A    between atoms: C_3  and  C_4
REMARK    4  A    between atoms: C_4  and  C_5
REMARK    5  A    between atoms: N_14  and  C_15
REMARK    6  A    between atoms: C_15  and  C_16
REMARK    7  A    between atoms: N_18  and  C_19
REMARK                            x       y       z     vdW  Elec       q    Type
REMARK                         _______ _______ _______ _____ _____    ______ ____
ROOT
ATOM      1  C   UNL     1       0.917  13.285  21.191  0.00  0.00    +0.000 C 
ATOM      2  C   UNL     1       0.165  12.263  20.390  0.00  0.00    +0.000 C 
ATOM      3  N   UNL     1      -0.291  11.188  21.248  0.00  0.00    +0.000 N 
ATOM      4  C   UNL     1       0.038   9.963  20.722  0.00  0.00    +0.000 C 
ATOM      5  O   UNL     1      -0.431   8.909  21.162  0.00  0.00    +0.000 OA
ATOM      6  N   UNL     1       0.865  10.155  19.663  0.00  0.00    +0.000 N 
ATOM      7  C   UNL     1       1.082  11.466  19.441  0.00  0.00    +0.000 C 
ATOM      8  O   UNL     1       1.779  11.930  18.557  0.00  0.00    +0.000 OA
ATOM      9  H   UNL     1      -0.977  11.265  21.988  0.00  0.00    +0.000 HD
ENDROOT
BRANCH   2  10
ATOM     10  C   UNL     1      -0.988  12.892  19.560  0.00  0.00    +0.000 C 
BRANCH  10  11
ATOM     11  C   UNL     1      -2.344  12.178  19.697  0.00  0.00    +0.000 C 
BRANCH  11  12
ATOM     12  C   UNL     1      -2.875  11.628  18.394  0.00  0.00    +0.000 A 
ATOM     13  C   UNL     1      -4.238  11.730  18.082  0.00  0.00    +0.000 A 
ATOM     14  C   UNL     1      -4.717  11.280  16.852  0.00  0.00    +0.000 A 
ATOM     15  C   UNL     1      -3.843  10.718  15.922  0.00  0.00    +0.000 A 
ATOM     16  C   UNL     1      -2.485  10.595  16.232  0.00  0.00    +0.000 A 
ATOM     17  C   UNL     1      -2.007  11.046  17.464  0.00  0.00    +0.000 A 
ENDBRANCH  11  12
ENDBRANCH  10  11
ENDBRANCH   2  10
BRANCH   6  18
ATOM     18  C   UNL     1       1.052   9.121  18.658  0.00  0.00    +0.000 C 
BRANCH  18  19
ATOM     19  C   UNL     1       2.199   8.138  18.814  0.00  0.00    +0.000 C 
ATOM     20  O   UNL     1       2.341   7.623  19.926  0.00  0.00    +0.000 OA
ATOM     21  N   UNL     1       2.897   7.759  17.679  0.00  0.00    +0.000 N 
ATOM     22  H   UNL     1       2.855   8.332  16.840  0.00  0.00    +0.000 HD
BRANCH  21  23
ATOM     23  C   UNL     1       3.763   6.620  17.610  0.00  0.00    +0.000 A 
ATOM     24  C   UNL     1       5.133   6.785  17.336  0.00  0.00    +0.000 A 
ATOM     25  C   UNL     1       6.005   5.709  17.291  0.00  0.00    +0.000 A 
ATOM     26  C   UNL     1       5.561   4.478  17.728  0.00  0.00    +0.000 A 
ATOM     27  C   UNL     1       4.212   4.307  18.059  0.00  0.00    +0.000 A 
ATOM     28  C   UNL     1       3.782   3.068  18.520  0.00  0.00    +0.000 A 
ATOM     29  C   UNL     1       2.509   2.662  18.193  0.00  0.00    +0.000 A 
ATOM     30  C   UNL     1       1.628   3.650  17.822  0.00  0.00    +0.000 A 
ATOM     31  N   UNL     1       1.938   4.981  17.791  0.00  0.00    +0.000 NA
ATOM     32  C   UNL     1       3.256   5.318  17.840  0.00  0.00    +0.000 A 
ENDBRANCH  21  23
ENDBRANCH  18  19
ENDBRANCH   6  18
TORSDOF 6
ENDMDL
MODEL 7
REMARK VINA RESULT:      -7.2      3.286      7.270
REMARK  Name = 
REMARK  7 active torsions:
REMARK  status: ('A' for Active; 'I' for Inactive)
REMARK    1  A    between atoms: C_1  and  C_2
REMARK    2  A    between atoms: C_2  and  C_3
REMARK    3  A    between atoms: C_3  and  C_4
REMARK    4  A    between atoms: C_4  and  C_5
REMARK    5  A    between atoms: N_14  and  C_15
REMARK    6  A    between atoms: C_15  and  C_16
REMARK    7  A    between atoms: N_18  and  C_19
REMARK                            x       y       z     vdW  Elec       q    Type
REMARK                         _______ _______ _______ _____ _____    ______ ____
ROOT
ATOM      1  C   UNL     1       7.004   5.550  19.018  0.00  0.00    +0.000 C 
ATOM      2  C   UNL     1       5.801   5.340  18.145  0.00  0.00    +0.000 C 
ATOM      3  N   UNL     1       6.049   5.859  16.815  0.00  0.00    +0.000 N 
ATOM      4  C   UNL     1       5.021   6.671  16.402  0.00  0.00    +0.000 C 
ATOM      5  O   UNL     1       4.909   7.049  15.232  0.00  0.00    +0.000 OA
ATOM      6  N   UNL     1       4.193   6.889  17.455  0.00  0.00    +0.000 N 
ATOM      7  C   UNL     1       4.612   6.231  18.554  0.00  0.00    +0.000 C 
ATOM      8  O   UNL     1       4.063   6.244  19.641  0.00  0.00    +0.000 OA
ATOM      9  H   UNL     1       6.724   5.501  16.151  0.00  0.00    +0.000 HD
ENDROOT
BRANCH   2  10
ATOM     10  C   UNL     1       5.333   3.860  18.128  0.00  0.00    +0.000 C 
BRANCH  10  11
ATOM     11  C   UNL     1       3.858   3.654  17.742  0.00  0.00    +0.000 C 
BRANCH  11  12
ATOM     12  C   UNL     1       2.963   3.325  18.913  0.00  0.00    +0.000 A 
ATOM     13  C   UNL     1       3.508   2.858  20.117  0.00  0.00    +0.000 A 
ATOM     14  C   UNL     1       2.687   2.617  21.218  0.00  0.00    +0.000 A 
ATOM     15  C   UNL     1       1.312   2.831  21.129  0.00  0.00    +0.000 A 
ATOM     16  C   UNL     1       0.757   3.278  19.926  0.00  0.00    +0.000 A 
ATOM     17  C   UNL     1       1.580   3.520  18.825  0.00  0.00    +0.000 A 
ENDBRANCH  11  12
ENDBRANCH  10  11
ENDBRANCH   2  10
BRANCH   6  18
ATOM     18  C   UNL     1       2.827   7.345  17.256  0.00  0.00    +0.000 C 
BRANCH  18  19
ATOM     19  C   UNL     1       2.357   8.603  17.965  0.00  0.00    +0.000 C 
ATOM     20  O   UNL     1       2.628   9.679  17.425  0.00  0.00    +0.000 OA
ATOM     21  N   UNL     1       1.525   8.464  19.063  0.00  0.00    +0.000 N 
ATOM     22  H   UNL     1       1.477   7.578  19.558  0.00  0.00    +0.000 HD
BRANCH  21  23
ATOM     23  C   UNL     1       0.747   9.530  19.623  0.00  0.00    +0.000 A 
ATOM     24  C   UNL     1       0.981   9.963  20.941  0.00  0.00    +0.000 A 
ATOM     25  C   UNL     1       0.268  11.010  21.504  0.00  0.00    +0.000 A 
ATOM     26  C   UNL     1      -0.539  11.776  20.689  0.00  0.00    +0.000 A 
ATOM     27  C   UNL     1      -0.740  11.394  19.358  0.00  0.00    +0.000 A 
ATOM     28  C   UNL     1      -1.537  12.186  18.541  0.00  0.00    +0.000 A 
ATOM     29  C   UNL     1      -2.291  11.566  17.573  0.00  0.00    +0.000 A 
ATOM     30  C   UNL     1      -1.892  10.303  17.202  0.00  0.00    +0.000 A 
ATOM     31  N   UNL     1      -0.795   9.665  17.712  0.00  0.00    +0.000 NA
ATOM     32  C   UNL     1      -0.248  10.175  18.850  0.00  0.00    +0.000 A 
ENDBRANCH  21  23
ENDBRANCH  18  19
ENDBRANCH   6  18
TORSDOF 6
ENDMDL
MODEL 8
REMARK VINA RESULT:      -7.1      5.380      7.884
REMARK  Name = 
REMARK  7 active torsions:
REMARK  status: ('A' for Active; 'I' for Inactive)
REMARK    1  A    between atoms: C_1  and  C_2
REMARK    2  A    between atoms: C_2  and  C_3
REMARK    3  A    between atoms: C_3  and  C_4
REMARK    4  A    between atoms: C_4  and  C_5
REMARK    5  A    between atoms: N_14  and  C_15
REMARK    6  A    between atoms: C_15  and  C_16
REMARK    7  A    between atoms: N_18  and  C_19
REMARK                            x       y       z     vdW  Elec       q    Type
REMARK                         _______ _______ _______ _____ _____    ______ ____
ROOT
ATOM      1  C   UNL     1      -2.079  12.311  18.787  0.00  0.00    +0.000 C 
ATOM      2  C   UNL     1      -0.622  11.986  18.945  0.00  0.00    +0.000 C 
ATOM      3  N   UNL     1      -0.219  10.999  17.964  0.00  0.00    +0.000 N 
ATOM      4  C   UNL     1       0.466   9.966  18.556  0.00  0.00    +0.000 C 
ATOM      5  O   UNL     1       1.089   9.127  17.899  0.00  0.00    +0.000 OA
ATOM      6  N   UNL     1       0.371  10.100  19.903  0.00  0.00    +0.000 N 
ATOM      7  C   UNL     1      -0.330  11.201  20.239  0.00  0.00    +0.000 C 
ATOM      8  O   UNL     1      -0.569  11.570  21.374  0.00  0.00    +0.000 OA
ATOM      9  H   UNL     1      -0.188  11.132  16.961  0.00  0.00    +0.000 HD
ENDROOT
BRANCH   2  10
ATOM     10  C   UNL     1       0.273  13.254  18.917  0.00  0.00    +0.000 C 
BRANCH  10  11
ATOM     11  C   UNL     1      -0.435  14.552  19.342  0.00  0.00    +0.000 C 
BRANCH  11  12
ATOM     12  C   UNL     1       0.121  15.792  18.682  0.00  0.00    +0.000 A 
ATOM     13  C   UNL     1      -0.739  16.790  18.204  0.00  0.00    +0.000 A 
ATOM     14  C   UNL     1      -0.224  17.964  17.654  0.00  0.00    +0.000 A 
ATOM     15  C   UNL     1       1.155  18.151  17.567  0.00  0.00    +0.000 A 
ATOM     16  C   UNL     1       2.021  17.153  18.024  0.00  0.00    +0.000 A 
ATOM     17  C   UNL     1       1.503  15.979  18.575  0.00  0.00    +0.000 A 
ENDBRANCH  11  12
ENDBRANCH  10  11
ENDBRANCH   2  10
BRANCH   6  18
ATOM     18  C   UNL     1       1.308   9.434  20.793  0.00  0.00    +0.000 C 
BRANCH  18  19
ATOM     19  C   UNL     1       1.291   7.917  20.882  0.00  0.00    +0.000 C 
ATOM     20  O   UNL     1       0.313   7.404  21.431  0.00  0.00    +0.000 OA
ATOM     21  N   UNL     1       2.271   7.210  20.205  0.00  0.00    +0.000 N 
ATOM     22  H   UNL     1       3.131   7.673  19.923  0.00  0.00    +0.000 HD
BRANCH  21  23
ATOM     23  C   UNL     1       2.201   5.807  19.922  0.00  0.00    +0.000 A 
ATOM     24  C   UNL     1       1.422   4.958  20.730  0.00  0.00    +0.000 A 
ATOM     25  C   UNL     1       1.308   3.602  20.468  0.00  0.00    +0.000 A 
ATOM     26  C   UNL     1       1.798   3.115  19.273  0.00  0.00    +0.000 A 
ATOM     27  C   UNL     1       2.528   3.959  18.428  0.00  0.00    +0.000 A 
ATOM     28  C   UNL     1       2.996   3.462  17.218  0.00  0.00    +0.000 A 
ATOM     29  C   UNL     1       4.196   3.938  16.744  0.00  0.00    +0.000 A 
ATOM     30  C   UNL     1       4.621   5.142  17.254  0.00  0.00    +0.000 A 
ATOM     31  N   UNL     1       3.916   5.882  18.161  0.00  0.00    +0.000 NA
ATOM     32  C   UNL     1       2.893   5.264  18.814  0.00  0.00    +0.000 A 
ENDBRANCH  21  23
ENDBRANCH  18  19
ENDBRANCH   6  18
TORSDOF 6
ENDMDL
MODEL 9
REMARK VINA RESULT:      -7.1      4.685      6.744
REMARK  Name = 
REMARK  7 active torsions:
REMARK  status: ('A' for Active; 'I' for Inactive)
REMARK    1  A    between atoms: C_1  and  C_2
REMARK    2  A    between atoms: C_2  and  C_3
REMARK    3  A    between atoms: C_3  and  C_4
REMARK    4  A    between atoms: C_4  and  C_5
REMARK    5  A    between atoms: N_14  and  C_15
REMARK    6  A    between atoms: C_15  and  C_16
REMARK    7  A    between atoms: N_18  and  C_19
REMARK                            x       y       z     vdW  Elec       q    Type
REMARK                         _______ _______ _______ _____ _____    ______ ____
ROOT
ATOM      1  C   UNL     1      -1.943  11.107  18.466  0.00  0.00    +0.000 C 
ATOM      2  C   UNL     1      -0.528  11.102  18.968  0.00  0.00    +0.000 C 
ATOM      3  N   UNL     1       0.380  10.721  17.906  0.00  0.00    +0.000 N 
ATOM      4  C   UNL     1       1.238   9.732  18.321  0.00  0.00    +0.000 C 
ATOM      5  O   UNL     1       2.231   9.403  17.665  0.00  0.00    +0.000 OA
ATOM      6  N   UNL     1       0.828   9.285  19.535  0.00  0.00    +0.000 N 
ATOM      7  C   UNL     1      -0.259   9.957  19.964  0.00  0.00    +0.000 C 
ATOM      8  O   UNL     1      -0.839   9.768  21.018  0.00  0.00    +0.000 OA
ATOM      9  H   UNL     1       0.570  11.250  17.064  0.00  0.00    +0.000 HD
ENDROOT
BRANCH   2  10
ATOM     10  C   UNL     1      -0.133  12.447  19.636  0.00  0.00    +0.000 C 
BRANCH  10  11
ATOM     11  C   UNL     1       1.148  13.091  19.078  0.00  0.00    +0.000 C 
BRANCH  11  12
ATOM     12  C   UNL     1       1.014  14.570  18.802  0.00  0.00    +0.000 A 
ATOM     13  C   UNL     1       2.141  15.339  18.481  0.00  0.00    +0.000 A 
ATOM     14  C   UNL     1       2.007  16.691  18.163  0.00  0.00    +0.000 A 
ATOM     15  C   UNL     1       0.749  17.292  18.169  0.00  0.00    +0.000 A 
ATOM     16  C   UNL     1      -0.378  16.538  18.507  0.00  0.00    +0.000 A 
ATOM     17  C   UNL     1      -0.243  15.184  18.824  0.00  0.00    +0.000 A 
ENDBRANCH  11  12
ENDBRANCH  10  11
ENDBRANCH   2  10
BRANCH   6  18
ATOM     18  C   UNL     1       1.730   8.560  20.414  0.00  0.00    +0.000 C 
BRANCH  18  19
ATOM     19  C   UNL     1       2.125   7.137  20.057  0.00  0.00    +0.000 C 
ATOM     20  O   UNL     1       1.590   6.234  20.705  0.00  0.00    +0.000 OA
ATOM     21  N   UNL     1       2.914   6.937  18.937  0.00  0.00    +0.000 N 
ATOM     22  H   UNL     1       3.458   7.706  18.553  0.00  0.00    +0.000 HD
BRANCH  21  23
ATOM     23  C   UNL     1       3.091   5.669  18.293  0.00  0.00    +0.000 A 
ATOM     24  C   UNL     1       2.017   4.766  18.196  0.00  0.00    +0.000 A 
ATOM     25  C   UNL     1       2.145   3.544  17.554  0.00  0.00    +0.000 A 
ATOM     26  C   UNL     1       3.285   3.300  16.816  0.00  0.00    +0.000 A 
ATOM     27  C   UNL     1       4.344   4.214  16.854  0.00  0.00    +0.000 A 
ATOM     28  C   UNL     1       5.477   3.967  16.089  0.00  0.00    +0.000 A 
ATOM     29  C   UNL     1       6.694   4.372  16.585  0.00  0.00    +0.000 A 
ATOM     30  C   UNL     1       6.666   5.344  17.557  0.00  0.00    +0.000 A 
ATOM     31  N   UNL     1       5.522   5.932  18.021  0.00  0.00    +0.000 NA
ATOM     32  C   UNL     1       4.341   5.322  17.725  0.00  0.00    +0.000 A 
ENDBRANCH  21  23
ENDBRANCH  18  19
ENDBRANCH   6  18
TORSDOF 6
ENDMDL
