MODEL 1
REMARK VINA RESULT:      -9.1      0.000      0.000
REMARK  Name = 
REMARK  3 active torsions:
REMARK  status: ('A' for Active; 'I' for Inactive)
REMARK    1  A    between atoms: C_2  and  C_13
REMARK    2  A    between atoms: C_7  and  C_8
REMARK    3  A    between atoms: C_20  and  C_21
REMARK                            x       y       z     vdW  Elec       q    Type
REMARK                         _______ _______ _______ _____ _____    ______ ____
ROOT
ATOM      1  C   UNL     1       2.722   5.875  18.837  0.00  0.00    +0.000 C 
ATOM      2  C   UNL     1       1.507   5.052  18.328  0.00  0.00    +0.000 C 
ATOM      3  C   UNL     1       1.921   3.612  17.985  0.00  0.00    +0.000 C 
ATOM      4  C   UNL     1       2.500   2.942  19.237  0.00  0.00    +0.000 C 
ATOM      5  C   UNL     1       3.721   3.727  19.724  0.00  0.00    +0.000 C 
ATOM      6  C   UNL     1       3.317   5.160  20.070  0.00  0.00    +0.000 C 
ATOM      7  C   UNL     1       4.778   3.769  18.615  0.00  0.00    +0.000 C 
ATOM      8  C   UNL     1       4.238   4.444  17.325  0.00  0.00    +0.000 C 
ATOM      9  C   UNL     1       2.986   3.634  16.875  0.00  0.00    +0.000 C 
ATOM     10  C   UNL     1       3.778   5.895  17.698  0.00  0.00    +0.000 C 
ENDROOT
BRANCH   1  12
ATOM     11  O   UNL     1       2.333   8.267  18.570  0.00  0.00    +0.000 OA
ATOM     12  C   UNL     1       2.262   7.278  19.303  0.00  0.00    +0.000 C 
ATOM     13  N   UNL     1       1.701   7.315  20.566  0.00  0.00    +0.000 N 
ATOM     14  C   UNL     1       1.282   8.512  21.087  0.00  0.00    +0.000 A 
ATOM     15  N   UNL     1       1.565   8.958  22.290  0.00  0.00    +0.000 NA
ATOM     16  N   UNL     1       0.903  10.152  22.462  0.00  0.00    +0.000 NA
ATOM     17  C   UNL     1       0.138  10.351  21.402  0.00  0.00    +0.000 A 
ATOM     18  N   UNL     1       0.390   9.355  20.492  0.00  0.00    +0.000 N 
ATOM     19  H   UNL     1       2.062   6.664  21.258  0.00  0.00    +0.000 HD
ATOM     20  H   UNL     1      -0.100   9.187  19.621  0.00  0.00    +0.000 HD
BRANCH  17  21
ATOM     21  C   UNL     1      -0.897  11.394  21.199  0.00  0.00    +0.000 C 
ATOM     22  F   UNL     1      -1.627  11.218  20.071  0.00  0.00    +0.000 F 
ATOM     23  F   UNL     1      -1.772  11.446  22.238  0.00  0.00    +0.000 F 
ATOM     24  F   UNL     1      -0.334  12.629  21.115  0.00  0.00    +0.000 F 
ENDBRANCH  17  21
ENDBRANCH   1  12
BRANCH   8  25
ATOM     25  C   UNL     1       5.283   4.484  16.190  0.00  0.00    +0.000 A 
ATOM     26  C   UNL     1       5.009   3.985  14.902  0.00  0.00    +0.000 A 
ATOM     27  C   UNL     1       5.956   4.052  13.874  0.00  0.00    +0.000 A 
ATOM     28  C   UNL     1       7.201   4.617  14.110  0.00  0.00    +0.000 A 
ATOM     29  C   UNL     1       7.506   5.108  15.375  0.00  0.00    +0.000 A 
ATOM     30  C   UNL     1       6.555   5.040  16.400  0.00  0.00    +0.000 A 
ENDBRANCH   8  25
TORSDOF 3
ENDMDL
MODEL 2
REMARK VINA RESULT:      -9.1      0.046      1.153
REMARK  Name = 
REMARK  3 active torsions:
REMARK  status: ('A' for Active; 'I' for Inactive)
REMARK    1  A    between atoms: C_2  and  C_13
REMARK    2  A    between atoms: C_7  and  C_8
REMARK    3  A    between atoms: C_20  and  C_21
REMARK                            x       y       z     vdW  Elec       q    Type
REMARK                         _______ _______ _______ _____ _____    ______ ____
ROOT
ATOM      1  C   UNL     1       2.740   5.906  18.824  0.00  0.00    +0.000 C 
ATOM      2  C   UNL     1       1.527   5.081  18.315  0.00  0.00    +0.000 C 
ATOM      3  C   UNL     1       1.947   3.645  17.961  0.00  0.00    +0.000 C 
ATOM      4  C   UNL     1       2.535   2.970  19.206  0.00  0.00    +0.000 C 
ATOM      5  C   UNL     1       3.754   3.757  19.693  0.00  0.00    +0.000 C 
ATOM      6  C   UNL     1       3.344   5.186  20.050  0.00  0.00    +0.000 C 
ATOM      7  C   UNL     1       4.806   3.812  18.580  0.00  0.00    +0.000 C 
ATOM      8  C   UNL     1       4.256   4.493  17.296  0.00  0.00    +0.000 C 
ATOM      9  C   UNL     1       3.006   3.679  16.846  0.00  0.00    +0.000 C 
ATOM     10  C   UNL     1       3.791   5.938  17.681  0.00  0.00    +0.000 C 
ENDROOT
BRANCH   1  12
ATOM     11  O   UNL     1       2.344   8.299  18.576  0.00  0.00    +0.000 OA
ATOM     12  C   UNL     1       2.275   7.304  19.301  0.00  0.00    +0.000 C 
ATOM     13  N   UNL     1       1.712   7.328  20.563  0.00  0.00    +0.000 N 
ATOM     14  C   UNL     1       1.288   8.519  21.093  0.00  0.00    +0.000 A 
ATOM     15  N   UNL     1       1.568   8.957  22.301  0.00  0.00    +0.000 NA
ATOM     16  N   UNL     1       0.902  10.147  22.482  0.00  0.00    +0.000 NA
ATOM     17  C   UNL     1       0.138  10.352  21.423  0.00  0.00    +0.000 A 
ATOM     18  N   UNL     1       0.394   9.365  20.504  0.00  0.00    +0.000 N 
ATOM     19  H   UNL     1       2.074   6.673  21.250  0.00  0.00    +0.000 HD
ATOM     20  H   UNL     1      -0.094   9.203  19.631  0.00  0.00    +0.000 HD
BRANCH  17  21
ATOM     21  C   UNL     1      -0.900  11.394  21.226  0.00  0.00    +0.000 C 
ATOM     22  F   UNL     1      -1.812  11.444  22.227  0.00  0.00    +0.000 F 
ATOM     23  F   UNL     1      -0.355  12.635  21.121  0.00  0.00    +0.000 F 
ATOM     24  F   UNL     1      -1.590  11.183  20.074  0.00  0.00    +0.000 F 
ENDBRANCH  17  21
ENDBRANCH   1  12
BRANCH   8  25
ATOM     25  C   UNL     1       5.296   4.545  16.157  0.00  0.00    +0.000 A 
ATOM     26  C   UNL     1       6.579   5.095  16.337  0.00  0.00    +0.000 A 
ATOM     27  C   UNL     1       7.522   5.110  15.303  0.00  0.00    +0.000 A 
ATOM     28  C   UNL     1       7.202   4.578  14.062  0.00  0.00    +0.000 A 
ATOM     29  C   UNL     1       5.939   4.038  13.849  0.00  0.00    +0.000 A 
ATOM     30  C   UNL     1       5.000   4.024  14.886  0.00  0.00    +0.000 A 
ENDBRANCH   8  25
TORSDOF 3
ENDMDL
MODEL 3
REMARK VINA RESULT:      -9.0      5.709      8.410
REMARK  Name = 
REMARK  3 active torsions:
REMARK  status: ('A' for Active; 'I' for Inactive)
REMARK    1  A    between atoms: C_2  and  C_13
REMARK    2  A    between atoms: C_7  and  C_8
REMARK    3  A    between atoms: C_20  and  C_21
REMARK                            x       y       z     vdW  Elec       q    Type
REMARK                         _______ _______ _______ _____ _____    ______ ____
ROOT
ATOM      1  C   UNL     1       3.493   3.812  18.322  0.00  0.00    +0.000 C 
ATOM      2  C   UNL     1       4.100   3.240  19.632  0.00  0.00    +0.000 C 
ATOM      3  C   UNL     1       3.086   3.309  20.785  0.00  0.00    +0.000 C 
ATOM      4  C   UNL     1       1.839   2.500  20.409  0.00  0.00    +0.000 C 
ATOM      5  C   UNL     1       1.213   3.080  19.138  0.00  0.00    +0.000 C 
ATOM      6  C   UNL     1       2.214   3.013  17.985  0.00  0.00    +0.000 C 
ATOM      7  C   UNL     1       0.835   4.546  19.376  0.00  0.00    +0.000 C 
ATOM      8  C   UNL     1       2.070   5.407  19.757  0.00  0.00    +0.000 C 
ATOM      9  C   UNL     1       2.692   4.774  21.037  0.00  0.00    +0.000 C 
ATOM     10  C   UNL     1       3.113   5.293  18.594  0.00  0.00    +0.000 C 
ENDROOT
BRANCH   1  12
ATOM     11  O   UNL     1       4.755   2.496  16.704  0.00  0.00    +0.000 OA
ATOM     12  C   UNL     1       4.476   3.614  17.143  0.00  0.00    +0.000 C 
ATOM     13  N   UNL     1       4.950   4.784  16.580  0.00  0.00    +0.000 N 
ATOM     14  C   UNL     1       5.847   4.724  15.545  0.00  0.00    +0.000 A 
ATOM     15  N   UNL     1       6.966   5.410  15.466  0.00  0.00    +0.000 NA
ATOM     16  N   UNL     1       7.545   5.131  14.250  0.00  0.00    +0.000 NA
ATOM     17  C   UNL     1       6.710   4.369  13.565  0.00  0.00    +0.000 A 
ATOM     18  N   UNL     1       5.646   4.054  14.374  0.00  0.00    +0.000 N 
ATOM     19  H   UNL     1       5.081   5.582  17.197  0.00  0.00    +0.000 HD
ATOM     20  H   UNL     1       4.805   3.557  14.107  0.00  0.00    +0.000 HD
BRANCH  17  21
ATOM     21  C   UNL     1       6.798   3.959  12.142  0.00  0.00    +0.000 C 
ATOM     22  F   UNL     1       7.454   2.788  11.957  0.00  0.00    +0.000 F 
ATOM     23  F   UNL     1       5.568   3.821  11.580  0.00  0.00    +0.000 F 
ATOM     24  F   UNL     1       7.449   4.897  11.403  0.00  0.00    +0.000 F 
ENDBRANCH  17  21
ENDBRANCH   1  12
BRANCH   8  25
ATOM     25  C   UNL     1       1.709   6.886  20.017  0.00  0.00    +0.000 A 
ATOM     26  C   UNL     1       1.897   7.885  19.043  0.00  0.00    +0.000 A 
ATOM     27  C   UNL     1       1.539   9.216  19.282  0.00  0.00    +0.000 A 
ATOM     28  C   UNL     1       0.987   9.581  20.501  0.00  0.00    +0.000 A 
ATOM     29  C   UNL     1       0.799   8.620  21.487  0.00  0.00    +0.000 A 
ATOM     30  C   UNL     1       1.157   7.289  21.244  0.00  0.00    +0.000 A 
ENDBRANCH   8  25
TORSDOF 3
ENDMDL
MODEL 4
REMARK VINA RESULT:      -8.6      8.521     10.556
REMARK  Name = 
REMARK  3 active torsions:
REMARK  status: ('A' for Active; 'I' for Inactive)
REMARK    1  A    between atoms: C_2  and  C_13
REMARK    2  A    between atoms: C_7  and  C_8
REMARK    3  A    between atoms: C_20  and  C_21
REMARK                            x       y       z     vdW  Elec       q    Type
REMARK                         _______ _______ _______ _____ _____    ______ ____
ROOT
ATOM      1  C   UNL     1       9.301  10.954  18.632  0.00  0.00    +0.000 C 
ATOM      2  C   UNL     1      10.628  10.932  17.824  0.00  0.00    +0.000 C 
ATOM      3  C   UNL     1      11.607  11.999  18.342  0.00  0.00    +0.000 C 
ATOM      4  C   UNL     1      11.908  11.730  19.821  0.00  0.00    +0.000 C 
ATOM      5  C   UNL     1      10.610  11.787  20.631  0.00  0.00    +0.000 C 
ATOM      6  C   UNL     1       9.633  10.727  20.124  0.00  0.00    +0.000 C 
ATOM      7  C   UNL     1       9.965  13.167  20.469  0.00  0.00    +0.000 C 
ATOM      8  C   UNL     1       9.637  13.483  18.984  0.00  0.00    +0.000 C 
ATOM      9  C   UNL     1      10.974  13.393  18.191  0.00  0.00    +0.000 C 
ATOM     10  C   UNL     1       8.675  12.365  18.457  0.00  0.00    +0.000 C 
ENDROOT
BRANCH   1  12
ATOM     11  O   UNL     1       7.358   9.980  17.529  0.00  0.00    +0.000 OA
ATOM     12  C   UNL     1       8.383   9.790  18.187  0.00  0.00    +0.000 C 
ATOM     13  N   UNL     1       8.843   8.530  18.519  0.00  0.00    +0.000 N 
ATOM     14  C   UNL     1       8.095   7.428  18.194  0.00  0.00    +0.000 A 
ATOM     15  N   UNL     1       7.798   6.442  19.011  0.00  0.00    +0.000 NA
ATOM     16  N   UNL     1       7.101   5.497  18.294  0.00  0.00    +0.000 NA
ATOM     17  C   UNL     1       7.088   5.874  17.027  0.00  0.00    +0.000 A 
ATOM     18  N   UNL     1       7.668   7.115  16.937  0.00  0.00    +0.000 N 
ATOM     19  H   UNL     1       9.368   8.435  19.385  0.00  0.00    +0.000 HD
ATOM     20  H   UNL     1       7.879   7.628  16.089  0.00  0.00    +0.000 HD
BRANCH  17  21
ATOM     21  C   UNL     1       6.624   5.107  15.845  0.00  0.00    +0.000 C 
ATOM     22  F   UNL     1       7.544   5.036  14.852  0.00  0.00    +0.000 F 
ATOM     23  F   UNL     1       6.291   3.830  16.171  0.00  0.00    +0.000 F 
ATOM     24  F   UNL     1       5.507   5.666  15.308  0.00  0.00    +0.000 F 
ENDBRANCH  17  21
ENDBRANCH   1  12
BRANCH   8  25
ATOM     25  C   UNL     1       9.000  14.876  18.797  0.00  0.00    +0.000 A 
ATOM     26  C   UNL     1       7.605  15.062  18.746  0.00  0.00    +0.000 A 
ATOM     27  C   UNL     1       7.041  16.334  18.604  0.00  0.00    +0.000 A 
ATOM     28  C   UNL     1       7.858  17.452  18.507  0.00  0.00    +0.000 A 
ATOM     29  C   UNL     1       9.239  17.300  18.542  0.00  0.00    +0.000 A 
ATOM     30  C   UNL     1       9.799  16.026  18.686  0.00  0.00    +0.000 A 
ENDBRANCH   8  25
TORSDOF 3
ENDMDL
MODEL 5
REMARK VINA RESULT:      -8.6      1.237      1.912
REMARK  Name = 
REMARK  3 active torsions:
REMARK  status: ('A' for Active; 'I' for Inactive)
REMARK    1  A    between atoms: C_2  and  C_13
REMARK    2  A    between atoms: C_7  and  C_8
REMARK    3  A    between atoms: C_20  and  C_21
REMARK                            x       y       z     vdW  Elec       q    Type
REMARK                         _______ _______ _______ _____ _____    ______ ____
ROOT
ATOM      1  C   UNL     1       3.734   5.960  18.115  0.00  0.00    +0.000 C 
ATOM      2  C   UNL     1       2.693   4.808  18.154  0.00  0.00    +0.000 C 
ATOM      3  C   UNL     1       3.376   3.442  17.976  0.00  0.00    +0.000 C 
ATOM      4  C   UNL     1       4.400   3.240  19.099  0.00  0.00    +0.000 C 
ATOM      5  C   UNL     1       5.451   4.351  19.045  0.00  0.00    +0.000 C 
ATOM      6  C   UNL     1       4.780   5.713  19.224  0.00  0.00    +0.000 C 
ATOM      7  C   UNL     1       6.153   4.326  17.683  0.00  0.00    +0.000 C 
ATOM      8  C   UNL     1       5.154   4.531  16.512  0.00  0.00    +0.000 C 
ATOM      9  C   UNL     1       4.090   3.398  16.614  0.00  0.00    +0.000 C 
ATOM     10  C   UNL     1       4.435   5.905  16.729  0.00  0.00    +0.000 C 
ENDROOT
BRANCH   1  12
ATOM     11  O   UNL     1       3.214   8.309  17.721  0.00  0.00    +0.000 OA
ATOM     12  C   UNL     1       3.049   7.312  18.428  0.00  0.00    +0.000 C 
ATOM     13  N   UNL     1       2.188   7.289  19.509  0.00  0.00    +0.000 N 
ATOM     14  C   UNL     1       1.546   8.440  19.889  0.00  0.00    +0.000 A 
ATOM     15  N   UNL     1       1.477   8.902  21.118  0.00  0.00    +0.000 NA
ATOM     16  N   UNL     1       0.690  10.029  21.100  0.00  0.00    +0.000 NA
ATOM     17  C   UNL     1       0.201  10.166  19.879  0.00  0.00    +0.000 A 
ATOM     18  N   UNL     1       0.761   9.203  19.077  0.00  0.00    +0.000 N 
ATOM     19  H   UNL     1       2.420   6.669  20.280  0.00  0.00    +0.000 HD
ATOM     20  H   UNL     1       0.522   8.999  18.113  0.00  0.00    +0.000 HD
BRANCH  17  21
ATOM     21  C   UNL     1      -0.838  11.114  19.406  0.00  0.00    +0.000 C 
ATOM     22  F   UNL     1      -1.476  11.762  20.411  0.00  0.00    +0.000 F 
ATOM     23  F   UNL     1      -0.319  12.063  18.584  0.00  0.00    +0.000 F 
ATOM     24  F   UNL     1      -1.794  10.469  18.685  0.00  0.00    +0.000 F 
ENDBRANCH  17  21
ENDBRANCH   1  12
BRANCH   8  25
ATOM     25  C   UNL     1       5.840   4.493  15.129  0.00  0.00    +0.000 A 
ATOM     26  C   UNL     1       7.048   5.168  14.873  0.00  0.00    +0.000 A 
ATOM     27  C   UNL     1       7.674   5.102  13.623  0.00  0.00    +0.000 A 
ATOM     28  C   UNL     1       7.103   4.362  12.597  0.00  0.00    +0.000 A 
ATOM     29  C   UNL     1       5.904   3.693  12.815  0.00  0.00    +0.000 A 
ATOM     30  C   UNL     1       5.283   3.761  14.068  0.00  0.00    +0.000 A 
ENDBRANCH   8  25
TORSDOF 3
ENDMDL
MODEL 6
REMARK VINA RESULT:      -8.5      1.281      1.574
REMARK  Name = 
REMARK  3 active torsions:
REMARK  status: ('A' for Active; 'I' for Inactive)
REMARK    1  A    between atoms: C_2  and  C_13
REMARK    2  A    between atoms: C_7  and  C_8
REMARK    3  A    between atoms: C_20  and  C_21
REMARK                            x       y       z     vdW  Elec       q    Type
REMARK                         _______ _______ _______ _____ _____    ______ ____
ROOT
ATOM      1  C   UNL     1       3.735   5.985  18.102  0.00  0.00    +0.000 C 
ATOM      2  C   UNL     1       2.716   4.815  18.192  0.00  0.00    +0.000 C 
ATOM      3  C   UNL     1       3.424   3.457  18.062  0.00  0.00    +0.000 C 
ATOM      4  C   UNL     1       4.457   3.317  19.186  0.00  0.00    +0.000 C 
ATOM      5  C   UNL     1       5.487   4.446  19.083  0.00  0.00    +0.000 C 
ATOM      6  C   UNL     1       4.791   5.800  19.214  0.00  0.00    +0.000 C 
ATOM      7  C   UNL     1       6.183   4.381  17.720  0.00  0.00    +0.000 C 
ATOM      8  C   UNL     1       5.175   4.523  16.547  0.00  0.00    +0.000 C 
ATOM      9  C   UNL     1       4.133   3.375  16.698  0.00  0.00    +0.000 C 
ATOM     10  C   UNL     1       4.430   5.890  16.716  0.00  0.00    +0.000 C 
ENDROOT
BRANCH   1  12
ATOM     11  O   UNL     1       3.158   8.303  17.617  0.00  0.00    +0.000 OA
ATOM     12  C   UNL     1       3.026   7.335  18.368  0.00  0.00    +0.000 C 
ATOM     13  N   UNL     1       2.181   7.340  19.462  0.00  0.00    +0.000 N 
ATOM     14  C   UNL     1       1.520   8.492  19.803  0.00  0.00    +0.000 A 
ATOM     15  N   UNL     1       1.458   9.005  21.011  0.00  0.00    +0.000 NA
ATOM     16  N   UNL     1       0.647  10.114  20.957  0.00  0.00    +0.000 NA
ATOM     17  C   UNL     1       0.137  10.188  19.739  0.00  0.00    +0.000 A 
ATOM     18  N   UNL     1       0.707   9.204  18.970  0.00  0.00    +0.000 N 
ATOM     19  H   UNL     1       2.437   6.758  20.255  0.00  0.00    +0.000 HD
ATOM     20  H   UNL     1       0.458   8.953  18.020  0.00  0.00    +0.000 HD
BRANCH  17  21
ATOM     21  C   UNL     1      -0.929  11.092  19.242  0.00  0.00    +0.000 C 
ATOM     22  F   UNL     1      -1.881  10.458  18.517  0.00  0.00    +0.000 F 
ATOM     23  F   UNL     1      -1.563  11.733  20.260  0.00  0.00    +0.000 F 
ATOM     24  F   UNL     1      -0.410  12.065  18.446  0.00  0.00    +0.000 F 
ENDBRANCH  17  21
ENDBRANCH   1  12
BRANCH   8  25
ATOM     25  C   UNL     1       5.854   4.446  15.163  0.00  0.00    +0.000 A 
ATOM     26  C   UNL     1       5.328   3.670  14.112  0.00  0.00    +0.000 A 
ATOM     27  C   UNL     1       5.939   3.631  12.854  0.00  0.00    +0.000 A 
ATOM     28  C   UNL     1       7.093   4.364  12.617  0.00  0.00    +0.000 A 
ATOM     29  C   UNL     1       7.643   5.131  13.638  0.00  0.00    +0.000 A 
ATOM     30  C   UNL     1       7.028   5.168  14.894  0.00  0.00    +0.000 A 
ENDBRANCH   8  25
TORSDOF 3
ENDMDL
MODEL 7
REMARK VINA RESULT:      -8.4      4.321      9.056
REMARK  Name = 
REMARK  3 active torsions:
REMARK  status: ('A' for Active; 'I' for Inactive)
REMARK    1  A    between atoms: C_2  and  C_13
REMARK    2  A    between atoms: C_7  and  C_8
REMARK    3  A    between atoms: C_20  and  C_21
REMARK                            x       y       z     vdW  Elec       q    Type
REMARK                         _______ _______ _______ _____ _____    ______ ____
ROOT
ATOM      1  C   UNL     1       0.769  10.286  19.499  0.00  0.00    +0.000 C 
ATOM      2  C   UNL     1       1.584  11.379  18.756  0.00  0.00    +0.000 C 
ATOM      3  C   UNL     1       0.931  12.761  18.922  0.00  0.00    +0.000 C 
ATOM      4  C   UNL     1       0.858  13.108  20.413  0.00  0.00    +0.000 C 
ATOM      5  C   UNL     1       0.026  12.054  21.148  0.00  0.00    +0.000 C 
ATOM      6  C   UNL     1       0.669  10.677  20.990  0.00  0.00    +0.000 C 
ATOM      7  C   UNL     1      -1.385  12.008  20.550  0.00  0.00    +0.000 C 
ATOM      8  C   UNL     1      -1.362  11.656  19.038  0.00  0.00    +0.000 C 
ATOM      9  C   UNL     1      -0.489  12.734  18.330  0.00  0.00    +0.000 C 
ATOM     10  C   UNL     1      -0.655  10.267  18.879  0.00  0.00    +0.000 C 
ENDROOT
BRANCH   1  12
ATOM     11  O   UNL     1       1.571   8.169  20.402  0.00  0.00    +0.000 OA
ATOM     12  C   UNL     1       1.509   8.928  19.433  0.00  0.00    +0.000 C 
ATOM     13  N   UNL     1       2.024   8.607  18.191  0.00  0.00    +0.000 N 
ATOM     14  C   UNL     1       2.720   7.437  18.027  0.00  0.00    +0.000 A 
ATOM     15  N   UNL     1       3.886   7.323  17.430  0.00  0.00    +0.000 NA
ATOM     16  N   UNL     1       4.215   5.988  17.402  0.00  0.00    +0.000 NA
ATOM     17  C   UNL     1       3.189   5.305  17.879  0.00  0.00    +0.000 A 
ATOM     18  N   UNL     1       2.245   6.195  18.328  0.00  0.00    +0.000 N 
ATOM     19  H   UNL     1       2.353   9.372  17.608  0.00  0.00    +0.000 HD
ATOM     20  H   UNL     1       1.315   5.977  18.668  0.00  0.00    +0.000 HD
BRANCH  17  21
ATOM     21  C   UNL     1       2.986   3.835  17.883  0.00  0.00    +0.000 C 
ATOM     22  F   UNL     1       2.082   3.417  18.803  0.00  0.00    +0.000 F 
ATOM     23  F   UNL     1       2.564   3.381  16.674  0.00  0.00    +0.000 F 
ATOM     24  F   UNL     1       4.149   3.183  18.149  0.00  0.00    +0.000 F 
ENDBRANCH  17  21
ENDBRANCH   1  12
BRANCH   8  25
ATOM     25  C   UNL     1      -2.773  11.619  18.412  0.00  0.00    +0.000 A 
ATOM     26  C   UNL     1      -3.914  12.052  19.112  0.00  0.00    +0.000 A 
ATOM     27  C   UNL     1      -5.184  12.040  18.524  0.00  0.00    +0.000 A 
ATOM     28  C   UNL     1      -5.342  11.591  17.220  0.00  0.00    +0.000 A 
ATOM     29  C   UNL     1      -4.236  11.145  16.506  0.00  0.00    +0.000 A 
ATOM     30  C   UNL     1      -2.968  11.161  17.099  0.00  0.00    +0.000 A 
ENDBRANCH   8  25
TORSDOF 3
ENDMDL
MODEL 8
REMARK VINA RESULT:      -8.4      4.310      9.028
REMARK  Name = 
REMARK  3 active torsions:
REMARK  status: ('A' for Active; 'I' for Inactive)
REMARK    1  A    between atoms: C_2  and  C_13
REMARK    2  A    between atoms: C_7  and  C_8
REMARK    3  A    between atoms: C_20  and  C_21
REMARK                            x       y       z     vdW  Elec       q    Type
REMARK                         _______ _______ _______ _____ _____    ______ ____
ROOT
ATOM      1  C   UNL     1       0.772  10.289  19.506  0.00  0.00    +0.000 C 
ATOM      2  C   UNL     1       1.594  11.386  18.775  0.00  0.00    +0.000 C 
ATOM      3  C   UNL     1       0.942  12.768  18.944  0.00  0.00    +0.000 C 
ATOM      4  C   UNL     1       0.859  13.106  20.437  0.00  0.00    +0.000 C 
ATOM      5  C   UNL     1       0.019  12.049  21.160  0.00  0.00    +0.000 C 
ATOM      6  C   UNL     1       0.662  10.672  20.998  0.00  0.00    +0.000 C 
ATOM      7  C   UNL     1      -1.387  12.009  20.552  0.00  0.00    +0.000 C 
ATOM      8  C   UNL     1      -1.353  11.665  19.037  0.00  0.00    +0.000 C 
ATOM      9  C   UNL     1      -0.473  12.746  18.342  0.00  0.00    +0.000 C 
ATOM     10  C   UNL     1      -0.647  10.276  18.876  0.00  0.00    +0.000 C 
ENDROOT
BRANCH   1  12
ATOM     11  O   UNL     1       1.582   8.175  20.409  0.00  0.00    +0.000 OA
ATOM     12  C   UNL     1       1.511   8.931  19.438  0.00  0.00    +0.000 C 
ATOM     13  N   UNL     1       2.012   8.605  18.191  0.00  0.00    +0.000 N 
ATOM     14  C   UNL     1       2.706   7.434  18.025  0.00  0.00    +0.000 A 
ATOM     15  N   UNL     1       3.866   7.317  17.417  0.00  0.00    +0.000 NA
ATOM     16  N   UNL     1       4.194   5.982  17.390  0.00  0.00    +0.000 NA
ATOM     17  C   UNL     1       3.173   5.301  17.881  0.00  0.00    +0.000 A 
ATOM     18  N   UNL     1       2.234   6.193  18.335  0.00  0.00    +0.000 N 
ATOM     19  H   UNL     1       2.337   9.368  17.603  0.00  0.00    +0.000 HD
ATOM     20  H   UNL     1       1.308   5.977  18.686  0.00  0.00    +0.000 HD
BRANCH  17  21
ATOM     21  C   UNL     1       2.969   3.831  17.892  0.00  0.00    +0.000 C 
ATOM     22  F   UNL     1       4.085   3.133  18.213  0.00  0.00    +0.000 F 
ATOM     23  F   UNL     1       2.001   3.463  18.773  0.00  0.00    +0.000 F 
ATOM     24  F   UNL     1       2.562   3.386  16.673  0.00  0.00    +0.000 F 
ENDBRANCH  17  21
ENDBRANCH   1  12
BRANCH   8  25
ATOM     25  C   UNL     1      -2.759  11.634  18.401  0.00  0.00    +0.000 A 
ATOM     26  C   UNL     1      -2.981  11.158  17.095  0.00  0.00    +0.000 A 
ATOM     27  C   UNL     1      -4.264  11.110  16.540  0.00  0.00    +0.000 A 
ATOM     28  C   UNL     1      -5.358  11.539  17.279  0.00  0.00    +0.000 A 
ATOM     29  C   UNL     1      -5.171  12.025  18.567  0.00  0.00    +0.000 A 
ATOM     30  C   UNL     1      -3.885  12.070  19.118  0.00  0.00    +0.000 A 
ENDBRANCH   8  25
TORSDOF 3
ENDMDL
MODEL 9
REMARK VINA RESULT:      -8.3      4.806      8.800
REMARK  Name = 
REMARK  3 active torsions:
REMARK  status: ('A' for Active; 'I' for Inactive)
REMARK    1  A    between atoms: C_2  and  C_13
REMARK    2  A    between atoms: C_7  and  C_8
REMARK    3  A    between atoms: C_20  and  C_21
REMARK                            x       y       z     vdW  Elec       q    Type
REMARK                         _______ _______ _______ _____ _____    ______ ____
ROOT
ATOM      1  C   UNL     1       1.382   9.523  18.565  0.00  0.00    +0.000 C 
ATOM      2  C   UNL     1       2.099  10.900  18.519  0.00  0.00    +0.000 C 
ATOM      3  C   UNL     1       1.290  11.968  19.273  0.00  0.00    +0.000 C 
ATOM      4  C   UNL     1       1.118  11.533  20.733  0.00  0.00    +0.000 C 
ATOM      5  C   UNL     1       0.380  10.193  20.789  0.00  0.00    +0.000 C 
ATOM      6  C   UNL     1       1.179   9.125  20.044  0.00  0.00    +0.000 C 
ATOM      7  C   UNL     1      -0.991  10.336  20.119  0.00  0.00    +0.000 C 
ATOM      8  C   UNL     1      -0.868  10.773  18.634  0.00  0.00    +0.000 C 
ATOM      9  C   UNL     1      -0.093  12.124  18.617  0.00  0.00    +0.000 C 
ATOM     10  C   UNL     1      -0.005   9.700  17.888  0.00  0.00    +0.000 C 
ENDROOT
BRANCH   1  12
ATOM     11  O   UNL     1       2.783   8.581  16.806  0.00  0.00    +0.000 OA
ATOM     12  C   UNL     1       2.272   8.434  17.918  0.00  0.00    +0.000 C 
ATOM     13  N   UNL     1       2.506   7.329  18.715  0.00  0.00    +0.000 N 
ATOM     14  C   UNL     1       3.262   6.292  18.231  0.00  0.00    +0.000 A 
ATOM     15  N   UNL     1       2.936   5.020  18.290  0.00  0.00    +0.000 NA
ATOM     16  N   UNL     1       3.981   4.293  17.769  0.00  0.00    +0.000 NA
ATOM     17  C   UNL     1       4.971   5.130  17.508  0.00  0.00    +0.000 A 
ATOM     18  N   UNL     1       4.531   6.409  17.745  0.00  0.00    +0.000 N 
ATOM     19  H   UNL     1       1.764   7.041  19.348  0.00  0.00    +0.000 HD
ATOM     20  H   UNL     1       5.084   7.258  17.717  0.00  0.00    +0.000 HD
BRANCH  17  21
ATOM     21  C   UNL     1       6.363   4.811  17.110  0.00  0.00    +0.000 C 
ATOM     22  F   UNL     1       7.128   4.358  18.133  0.00  0.00    +0.000 F 
ATOM     23  F   UNL     1       6.406   3.868  16.132  0.00  0.00    +0.000 F 
ATOM     24  F   UNL     1       6.990   5.908  16.606  0.00  0.00    +0.000 F 
ENDBRANCH  17  21
ENDBRANCH   1  12
BRANCH   8  25
ATOM     25  C   UNL     1      -2.239  10.938  17.945  0.00  0.00    +0.000 A 
ATOM     26  C   UNL     1      -3.305  11.629  18.551  0.00  0.00    +0.000 A 
ATOM     27  C   UNL     1      -4.534  11.795  17.904  0.00  0.00    +0.000 A 
ATOM     28  C   UNL     1      -4.728  11.271  16.634  0.00  0.00    +0.000 A 
ATOM     29  C   UNL     1      -3.699  10.573  16.012  0.00  0.00    +0.000 A 
ATOM     30  C   UNL     1      -2.471  10.410  16.664  0.00  0.00    +0.000 A 
ENDBRANCH   8  25
TORSDOF 3
ENDMDL
