MODEL 1
REMARK VINA RESULT:      -8.9      0.000      0.000
REMARK  Name = 
REMARK  4 active torsions:
REMARK  status: ('A' for Active; 'I' for Inactive)
REMARK    1  A    between atoms: S_2  and  N_4
REMARK    2  A    between atoms: S_2  and  C_16
REMARK    3  A    between atoms: N_4  and  C_5
REMARK    4  A    between atoms: C_7  and  C_8
REMARK                            x       y       z     vdW  Elec       q    Type
REMARK                         _______ _______ _______ _____ _____    ______ ____
ROOT
ATOM      1  N   UNL     1       7.710   4.624  17.502  0.00  0.00    +0.000 N 
ATOM      2  H   UNL     1       7.870   3.713  17.905  0.00  0.00    +0.000 HD
ENDROOT
BRANCH   1   3
ATOM      3  C   UNL     1       7.391   4.667  16.156  0.00  0.00    +0.000 A 
ATOM      4  C   UNL     1       6.728   3.688  15.457  0.00  0.00    +0.000 A 
ATOM      5  C   UNL     1       6.579   4.196  14.132  0.00  0.00    +0.000 A 
ATOM      6  N   UNL     1       7.177   5.399  14.031  0.00  0.00    +0.000 NA
ATOM      7  N   UNL     1       7.612   5.680  15.269  0.00  0.00    +0.000 N 
ATOM      8  H   UNL     1       8.088   6.564  15.420  0.00  0.00    +0.000 HD
BRANCH   5   9
ATOM      9  C   UNL     1       5.889   3.586  12.990  0.00  0.00    +0.000 A 
ATOM     10  C   UNL     1       4.652   4.064  12.542  0.00  0.00    +0.000 A 
ATOM     11  C   UNL     1       4.004   3.448  11.470  0.00  0.00    +0.000 A 
ATOM     12  C   UNL     1       4.616   2.362  10.869  0.00  0.00    +0.000 A 
ATOM     13  N   UNL     1       5.810   1.870  11.260  0.00  0.00    +0.000 NA
ATOM     14  C   UNL     1       6.413   2.490  12.307  0.00  0.00    +0.000 A 
ENDBRANCH   5   9
ENDBRANCH   1   3
BRANCH   1  16
ATOM     15  O   UNL     1       7.341   5.416  19.886  0.00  0.00    +0.000 OA
ATOM     16  S   UNL     1       6.935   5.658  18.517  0.00  0.00    +0.000 S 
ATOM     17  O   UNL     1       6.993   6.994  17.957  0.00  0.00    +0.000 OA
BRANCH  16  18
ATOM     18  C   UNL     1       5.232   5.136  18.374  0.00  0.00    +0.000 A 
ATOM     19  C   UNL     1       4.265   6.041  17.925  0.00  0.00    +0.000 A 
ATOM     20  C   UNL     1       2.924   5.657  17.893  0.00  0.00    +0.000 A 
ATOM     21  C   UNL     1       2.531   4.378  18.324  0.00  0.00    +0.000 A 
ATOM     22  C   UNL     1       1.184   3.986  18.319  0.00  0.00    +0.000 A 
ATOM     23  C   UNL     1       0.808   2.719  18.768  0.00  0.00    +0.000 A 
ATOM     24  C   UNL     1       1.776   1.827  19.224  0.00  0.00    +0.000 A 
ATOM     25  C   UNL     1       3.118   2.199  19.240  0.00  0.00    +0.000 A 
ATOM     26  C   UNL     1       3.513   3.470  18.786  0.00  0.00    +0.000 A 
ATOM     27  C   UNL     1       4.862   3.860  18.810  0.00  0.00    +0.000 A 
ENDBRANCH  16  18
ENDBRANCH   1  16
TORSDOF 4
ENDMDL
MODEL 2
REMARK VINA RESULT:      -8.5      4.708      6.899
REMARK  Name = 
REMARK  4 active torsions:
REMARK  status: ('A' for Active; 'I' for Inactive)
REMARK    1  A    between atoms: S_2  and  N_4
REMARK    2  A    between atoms: S_2  and  C_16
REMARK    3  A    between atoms: N_4  and  C_5
REMARK    4  A    between atoms: C_7  and  C_8
REMARK                            x       y       z     vdW  Elec       q    Type
REMARK                         _______ _______ _______ _____ _____    ______ ____
ROOT
ATOM      1  N   UNL     1       7.685   6.245  18.413  0.00  0.00    +0.000 N 
ATOM      2  H   UNL     1       8.273   5.729  19.051  0.00  0.00    +0.000 HD
ENDROOT
BRANCH   1   3
ATOM      3  C   UNL     1       7.942   7.599  18.280  0.00  0.00    +0.000 A 
ATOM      4  C   UNL     1       8.835   8.324  19.031  0.00  0.00    +0.000 A 
ATOM      5  C   UNL     1       8.796   9.648  18.501  0.00  0.00    +0.000 A 
ATOM      6  N   UNL     1       7.881   9.723  17.516  0.00  0.00    +0.000 NA
ATOM      7  N   UNL     1       7.419   8.470  17.370  0.00  0.00    +0.000 N 
ATOM      8  H   UNL     1       6.717   8.300  16.657  0.00  0.00    +0.000 HD
BRANCH   5   9
ATOM      9  C   UNL     1       9.599  10.813  18.890  0.00  0.00    +0.000 A 
ATOM     10  C   UNL     1      10.319  11.554  17.945  0.00  0.00    +0.000 A 
ATOM     11  C   UNL     1      11.096  12.642  18.346  0.00  0.00    +0.000 A 
ATOM     12  C   UNL     1      11.131  12.964  19.691  0.00  0.00    +0.000 A 
ATOM     13  N   UNL     1      10.449  12.285  20.637  0.00  0.00    +0.000 NA
ATOM     14  C   UNL     1       9.705  11.231  20.215  0.00  0.00    +0.000 A 
ENDBRANCH   5   9
ENDBRANCH   1   3
BRANCH   1  16
ATOM     15  O   UNL     1       7.382   6.239  15.892  0.00  0.00    +0.000 OA
ATOM     16  S   UNL     1       7.284   5.395  17.065  0.00  0.00    +0.000 S 
ATOM     17  O   UNL     1       7.956   4.111  17.106  0.00  0.00    +0.000 OA
BRANCH  16  18
ATOM     18  C   UNL     1       5.550   5.055  17.324  0.00  0.00    +0.000 A 
ATOM     19  C   UNL     1       4.640   6.114  17.400  0.00  0.00    +0.000 A 
ATOM     20  C   UNL     1       3.299   5.850  17.685  0.00  0.00    +0.000 A 
ATOM     21  C   UNL     1       2.856   4.536  17.914  0.00  0.00    +0.000 A 
ATOM     22  C   UNL     1       1.517   4.258  18.224  0.00  0.00    +0.000 A 
ATOM     23  C   UNL     1       1.097   2.950  18.467  0.00  0.00    +0.000 A 
ATOM     24  C   UNL     1       2.011   1.902  18.400  0.00  0.00    +0.000 A 
ATOM     25  C   UNL     1       3.346   2.158  18.097  0.00  0.00    +0.000 A 
ATOM     26  C   UNL     1       3.784   3.470  17.844  0.00  0.00    +0.000 A 
ATOM     27  C   UNL     1       5.130   3.740  17.551  0.00  0.00    +0.000 A 
ENDBRANCH  16  18
ENDBRANCH   1  16
TORSDOF 4
ENDMDL
MODEL 3
REMARK VINA RESULT:      -8.5      4.638      6.866
REMARK  Name = 
REMARK  4 active torsions:
REMARK  status: ('A' for Active; 'I' for Inactive)
REMARK    1  A    between atoms: S_2  and  N_4
REMARK    2  A    between atoms: S_2  and  C_16
REMARK    3  A    between atoms: N_4  and  C_5
REMARK    4  A    between atoms: C_7  and  C_8
REMARK                            x       y       z     vdW  Elec       q    Type
REMARK                         _______ _______ _______ _____ _____    ______ ____
ROOT
ATOM      1  N   UNL     1       7.563   6.072  18.261  0.00  0.00    +0.000 N 
ATOM      2  H   UNL     1       8.211   5.539  18.822  0.00  0.00    +0.000 HD
ENDROOT
BRANCH   1   3
ATOM      3  C   UNL     1       7.806   7.430  18.140  0.00  0.00    +0.000 A 
ATOM      4  C   UNL     1       8.652   8.166  18.933  0.00  0.00    +0.000 A 
ATOM      5  C   UNL     1       8.620   9.490  18.402  0.00  0.00    +0.000 A 
ATOM      6  N   UNL     1       7.751   9.553  17.375  0.00  0.00    +0.000 NA
ATOM      7  N   UNL     1       7.314   8.294  17.207  0.00  0.00    +0.000 N 
ATOM      8  H   UNL     1       6.649   8.114  16.462  0.00  0.00    +0.000 HD
BRANCH   5   9
ATOM      9  C   UNL     1       9.386  10.666  18.829  0.00  0.00    +0.000 A 
ATOM     10  C   UNL     1       9.730  10.868  20.171  0.00  0.00    +0.000 A 
ATOM     11  C   UNL     1      10.437  12.009  20.553  0.00  0.00    +0.000 A 
ATOM     12  C   UNL     1      10.785  12.925  19.577  0.00  0.00    +0.000 A 
ATOM     13  N   UNL     1      10.483  12.770  18.270  0.00  0.00    +0.000 NA
ATOM     14  C   UNL     1       9.793  11.652  17.932  0.00  0.00    +0.000 A 
ENDBRANCH   5   9
ENDBRANCH   1   3
BRANCH   1  16
ATOM     15  O   UNL     1       6.782   6.181  15.847  0.00  0.00    +0.000 OA
ATOM     16  S   UNL     1       7.028   5.259  16.936  0.00  0.00    +0.000 S 
ATOM     17  O   UNL     1       7.862   4.090  16.737  0.00  0.00    +0.000 OA
BRANCH  16  18
ATOM     18  C   UNL     1       5.439   4.646  17.474  0.00  0.00    +0.000 A 
ATOM     19  C   UNL     1       4.713   3.782  16.648  0.00  0.00    +0.000 A 
ATOM     20  C   UNL     1       3.437   3.371  17.034  0.00  0.00    +0.000 A 
ATOM     21  C   UNL     1       2.864   3.828  18.233  0.00  0.00    +0.000 A 
ATOM     22  C   UNL     1       1.573   3.441  18.622  0.00  0.00    +0.000 A 
ATOM     23  C   UNL     1       1.012   3.919  19.807  0.00  0.00    +0.000 A 
ATOM     24  C   UNL     1       1.736   4.787  20.619  0.00  0.00    +0.000 A 
ATOM     25  C   UNL     1       3.018   5.186  20.248  0.00  0.00    +0.000 A 
ATOM     26  C   UNL     1       3.599   4.709  19.060  0.00  0.00    +0.000 A 
ATOM     27  C   UNL     1       4.886   5.115  18.670  0.00  0.00    +0.000 A 
ENDBRANCH  16  18
ENDBRANCH   1  16
TORSDOF 4
ENDMDL
MODEL 4
REMARK VINA RESULT:      -8.4      4.317      6.594
REMARK  Name = 
REMARK  4 active torsions:
REMARK  status: ('A' for Active; 'I' for Inactive)
REMARK    1  A    between atoms: S_2  and  N_4
REMARK    2  A    between atoms: S_2  and  C_16
REMARK    3  A    between atoms: N_4  and  C_5
REMARK    4  A    between atoms: C_7  and  C_8
REMARK                            x       y       z     vdW  Elec       q    Type
REMARK                         _______ _______ _______ _____ _____    ______ ____
ROOT
ATOM      1  N   UNL     1       6.702   6.441  16.703  0.00  0.00    +0.000 N 
ATOM      2  H   UNL     1       5.823   6.832  16.401  0.00  0.00    +0.000 HD
ENDROOT
BRANCH   1   3
ATOM      3  C   UNL     1       7.487   7.226  17.531  0.00  0.00    +0.000 A 
ATOM      4  C   UNL     1       7.739   8.565  17.364  0.00  0.00    +0.000 A 
ATOM      5  C   UNL     1       8.541   8.947  18.480  0.00  0.00    +0.000 A 
ATOM      6  N   UNL     1       8.802   7.872  19.249  0.00  0.00    +0.000 NA
ATOM      7  N   UNL     1       8.118   6.863  18.685  0.00  0.00    +0.000 N 
ATOM      8  H   UNL     1       8.167   5.949  19.123  0.00  0.00    +0.000 HD
BRANCH   5   9
ATOM      9  C   UNL     1       9.043  10.280  18.833  0.00  0.00    +0.000 A 
ATOM     10  C   UNL     1       9.465  10.582  20.133  0.00  0.00    +0.000 A 
ATOM     11  C   UNL     1       9.914  11.866  20.448  0.00  0.00    +0.000 A 
ATOM     12  C   UNL     1       9.929  12.821  19.447  0.00  0.00    +0.000 A 
ATOM     13  N   UNL     1       9.538  12.575  18.178  0.00  0.00    +0.000 NA
ATOM     14  C   UNL     1       9.105  11.318  17.905  0.00  0.00    +0.000 A 
ENDBRANCH   5   9
ENDBRANCH   1   3
BRANCH   1  16
ATOM     15  O   UNL     1       6.478   4.090  15.770  0.00  0.00    +0.000 OA
ATOM     16  S   UNL     1       6.626   4.827  17.007  0.00  0.00    +0.000 S 
ATOM     17  O   UNL     1       7.670   4.480  17.951  0.00  0.00    +0.000 OA
BRANCH  16  18
ATOM     18  C   UNL     1       5.085   4.674  17.897  0.00  0.00    +0.000 A 
ATOM     19  C   UNL     1       4.829   5.507  18.991  0.00  0.00    +0.000 A 
ATOM     20  C   UNL     1       3.662   5.330  19.734  0.00  0.00    +0.000 A 
ATOM     21  C   UNL     1       2.749   4.312  19.409  0.00  0.00    +0.000 A 
ATOM     22  C   UNL     1       1.582   4.108  20.161  0.00  0.00    +0.000 A 
ATOM     23  C   UNL     1       0.695   3.081  19.837  0.00  0.00    +0.000 A 
ATOM     24  C   UNL     1       0.961   2.248  18.753  0.00  0.00    +0.000 A 
ATOM     25  C   UNL     1       2.115   2.433  17.996  0.00  0.00    +0.000 A 
ATOM     26  C   UNL     1       3.016   3.467  18.307  0.00  0.00    +0.000 A 
ATOM     27  C   UNL     1       4.190   3.654  17.558  0.00  0.00    +0.000 A 
ENDBRANCH  16  18
ENDBRANCH   1  16
TORSDOF 4
ENDMDL
MODEL 5
REMARK VINA RESULT:      -8.4      4.596      6.922
REMARK  Name = 
REMARK  4 active torsions:
REMARK  status: ('A' for Active; 'I' for Inactive)
REMARK    1  A    between atoms: S_2  and  N_4
REMARK    2  A    between atoms: S_2  and  C_16
REMARK    3  A    between atoms: N_4  and  C_5
REMARK    4  A    between atoms: C_7  and  C_8
REMARK                            x       y       z     vdW  Elec       q    Type
REMARK                         _______ _______ _______ _____ _____    ______ ____
ROOT
ATOM      1  N   UNL     1       6.363   7.230  16.747  0.00  0.00    +0.000 N 
ATOM      2  H   UNL     1       5.407   7.509  16.912  0.00  0.00    +0.000 HD
ENDROOT
BRANCH   1   3
ATOM      3  C   UNL     1       7.332   7.808  17.550  0.00  0.00    +0.000 A 
ATOM      4  C   UNL     1       7.722   9.124  17.517  0.00  0.00    +0.000 A 
ATOM      5  C   UNL     1       8.694   9.263  18.551  0.00  0.00    +0.000 A 
ATOM      6  N   UNL     1       8.916   8.071  19.137  0.00  0.00    +0.000 NA
ATOM      7  N   UNL     1       8.051   7.226  18.553  0.00  0.00    +0.000 N 
ATOM      8  H   UNL     1       8.043   6.260  18.863  0.00  0.00    +0.000 HD
BRANCH   5   9
ATOM      9  C   UNL     1       9.393  10.475  18.994  0.00  0.00    +0.000 A 
ATOM     10  C   UNL     1       9.535  10.783  20.352  0.00  0.00    +0.000 A 
ATOM     11  C   UNL     1      10.180  11.956  20.745  0.00  0.00    +0.000 A 
ATOM     12  C   UNL     1      10.672  12.797  19.763  0.00  0.00    +0.000 A 
ATOM     13  N   UNL     1      10.565  12.539  18.442  0.00  0.00    +0.000 NA
ATOM     14  C   UNL     1       9.930  11.392  18.093  0.00  0.00    +0.000 A 
ENDBRANCH   5   9
ENDBRANCH   1   3
BRANCH   1  16
ATOM     15  O   UNL     1       6.380   5.453  14.934  0.00  0.00    +0.000 OA
ATOM     16  S   UNL     1       6.520   5.640  16.363  0.00  0.00    +0.000 S 
ATOM     17  O   UNL     1       7.666   5.100  17.068  0.00  0.00    +0.000 OA
BRANCH  16  18
ATOM     18  C   UNL     1       5.081   4.912  17.131  0.00  0.00    +0.000 A 
ATOM     19  C   UNL     1       4.413   3.861  16.496  0.00  0.00    +0.000 A 
ATOM     20  C   UNL     1       3.242   3.350  17.057  0.00  0.00    +0.000 A 
ATOM     21  C   UNL     1       2.715   3.891  18.242  0.00  0.00    +0.000 A 
ATOM     22  C   UNL     1       1.527   3.402  18.805  0.00  0.00    +0.000 A 
ATOM     23  C   UNL     1       1.007   3.963  19.973  0.00  0.00    +0.000 A 
ATOM     24  C   UNL     1       1.672   5.017  20.594  0.00  0.00    +0.000 A 
ATOM     25  C   UNL     1       2.852   5.518  20.048  0.00  0.00    +0.000 A 
ATOM     26  C   UNL     1       3.390   4.960  18.876  0.00  0.00    +0.000 A 
ATOM     27  C   UNL     1       4.572   5.467  18.310  0.00  0.00    +0.000 A 
ENDBRANCH  16  18
ENDBRANCH   1  16
TORSDOF 4
ENDMDL
MODEL 6
REMARK VINA RESULT:      -8.4      4.294      6.557
REMARK  Name = 
REMARK  4 active torsions:
REMARK  status: ('A' for Active; 'I' for Inactive)
REMARK    1  A    between atoms: S_2  and  N_4
REMARK    2  A    between atoms: S_2  and  C_16
REMARK    3  A    between atoms: N_4  and  C_5
REMARK    4  A    between atoms: C_7  and  C_8
REMARK                            x       y       z     vdW  Elec       q    Type
REMARK                         _______ _______ _______ _____ _____    ______ ____
ROOT
ATOM      1  N   UNL     1       6.719   6.361  16.666  0.00  0.00    +0.000 N 
ATOM      2  H   UNL     1       5.847   6.744  16.332  0.00  0.00    +0.000 HD
ENDROOT
BRANCH   1   3
ATOM      3  C   UNL     1       7.477   7.162  17.502  0.00  0.00    +0.000 A 
ATOM      4  C   UNL     1       7.728   8.499  17.321  0.00  0.00    +0.000 A 
ATOM      5  C   UNL     1       8.498   8.903  18.452  0.00  0.00    +0.000 A 
ATOM      6  N   UNL     1       8.743   7.841  19.244  0.00  0.00    +0.000 NA
ATOM      7  N   UNL     1       8.079   6.820  18.678  0.00  0.00    +0.000 N 
ATOM      8  H   UNL     1       8.120   5.913  19.131  0.00  0.00    +0.000 HD
BRANCH   5   9
ATOM      9  C   UNL     1       8.984  10.243  18.798  0.00  0.00    +0.000 A 
ATOM     10  C   UNL     1       9.562  10.513  20.044  0.00  0.00    +0.000 A 
ATOM     11  C   UNL     1       9.992  11.803  20.357  0.00  0.00    +0.000 A 
ATOM     12  C   UNL     1       9.833  12.798  19.408  0.00  0.00    +0.000 A 
ATOM     13  N   UNL     1       9.289  12.584  18.191  0.00  0.00    +0.000 NA
ATOM     14  C   UNL     1       8.879  11.320  17.919  0.00  0.00    +0.000 A 
ENDBRANCH   5   9
ENDBRANCH   1   3
BRANCH   1  16
ATOM     15  O   UNL     1       6.587   3.990  15.764  0.00  0.00    +0.000 OA
ATOM     16  S   UNL     1       6.639   4.752  16.994  0.00  0.00    +0.000 S 
ATOM     17  O   UNL     1       7.617   4.435  18.016  0.00  0.00    +0.000 OA
BRANCH  16  18
ATOM     18  C   UNL     1       5.040   4.596  17.776  0.00  0.00    +0.000 A 
ATOM     19  C   UNL     1       4.000   5.455  17.404  0.00  0.00    +0.000 A 
ATOM     20  C   UNL     1       2.778   5.386  18.074  0.00  0.00    +0.000 A 
ATOM     21  C   UNL     1       2.585   4.478  19.130  0.00  0.00    +0.000 A 
ATOM     22  C   UNL     1       1.369   4.413  19.826  0.00  0.00    +0.000 A 
ATOM     23  C   UNL     1       1.200   3.519  20.885  0.00  0.00    +0.000 A 
ATOM     24  C   UNL     1       2.243   2.676  21.256  0.00  0.00    +0.000 A 
ATOM     25  C   UNL     1       3.459   2.727  20.578  0.00  0.00    +0.000 A 
ATOM     26  C   UNL     1       3.643   3.619  19.507  0.00  0.00    +0.000 A 
ATOM     27  C   UNL     1       4.869   3.687  18.825  0.00  0.00    +0.000 A 
ENDBRANCH  16  18
ENDBRANCH   1  16
TORSDOF 4
ENDMDL
MODEL 7
REMARK VINA RESULT:      -8.4      4.661      6.705
REMARK  Name = 
REMARK  4 active torsions:
REMARK  status: ('A' for Active; 'I' for Inactive)
REMARK    1  A    between atoms: S_2  and  N_4
REMARK    2  A    between atoms: S_2  and  C_16
REMARK    3  A    between atoms: N_4  and  C_5
REMARK    4  A    between atoms: C_7  and  C_8
REMARK                            x       y       z     vdW  Elec       q    Type
REMARK                         _______ _______ _______ _____ _____    ______ ____
ROOT
ATOM      1  N   UNL     1       7.012   6.726  17.445  0.00  0.00    +0.000 N 
ATOM      2  H   UNL     1       6.044   6.926  17.243  0.00  0.00    +0.000 HD
ENDROOT
BRANCH   1   3
ATOM      3  C   UNL     1       7.780   7.770  17.932  0.00  0.00    +0.000 A 
ATOM      4  C   UNL     1       7.805   9.049  17.433  0.00  0.00    +0.000 A 
ATOM      5  C   UNL     1       8.690   9.776  18.283  0.00  0.00    +0.000 A 
ATOM      6  N   UNL     1       9.213   8.954  19.213  0.00  0.00    +0.000 NA
ATOM      7  N   UNL     1       8.614   7.769  19.012  0.00  0.00    +0.000 N 
ATOM      8  H   UNL     1       8.859   6.999  19.626  0.00  0.00    +0.000 HD
BRANCH   5   9
ATOM      9  C   UNL     1       9.034  11.202  18.242  0.00  0.00    +0.000 A 
ATOM     10  C   UNL     1       8.174  12.145  17.667  0.00  0.00    +0.000 A 
ATOM     11  C   UNL     1       8.537  13.491  17.618  0.00  0.00    +0.000 A 
ATOM     12  C   UNL     1       9.759  13.863  18.149  0.00  0.00    +0.000 A 
ATOM     13  N   UNL     1      10.618  12.992  18.720  0.00  0.00    +0.000 NA
ATOM     14  C   UNL     1      10.236  11.690  18.750  0.00  0.00    +0.000 A 
ENDBRANCH   5   9
ENDBRANCH   1   3
BRANCH   1  16
ATOM     15  O   UNL     1       8.008   4.408  17.153  0.00  0.00    +0.000 OA
ATOM     16  S   UNL     1       7.249   5.227  18.076  0.00  0.00    +0.000 S 
ATOM     17  O   UNL     1       7.670   5.363  19.457  0.00  0.00    +0.000 OA
BRANCH  16  18
ATOM     18  C   UNL     1       5.592   4.563  18.128  0.00  0.00    +0.000 A 
ATOM     19  C   UNL     1       5.019   4.039  16.964  0.00  0.00    +0.000 A 
ATOM     20  C   UNL     1       3.695   3.597  16.988  0.00  0.00    +0.000 A 
ATOM     21  C   UNL     1       2.926   3.688  18.161  0.00  0.00    +0.000 A 
ATOM     22  C   UNL     1       1.588   3.268  18.193  0.00  0.00    +0.000 A 
ATOM     23  C   UNL     1       0.832   3.383  19.361  0.00  0.00    +0.000 A 
ATOM     24  C   UNL     1       1.407   3.915  20.511  0.00  0.00    +0.000 A 
ATOM     25  C   UNL     1       2.733   4.340  20.499  0.00  0.00    +0.000 A 
ATOM     26  C   UNL     1       3.509   4.227  19.332  0.00  0.00    +0.000 A 
ATOM     27  C   UNL     1       4.843   4.664  19.304  0.00  0.00    +0.000 A 
ENDBRANCH  16  18
ENDBRANCH   1  16
TORSDOF 4
ENDMDL
MODEL 8
REMARK VINA RESULT:      -8.3      4.484      6.803
REMARK  Name = 
REMARK  4 active torsions:
REMARK  status: ('A' for Active; 'I' for Inactive)
REMARK    1  A    between atoms: S_2  and  N_4
REMARK    2  A    between atoms: S_2  and  C_16
REMARK    3  A    between atoms: N_4  and  C_5
REMARK    4  A    between atoms: C_7  and  C_8
REMARK                            x       y       z     vdW  Elec       q    Type
REMARK                         _______ _______ _______ _____ _____    ______ ____
ROOT
ATOM      1  N   UNL     1       6.354   6.943  16.560  0.00  0.00    +0.000 N 
ATOM      2  H   UNL     1       5.398   7.264  16.594  0.00  0.00    +0.000 HD
ENDROOT
BRANCH   1   3
ATOM      3  C   UNL     1       7.256   7.570  17.402  0.00  0.00    +0.000 A 
ATOM      4  C   UNL     1       7.618   8.893  17.348  0.00  0.00    +0.000 A 
ATOM      5  C   UNL     1       8.519   9.090  18.436  0.00  0.00    +0.000 A 
ATOM      6  N   UNL     1       8.729   7.924  19.076  0.00  0.00    +0.000 NA
ATOM      7  N   UNL     1       7.923   7.039  18.468  0.00  0.00    +0.000 N 
ATOM      8  H   UNL     1       7.916   6.084  18.810  0.00  0.00    +0.000 HD
BRANCH   5   9
ATOM      9  C   UNL     1       9.161  10.333  18.880  0.00  0.00    +0.000 A 
ATOM     10  C   UNL     1       9.465  11.361  17.980  0.00  0.00    +0.000 A 
ATOM     11  C   UNL     1      10.099  12.522  18.424  0.00  0.00    +0.000 A 
ATOM     12  C   UNL     1      10.415  12.626  19.767  0.00  0.00    +0.000 A 
ATOM     13  N   UNL     1      10.136  11.665  20.673  0.00  0.00    +0.000 NA
ATOM     14  C   UNL     1       9.521  10.548  20.209  0.00  0.00    +0.000 A 
ENDBRANCH   5   9
ENDBRANCH   1   3
BRANCH   1  16
ATOM     15  O   UNL     1       6.289   4.973  14.958  0.00  0.00    +0.000 OA
ATOM     16  S   UNL     1       6.487   5.318  16.351  0.00  0.00    +0.000 S 
ATOM     17  O   UNL     1       7.659   4.850  17.065  0.00  0.00    +0.000 OA
BRANCH  16  18
ATOM     18  C   UNL     1       5.077   4.695  17.252  0.00  0.00    +0.000 A 
ATOM     19  C   UNL     1       4.459   3.509  16.840  0.00  0.00    +0.000 A 
ATOM     20  C   UNL     1       3.308   3.069  17.495  0.00  0.00    +0.000 A 
ATOM     21  C   UNL     1       2.752   3.811  18.551  0.00  0.00    +0.000 A 
ATOM     22  C   UNL     1       1.583   3.392  19.203  0.00  0.00    +0.000 A 
ATOM     23  C   UNL     1       1.032   4.149  20.238  0.00  0.00    +0.000 A 
ATOM     24  C   UNL     1       1.647   5.333  20.636  0.00  0.00    +0.000 A 
ATOM     25  C   UNL     1       2.807   5.768  19.999  0.00  0.00    +0.000 A 
ATOM     26  C   UNL     1       3.376   5.013  18.958  0.00  0.00    +0.000 A 
ATOM     27  C   UNL     1       4.538   5.448  18.300  0.00  0.00    +0.000 A 
ENDBRANCH  16  18
ENDBRANCH   1  16
TORSDOF 4
ENDMDL
MODEL 9
REMARK VINA RESULT:      -8.3      4.390      6.634
REMARK  Name = 
REMARK  4 active torsions:
REMARK  status: ('A' for Active; 'I' for Inactive)
REMARK    1  A    between atoms: S_2  and  N_4
REMARK    2  A    between atoms: S_2  and  C_16
REMARK    3  A    between atoms: N_4  and  C_5
REMARK    4  A    between atoms: C_7  and  C_8
REMARK                            x       y       z     vdW  Elec       q    Type
REMARK                         _______ _______ _______ _____ _____    ______ ____
ROOT
ATOM      1  N   UNL     1       7.328   5.806  17.658  0.00  0.00    +0.000 N 
ATOM      2  H   UNL     1       8.128   5.195  17.727  0.00  0.00    +0.000 HD
ENDROOT
BRANCH   1   3
ATOM      3  C   UNL     1       7.569   7.167  17.741  0.00  0.00    +0.000 A 
ATOM      4  C   UNL     1       8.482   7.770  18.570  0.00  0.00    +0.000 A 
ATOM      5  C   UNL     1       8.414   9.163  18.267  0.00  0.00    +0.000 A 
ATOM      6  N   UNL     1       7.463   9.386  17.339  0.00  0.00    +0.000 NA
ATOM      7  N   UNL     1       7.006   8.168  17.005  0.00  0.00    +0.000 N 
ATOM      8  H   UNL     1       6.281   8.107  16.298  0.00  0.00    +0.000 HD
BRANCH   5   9
ATOM      9  C   UNL     1       9.221  10.259  18.815  0.00  0.00    +0.000 A 
ATOM     10  C   UNL     1      10.009  11.070  17.990  0.00  0.00    +0.000 A 
ATOM     11  C   UNL     1      10.787  12.090  18.540  0.00  0.00    +0.000 A 
ATOM     12  C   UNL     1      10.756  12.274  19.911  0.00  0.00    +0.000 A 
ATOM     13  N   UNL     1      10.007  11.522  20.746  0.00  0.00    +0.000 NA
ATOM     14  C   UNL     1       9.264  10.538  20.179  0.00  0.00    +0.000 A 
ENDBRANCH   5   9
ENDBRANCH   1   3
BRANCH   1  16
ATOM     15  O   UNL     1       5.860   6.339  15.655  0.00  0.00    +0.000 OA
ATOM     16  S   UNL     1       6.198   5.281  16.585  0.00  0.00    +0.000 S 
ATOM     17  O   UNL     1       6.587   3.971  16.101  0.00  0.00    +0.000 OA
BRANCH  16  18
ATOM     18  C   UNL     1       4.769   5.020  17.625  0.00  0.00    +0.000 A 
ATOM     19  C   UNL     1       4.587   5.810  18.764  0.00  0.00    +0.000 A 
ATOM     20  C   UNL     1       3.515   5.549  19.619  0.00  0.00    +0.000 A 
ATOM     21  C   UNL     1       2.627   4.491  19.359  0.00  0.00    +0.000 A 
ATOM     22  C   UNL     1       1.559   4.203  20.221  0.00  0.00    +0.000 A 
ATOM     23  C   UNL     1       0.698   3.137  19.959  0.00  0.00    +0.000 A 
ATOM     24  C   UNL     1       0.892   2.348  18.828  0.00  0.00    +0.000 A 
ATOM     25  C   UNL     1       1.949   2.616  17.961  0.00  0.00    +0.000 A 
ATOM     26  C   UNL     1       2.822   3.690  18.210  0.00  0.00    +0.000 A 
ATOM     27  C   UNL     1       3.899   3.961  17.349  0.00  0.00    +0.000 A 
ENDBRANCH  16  18
ENDBRANCH   1  16
TORSDOF 4
ENDMDL
