MODEL 1
REMARK VINA RESULT:      -8.0      0.000      0.000
REMARK  Name = 
REMARK  7 active torsions:
REMARK  status: ('A' for Active; 'I' for Inactive)
REMARK    1  A    between atoms: C_1  and  N_2
REMARK    2  A    between atoms: C_6  and  C_7
REMARK    3  A    between atoms: C_7  and  C_8
REMARK    4  A    between atoms: C_7  and  C_10
REMARK    5  A    between atoms: C_8  and  N_9
REMARK    6  A    between atoms: C_14  and  N_15
REMARK    7  A    between atoms: C_23  and  C_24
REMARK                            x       y       z     vdW  Elec       q    Type
REMARK                         _______ _______ _______ _____ _____    ______ ____
ROOT
ATOM      1  C   UNL     1       1.792   8.930  18.688  0.00  0.00    +0.000 A 
ATOM      2  C   UNL     1       1.334   8.418  19.910  0.00  0.00    +0.000 A 
ATOM      3  C   UNL     1       1.894   7.267  20.449  0.00  0.00    +0.000 A 
ATOM      4  C   UNL     1       2.810   6.535  19.706  0.00  0.00    +0.000 A 
ATOM      5  C   UNL     1       2.971   6.836  18.348  0.00  0.00    +0.000 A 
ATOM      6  C   UNL     1       2.618   8.116  17.891  0.00  0.00    +0.000 A 
ENDROOT
BRANCH   5   7
ATOM      7  N   UNL     1       2.957   5.730  17.393  0.00  0.00    +0.000 N 
ATOM      8  C   UNL     1       1.884   4.770  17.747  0.00  0.00    +0.000 C 
ATOM      9  C   UNL     1       2.598   3.805  18.650  0.00  0.00    +0.000 A 
ATOM     10  C   UNL     1       3.948   3.809  18.268  0.00  0.00    +0.000 A 
ATOM     11  C   UNL     1       4.931   3.139  18.971  0.00  0.00    +0.000 A 
ATOM     12  C   UNL     1       4.527   2.456  20.110  0.00  0.00    +0.000 A 
ATOM     13  F   UNL     1       5.444   1.852  20.876  0.00  0.00    +0.000 F 
ATOM     14  C   UNL     1       3.187   2.457  20.529  0.00  0.00    +0.000 A 
ATOM     15  C   UNL     1       2.192   3.144  19.805  0.00  0.00    +0.000 A 
ATOM     16  C   UNL     1       4.151   4.952  17.342  0.00  0.00    +0.000 C 
ATOM     17  O   UNL     1       5.217   5.238  16.846  0.00  0.00    +0.000 OA
BRANCH  15  18
ATOM     18  C   UNL     1       0.802   3.228  20.379  0.00  0.00    +0.000 C 
ATOM     19  F   UNL     1       0.676   2.664  21.610  0.00  0.00    +0.000 F 
ATOM     20  F   UNL     1       0.382   4.515  20.517  0.00  0.00    +0.000 F 
ATOM     21  F   UNL     1      -0.121   2.614  19.589  0.00  0.00    +0.000 F 
ENDBRANCH  15  18
ENDBRANCH   5   7
BRANCH   1  22
ATOM     22  C   UNL     1       1.369  10.333  18.283  0.00  0.00    +0.000 C 
BRANCH  22  28
ATOM     23  C   UNL     1      -1.847  10.371  18.443  0.00  0.00    +0.000 C 
ATOM     24  N   UNL     1      -0.906  10.997  19.327  0.00  0.00    +0.000 N 
ATOM     25  C   UNL     1      -1.261  11.770  20.395  0.00  0.00    +0.000 A 
ATOM     26  N   UNL     1      -0.189  12.205  21.005  0.00  0.00    +0.000 NA
ATOM     27  N   UNL     1       0.895  11.709  20.328  0.00  0.00    +0.000 NA
ATOM     28  C   UNL     1       0.467  10.981  19.314  0.00  0.00    +0.000 A 
ENDBRANCH  22  28
BRANCH  22  29
ATOM     29  C   UNL     1       2.566  11.275  17.946  0.00  0.00    +0.000 C 
BRANCH  29  30
ATOM     30  N   UNL     1       2.194  12.648  17.580  0.00  0.00    +0.000 NA
ATOM     31  H   UNL     1       2.029  12.703  16.574  0.00  0.00    +0.000 HD
ATOM     32  H   UNL     1       2.998  13.255  17.751  0.00  0.00    +0.000 HD
ENDBRANCH  29  30
ENDBRANCH  22  29
ENDBRANCH   1  22
TORSDOF 6
ENDMDL
MODEL 2
REMARK VINA RESULT:      -8.0      3.981      7.965
REMARK  Name = 
REMARK  7 active torsions:
REMARK  status: ('A' for Active; 'I' for Inactive)
REMARK    1  A    between atoms: C_1  and  N_2
REMARK    2  A    between atoms: C_6  and  C_7
REMARK    3  A    between atoms: C_7  and  C_8
REMARK    4  A    between atoms: C_7  and  C_10
REMARK    5  A    between atoms: C_8  and  N_9
REMARK    6  A    between atoms: C_14  and  N_15
REMARK    7  A    between atoms: C_23  and  C_24
REMARK                            x       y       z     vdW  Elec       q    Type
REMARK                         _______ _______ _______ _____ _____    ______ ____
ROOT
ATOM      1  C   UNL     1       2.716   6.415  19.444  0.00  0.00    +0.000 A 
ATOM      2  C   UNL     1       2.437   6.986  18.194  0.00  0.00    +0.000 A 
ATOM      3  C   UNL     1       1.974   8.292  18.100  0.00  0.00    +0.000 A 
ATOM      4  C   UNL     1       1.646   8.990  19.254  0.00  0.00    +0.000 A 
ATOM      5  C   UNL     1       1.562   8.290  20.464  0.00  0.00    +0.000 A 
ATOM      6  C   UNL     1       2.260   7.079  20.597  0.00  0.00    +0.000 A 
ENDROOT
BRANCH   5   7
ATOM      7  N   UNL     1       0.386   8.509  21.303  0.00  0.00    +0.000 N 
ATOM      8  C   UNL     1      -0.809   8.722  20.452  0.00  0.00    +0.000 C 
ATOM      9  C   UNL     1      -0.822  10.214  20.280  0.00  0.00    +0.000 A 
ATOM     10  C   UNL     1      -0.201  10.763  21.412  0.00  0.00    +0.000 A 
ATOM     11  C   UNL     1       0.088  12.108  21.534  0.00  0.00    +0.000 A 
ATOM     12  C   UNL     1      -0.252  12.918  20.460  0.00  0.00    +0.000 A 
ATOM     13  F   UNL     1       0.073  14.217  20.486  0.00  0.00    +0.000 F 
ATOM     14  C   UNL     1      -0.849  12.392  19.304  0.00  0.00    +0.000 A 
ATOM     15  C   UNL     1      -1.139  11.017  19.188  0.00  0.00    +0.000 A 
ATOM     16  C   UNL     1       0.446   9.651  22.154  0.00  0.00    +0.000 C 
ATOM     17  O   UNL     1       1.081   9.800  23.174  0.00  0.00    +0.000 OA
BRANCH  15  18
ATOM     18  C   UNL     1      -1.648  10.489  17.873  0.00  0.00    +0.000 C 
ATOM     19  F   UNL     1      -0.776   9.665  17.232  0.00  0.00    +0.000 F 
ATOM     20  F   UNL     1      -2.795   9.771  18.020  0.00  0.00    +0.000 F 
ATOM     21  F   UNL     1      -1.937  11.486  16.993  0.00  0.00    +0.000 F 
ENDBRANCH  15  18
ENDBRANCH   5   7
BRANCH   1  22
ATOM     22  C   UNL     1       3.492   5.108  19.489  0.00  0.00    +0.000 C 
BRANCH  22  28
ATOM     23  C   UNL     1       1.204   3.321  20.881  0.00  0.00    +0.000 C 
ATOM     24  N   UNL     1       1.750   3.194  19.561  0.00  0.00    +0.000 N 
ATOM     25  C   UNL     1       1.384   2.221  18.675  0.00  0.00    +0.000 A 
ATOM     26  N   UNL     1       2.057   2.358  17.561  0.00  0.00    +0.000 NA
ATOM     27  N   UNL     1       2.880   3.444  17.713  0.00  0.00    +0.000 NA
ATOM     28  C   UNL     1       2.700   3.949  18.919  0.00  0.00    +0.000 A 
ENDBRANCH  22  28
BRANCH  22  29
ATOM     29  C   UNL     1       4.894   5.189  18.810  0.00  0.00    +0.000 C 
BRANCH  29  30
ATOM     30  N   UNL     1       5.711   3.972  18.923  0.00  0.00    +0.000 NA
ATOM     31  H   UNL     1       5.458   3.466  19.771  0.00  0.00    +0.000 HD
ATOM     32  H   UNL     1       6.685   4.252  19.060  0.00  0.00    +0.000 HD
ENDBRANCH  29  30
ENDBRANCH  22  29
ENDBRANCH   1  22
TORSDOF 6
ENDMDL
MODEL 3
REMARK VINA RESULT:      -7.8      3.318      4.679
REMARK  Name = 
REMARK  7 active torsions:
REMARK  status: ('A' for Active; 'I' for Inactive)
REMARK    1  A    between atoms: C_1  and  N_2
REMARK    2  A    between atoms: C_6  and  C_7
REMARK    3  A    between atoms: C_7  and  C_8
REMARK    4  A    between atoms: C_7  and  C_10
REMARK    5  A    between atoms: C_8  and  N_9
REMARK    6  A    between atoms: C_14  and  N_15
REMARK    7  A    between atoms: C_23  and  C_24
REMARK                            x       y       z     vdW  Elec       q    Type
REMARK                         _______ _______ _______ _____ _____    ______ ____
ROOT
ATOM      1  C   UNL     1       2.073   8.077  19.500  0.00  0.00    +0.000 A 
ATOM      2  C   UNL     1       2.651   8.606  18.338  0.00  0.00    +0.000 A 
ATOM      3  C   UNL     1       3.076   7.768  17.314  0.00  0.00    +0.000 A 
ATOM      4  C   UNL     1       3.065   6.393  17.503  0.00  0.00    +0.000 A 
ATOM      5  C   UNL     1       2.853   5.890  18.792  0.00  0.00    +0.000 A 
ATOM      6  C   UNL     1       2.187   6.693  19.732  0.00  0.00    +0.000 A 
ENDROOT
BRANCH   5   7
ATOM      7  N   UNL     1       3.759   4.855  19.283  0.00  0.00    +0.000 N 
ATOM      8  C   UNL     1       5.134   5.398  19.396  0.00  0.00    +0.000 C 
ATOM      9  C   UNL     1       5.718   5.082  18.050  0.00  0.00    +0.000 A 
ATOM     10  C   UNL     1       5.052   3.943  17.570  0.00  0.00    +0.000 A 
ATOM     11  C   UNL     1       5.236   3.445  16.295  0.00  0.00    +0.000 A 
ATOM     12  C   UNL     1       6.115   4.139  15.475  0.00  0.00    +0.000 A 
ATOM     13  F   UNL     1       6.275   3.752  14.204  0.00  0.00    +0.000 F 
ATOM     14  C   UNL     1       6.774   5.296  15.920  0.00  0.00    +0.000 A 
ATOM     15  C   UNL     1       6.579   5.797  17.223  0.00  0.00    +0.000 A 
ATOM     16  C   UNL     1       3.880   3.704  18.450  0.00  0.00    +0.000 C 
ATOM     17  O   UNL     1       3.090   2.801  18.291  0.00  0.00    +0.000 OA
BRANCH  15  18
ATOM     18  C   UNL     1       7.201   7.117  17.595  0.00  0.00    +0.000 C 
ATOM     19  F   UNL     1       8.066   7.604  16.666  0.00  0.00    +0.000 F 
ATOM     20  F   UNL     1       6.266   8.090  17.776  0.00  0.00    +0.000 F 
ATOM     21  F   UNL     1       7.902   7.048  18.760  0.00  0.00    +0.000 F 
ENDBRANCH  15  18
ENDBRANCH   5   7
BRANCH   1  22
ATOM     22  C   UNL     1       1.358   9.023  20.452  0.00  0.00    +0.000 C 
BRANCH  22  28
ATOM     23  C   UNL     1       1.609  12.232  20.375  0.00  0.00    +0.000 C 
ATOM     24  N   UNL     1       0.627  11.403  19.739  0.00  0.00    +0.000 N 
ATOM     25  C   UNL     1      -0.418  11.884  19.003  0.00  0.00    +0.000 A 
ATOM     26  N   UNL     1      -1.143  10.892  18.557  0.00  0.00    +0.000 NA
ATOM     27  N   UNL     1      -0.566   9.731  19.004  0.00  0.00    +0.000 NA
ATOM     28  C   UNL     1       0.501  10.035  19.720  0.00  0.00    +0.000 A 
ENDBRANCH  22  28
BRANCH  22  29
ATOM     29  C   UNL     1       0.517   8.294  21.544  0.00  0.00    +0.000 C 
BRANCH  29  30
ATOM     30  N   UNL     1      -0.508   9.121  22.196  0.00  0.00    +0.000 NA
ATOM     31  H   UNL     1      -0.229  10.102  22.164  0.00  0.00    +0.000 HD
ATOM     32  H   UNL     1      -0.529   8.882  23.189  0.00  0.00    +0.000 HD
ENDBRANCH  29  30
ENDBRANCH  22  29
ENDBRANCH   1  22
TORSDOF 6
ENDMDL
MODEL 4
REMARK VINA RESULT:      -7.8      3.937      7.971
REMARK  Name = 
REMARK  7 active torsions:
REMARK  status: ('A' for Active; 'I' for Inactive)
REMARK    1  A    between atoms: C_1  and  N_2
REMARK    2  A    between atoms: C_6  and  C_7
REMARK    3  A    between atoms: C_7  and  C_8
REMARK    4  A    between atoms: C_7  and  C_10
REMARK    5  A    between atoms: C_8  and  N_9
REMARK    6  A    between atoms: C_14  and  N_15
REMARK    7  A    between atoms: C_23  and  C_24
REMARK                            x       y       z     vdW  Elec       q    Type
REMARK                         _______ _______ _______ _____ _____    ______ ____
ROOT
ATOM      1  C   UNL     1       2.628   6.256  18.913  0.00  0.00    +0.000 A 
ATOM      2  C   UNL     1       2.355   7.007  17.761  0.00  0.00    +0.000 A 
ATOM      3  C   UNL     1       2.056   8.360  17.853  0.00  0.00    +0.000 A 
ATOM      4  C   UNL     1       1.881   8.942  19.101  0.00  0.00    +0.000 A 
ATOM      5  C   UNL     1       1.774   8.112  20.224  0.00  0.00    +0.000 A 
ATOM      6  C   UNL     1       2.321   6.820  20.166  0.00  0.00    +0.000 A 
ENDROOT
BRANCH   5   7
ATOM      7  N   UNL     1       0.681   8.361  21.161  0.00  0.00    +0.000 N 
ATOM      8  C   UNL     1      -0.580   8.592  20.417  0.00  0.00    +0.000 C 
ATOM      9  C   UNL     1      -0.578  10.082  20.232  0.00  0.00    +0.000 A 
ATOM     10  C   UNL     1       0.151  10.627  21.300  0.00  0.00    +0.000 A 
ATOM     11  C   UNL     1       0.476  11.968  21.383  0.00  0.00    +0.000 A 
ATOM     12  C   UNL     1       0.059  12.776  20.334  0.00  0.00    +0.000 A 
ATOM     13  F   UNL     1       0.411  14.068  20.319  0.00  0.00    +0.000 F 
ATOM     14  C   UNL     1      -0.648  12.253  19.241  0.00  0.00    +0.000 A 
ATOM     15  C   UNL     1      -0.974  10.883  19.165  0.00  0.00    +0.000 A 
ATOM     16  C   UNL     1       0.840   9.508  21.992  0.00  0.00    +0.000 C 
ATOM     17  O   UNL     1       1.564   9.652  22.950  0.00  0.00    +0.000 OA
BRANCH  15  18
ATOM     18  C   UNL     1      -1.608  10.355  17.905  0.00  0.00    +0.000 C 
ATOM     19  F   UNL     1      -2.744   9.639  18.114  0.00  0.00    +0.000 F 
ATOM     20  F   UNL     1      -1.953  11.355  17.048  0.00  0.00    +0.000 F 
ATOM     21  F   UNL     1      -0.771   9.536  17.210  0.00  0.00    +0.000 F 
ENDBRANCH  15  18
ENDBRANCH   5   7
BRANCH   1  22
ATOM     22  C   UNL     1       3.236   4.871  18.752  0.00  0.00    +0.000 C 
BRANCH  22  28
ATOM     23  C   UNL     1       5.084   4.102  16.230  0.00  0.00    +0.000 C 
ATOM     24  N   UNL     1       5.496   4.551  17.529  0.00  0.00    +0.000 N 
ATOM     25  C   UNL     1       6.800   4.686  17.912  0.00  0.00    +0.000 A 
ATOM     26  N   UNL     1       6.859   5.106  19.149  0.00  0.00    +0.000 NA
ATOM     27  N   UNL     1       5.570   5.254  19.592  0.00  0.00    +0.000 NA
ATOM     28  C   UNL     1       4.744   4.918  18.618  0.00  0.00    +0.000 A 
ENDBRANCH  22  28
BRANCH  22  29
ATOM     29  C   UNL     1       2.825   3.873  19.877  0.00  0.00    +0.000 C 
BRANCH  29  30
ATOM     30  N   UNL     1       3.747   2.746  20.077  0.00  0.00    +0.000 NA
ATOM     31  H   UNL     1       4.029   2.368  19.172  0.00  0.00    +0.000 HD
ATOM     32  H   UNL     1       3.235   1.989  20.534  0.00  0.00    +0.000 HD
ENDBRANCH  29  30
ENDBRANCH  22  29
ENDBRANCH   1  22
TORSDOF 6
ENDMDL
MODEL 5
REMARK VINA RESULT:      -7.8      2.713      4.040
REMARK  Name = 
REMARK  7 active torsions:
REMARK  status: ('A' for Active; 'I' for Inactive)
REMARK    1  A    between atoms: C_1  and  N_2
REMARK    2  A    between atoms: C_6  and  C_7
REMARK    3  A    between atoms: C_7  and  C_8
REMARK    4  A    between atoms: C_7  and  C_10
REMARK    5  A    between atoms: C_8  and  N_9
REMARK    6  A    between atoms: C_14  and  N_15
REMARK    7  A    between atoms: C_23  and  C_24
REMARK                            x       y       z     vdW  Elec       q    Type
REMARK                         _______ _______ _______ _____ _____    ______ ____
ROOT
ATOM      1  C   UNL     1       1.119   9.214  19.787  0.00  0.00    +0.000 A 
ATOM      2  C   UNL     1       1.751   9.664  18.619  0.00  0.00    +0.000 A 
ATOM      3  C   UNL     1       2.371   8.768  17.759  0.00  0.00    +0.000 A 
ATOM      4  C   UNL     1       2.496   7.435  18.129  0.00  0.00    +0.000 A 
ATOM      5  C   UNL     1       2.210   7.072  19.451  0.00  0.00    +0.000 A 
ATOM      6  C   UNL     1       1.364   7.895  20.211  0.00  0.00    +0.000 A 
ENDROOT
BRANCH   5   7
ATOM      7  N   UNL     1       3.172   6.227  20.154  0.00  0.00    +0.000 N 
ATOM      8  C   UNL     1       4.386   6.042  19.323  0.00  0.00    +0.000 C 
ATOM      9  C   UNL     1       4.062   4.797  18.549  0.00  0.00    +0.000 A 
ATOM     10  C   UNL     1       3.177   4.043  19.335  0.00  0.00    +0.000 A 
ATOM     11  C   UNL     1       2.558   2.895  18.881  0.00  0.00    +0.000 A 
ATOM     12  C   UNL     1       2.838   2.511  17.577  0.00  0.00    +0.000 A 
ATOM     13  F   UNL     1       2.208   1.451  17.053  0.00  0.00    +0.000 F 
ATOM     14  C   UNL     1       3.697   3.261  16.759  0.00  0.00    +0.000 A 
ATOM     15  C   UNL     1       4.323   4.432  17.231  0.00  0.00    +0.000 A 
ATOM     16  C   UNL     1       2.721   4.908  20.453  0.00  0.00    +0.000 C 
ATOM     17  O   UNL     1       1.935   4.553  21.303  0.00  0.00    +0.000 OA
BRANCH  15  18
ATOM     18  C   UNL     1       5.120   5.271  16.267  0.00  0.00    +0.000 C 
ATOM     19  F   UNL     1       6.401   5.501  16.661  0.00  0.00    +0.000 F 
ATOM     20  F   UNL     1       5.209   4.692  15.039  0.00  0.00    +0.000 F 
ATOM     21  F   UNL     1       4.564   6.497  16.066  0.00  0.00    +0.000 F 
ENDBRANCH  15  18
ENDBRANCH   5   7
BRANCH   1  22
ATOM     22  C   UNL     1       0.208  10.173  20.536  0.00  0.00    +0.000 C 
BRANCH  22  28
ATOM     23  C   UNL     1      -1.326  13.001  20.665  0.00  0.00    +0.000 C 
ATOM     24  N   UNL     1      -1.565  11.901  19.776  0.00  0.00    +0.000 N 
ATOM     25  C   UNL     1      -2.552  11.882  18.833  0.00  0.00    +0.000 A 
ATOM     26  N   UNL     1      -2.525  10.748  18.183  0.00  0.00    +0.000 NA
ATOM     27  N   UNL     1      -1.498  10.004  18.703  0.00  0.00    +0.000 NA
ATOM     28  C   UNL     1      -0.917  10.695  19.666  0.00  0.00    +0.000 A 
ENDBRANCH  22  28
BRANCH  22  29
ATOM     29  C   UNL     1      -0.365   9.584  21.862  0.00  0.00    +0.000 C 
BRANCH  29  30
ATOM     30  N   UNL     1       0.334  10.006  23.084  0.00  0.00    +0.000 NA
ATOM     31  H   UNL     1      -0.287  10.580  23.654  0.00  0.00    +0.000 HD
ATOM     32  H   UNL     1       1.100  10.627  22.817  0.00  0.00    +0.000 HD
ENDBRANCH  29  30
ENDBRANCH  22  29
ENDBRANCH   1  22
TORSDOF 6
ENDMDL
MODEL 6
REMARK VINA RESULT:      -7.7      5.194      8.070
REMARK  Name = 
REMARK  7 active torsions:
REMARK  status: ('A' for Active; 'I' for Inactive)
REMARK    1  A    between atoms: C_1  and  N_2
REMARK    2  A    between atoms: C_6  and  C_7
REMARK    3  A    between atoms: C_7  and  C_8
REMARK    4  A    between atoms: C_7  and  C_10
REMARK    5  A    between atoms: C_8  and  N_9
REMARK    6  A    between atoms: C_14  and  N_15
REMARK    7  A    between atoms: C_23  and  C_24
REMARK                            x       y       z     vdW  Elec       q    Type
REMARK                         _______ _______ _______ _____ _____    ______ ____
ROOT
ATOM      1  C   UNL     1      -4.926  11.617  17.632  0.00  0.00    +0.000 A 
ATOM      2  C   UNL     1      -4.435  11.265  16.367  0.00  0.00    +0.000 A 
ATOM      3  C   UNL     1      -3.128  10.821  16.214  0.00  0.00    +0.000 A 
ATOM      4  C   UNL     1      -2.256  10.866  17.294  0.00  0.00    +0.000 A 
ATOM      5  C   UNL     1      -2.639  11.572  18.441  0.00  0.00    +0.000 A 
ATOM      6  C   UNL     1      -4.006  11.782  18.683  0.00  0.00    +0.000 A 
ENDROOT
BRANCH   5   7
ATOM      7  N   UNL     1      -1.680  12.508  19.023  0.00  0.00    +0.000 N 
ATOM      8  C   UNL     1      -0.301  12.122  18.640  0.00  0.00    +0.000 C 
ATOM      9  C   UNL     1       0.106  11.215  19.765  0.00  0.00    +0.000 A 
ATOM     10  C   UNL     1      -0.618  11.616  20.898  0.00  0.00    +0.000 A 
ATOM     11  C   UNL     1      -0.601  10.917  22.090  0.00  0.00    +0.000 A 
ATOM     12  C   UNL     1       0.168   9.761  22.122  0.00  0.00    +0.000 A 
ATOM     13  F   UNL     1       0.164   8.999  23.223  0.00  0.00    +0.000 F 
ATOM     14  C   UNL     1       0.881   9.322  20.996  0.00  0.00    +0.000 A 
ATOM     15  C   UNL     1       0.856  10.042  19.784  0.00  0.00    +0.000 A 
ATOM     16  C   UNL     1      -1.669  12.564  20.448  0.00  0.00    +0.000 C 
ATOM     17  O   UNL     1      -2.475  13.080  21.189  0.00  0.00    +0.000 OA
BRANCH  15  18
ATOM     18  C   UNL     1       1.524   9.449  18.572  0.00  0.00    +0.000 C 
ATOM     19  F   UNL     1       2.250   8.330  18.831  0.00  0.00    +0.000 F 
ATOM     20  F   UNL     1       0.623   9.093  17.615  0.00  0.00    +0.000 F 
ATOM     21  F   UNL     1       2.381  10.323  17.975  0.00  0.00    +0.000 F 
ENDBRANCH  15  18
ENDBRANCH   5   7
BRANCH   1  22
ATOM     22  C   UNL     1      -6.425  11.808  17.802  0.00  0.00    +0.000 C 
BRANCH  22  28
ATOM     23  C   UNL     1      -7.669  13.059  20.496  0.00  0.00    +0.000 C 
ATOM     24  N   UNL     1      -7.455  11.678  20.175  0.00  0.00    +0.000 N 
ATOM     25  C   UNL     1      -7.728  10.646  21.026  0.00  0.00    +0.000 A 
ATOM     26  N   UNL     1      -7.425   9.508  20.457  0.00  0.00    +0.000 NA
ATOM     27  N   UNL     1      -6.945   9.793  19.205  0.00  0.00    +0.000 NA
ATOM     28  C   UNL     1      -6.959  11.101  19.031  0.00  0.00    +0.000 A 
ENDBRANCH  22  28
BRANCH  22  29
ATOM     29  C   UNL     1      -6.870  13.303  17.804  0.00  0.00    +0.000 C 
BRANCH  29  30
ATOM     30  N   UNL     1      -7.134  13.876  16.477  0.00  0.00    +0.000 NA
ATOM     31  H   UNL     1      -7.972  13.451  16.080  0.00  0.00    +0.000 HD
ATOM     32  H   UNL     1      -6.374  13.601  15.852  0.00  0.00    +0.000 HD
ENDBRANCH  29  30
ENDBRANCH  22  29
ENDBRANCH   1  22
TORSDOF 6
ENDMDL
MODEL 7
REMARK VINA RESULT:      -7.7      5.611      7.964
REMARK  Name = 
REMARK  7 active torsions:
REMARK  status: ('A' for Active; 'I' for Inactive)
REMARK    1  A    between atoms: C_1  and  N_2
REMARK    2  A    between atoms: C_6  and  C_7
REMARK    3  A    between atoms: C_7  and  C_8
REMARK    4  A    between atoms: C_7  and  C_10
REMARK    5  A    between atoms: C_8  and  N_9
REMARK    6  A    between atoms: C_14  and  N_15
REMARK    7  A    between atoms: C_23  and  C_24
REMARK                            x       y       z     vdW  Elec       q    Type
REMARK                         _______ _______ _______ _____ _____    ______ ____
ROOT
ATOM      1  C   UNL     1      -3.884  11.121  17.807  0.00  0.00    +0.000 A 
ATOM      2  C   UNL     1      -3.677  10.573  16.533  0.00  0.00    +0.000 A 
ATOM      3  C   UNL     1      -2.515   9.868  16.247  0.00  0.00    +0.000 A 
ATOM      4  C   UNL     1      -1.487   9.830  17.180  0.00  0.00    +0.000 A 
ATOM      5  C   UNL     1      -1.543  10.692  18.282  0.00  0.00    +0.000 A 
ATOM      6  C   UNL     1      -2.792  11.188  18.691  0.00  0.00    +0.000 A 
ENDROOT
BRANCH   5   7
ATOM      7  N   UNL     1      -0.348  11.465  18.611  0.00  0.00    +0.000 N 
ATOM      8  C   UNL     1       0.448  10.753  19.639  0.00  0.00    +0.000 C 
ATOM      9  C   UNL     1      -0.103  11.312  20.919  0.00  0.00    +0.000 A 
ATOM     10  C   UNL     1      -0.574  12.602  20.634  0.00  0.00    +0.000 A 
ATOM     11  C   UNL     1      -1.274  13.368  21.547  0.00  0.00    +0.000 A 
ATOM     12  C   UNL     1      -1.514  12.792  22.787  0.00  0.00    +0.000 A 
ATOM     13  F   UNL     1      -2.254  13.453  23.687  0.00  0.00    +0.000 F 
ATOM     14  C   UNL     1      -1.078  11.493  23.090  0.00  0.00    +0.000 A 
ATOM     15  C   UNL     1      -0.366  10.720  22.151  0.00  0.00    +0.000 A 
ATOM     16  C   UNL     1      -0.590  12.759  19.157  0.00  0.00    +0.000 C 
ATOM     17  O   UNL     1      -0.963  13.761  18.589  0.00  0.00    +0.000 OA
BRANCH  15  18
ATOM     18  C   UNL     1      -0.047   9.285  22.481  0.00  0.00    +0.000 C 
ATOM     19  F   UNL     1      -0.835   8.382  21.840  0.00  0.00    +0.000 F 
ATOM     20  F   UNL     1       1.233   8.958  22.155  0.00  0.00    +0.000 F 
ATOM     21  F   UNL     1      -0.177   9.020  23.810  0.00  0.00    +0.000 F 
ENDBRANCH  15  18
ENDBRANCH   5   7
BRANCH   1  22
ATOM     22  C   UNL     1      -5.276  11.618  18.166  0.00  0.00    +0.000 C 
BRANCH  22  28
ATOM     23  C   UNL     1      -7.307  10.873  20.551  0.00  0.00    +0.000 C 
ATOM     24  N   UNL     1      -6.249  11.841  20.556  0.00  0.00    +0.000 N 
ATOM     25  C   UNL     1      -5.962  12.653  21.616  0.00  0.00    +0.000 A 
ATOM     26  N   UNL     1      -4.953  13.430  21.321  0.00  0.00    +0.000 NA
ATOM     27  N   UNL     1      -4.562  13.124  20.043  0.00  0.00    +0.000 NA
ATOM     28  C   UNL     1      -5.343  12.168  19.576  0.00  0.00    +0.000 A 
ENDBRANCH  22  28
BRANCH  22  29
ATOM     29  C   UNL     1      -5.850  12.657  17.154  0.00  0.00    +0.000 C 
BRANCH  29  30
ATOM     30  N   UNL     1      -6.263  13.938  17.745  0.00  0.00    +0.000 NA
ATOM     31  H   UNL     1      -7.248  14.109  17.540  0.00  0.00    +0.000 HD
ATOM     32  H   UNL     1      -5.758  14.688  17.269  0.00  0.00    +0.000 HD
ENDBRANCH  29  30
ENDBRANCH  22  29
ENDBRANCH   1  22
TORSDOF 6
ENDMDL
MODEL 8
REMARK VINA RESULT:      -7.6      4.215      8.218
REMARK  Name = 
REMARK  7 active torsions:
REMARK  status: ('A' for Active; 'I' for Inactive)
REMARK    1  A    between atoms: C_1  and  N_2
REMARK    2  A    between atoms: C_6  and  C_7
REMARK    3  A    between atoms: C_7  and  C_8
REMARK    4  A    between atoms: C_7  and  C_10
REMARK    5  A    between atoms: C_8  and  N_9
REMARK    6  A    between atoms: C_14  and  N_15
REMARK    7  A    between atoms: C_23  and  C_24
REMARK                            x       y       z     vdW  Elec       q    Type
REMARK                         _______ _______ _______ _____ _____    ______ ____
ROOT
ATOM      1  C   UNL     1       2.412   7.282  19.127  0.00  0.00    +0.000 A 
ATOM      2  C   UNL     1       2.228   8.015  17.947  0.00  0.00    +0.000 A 
ATOM      3  C   UNL     1       1.774   9.327  17.993  0.00  0.00    +0.000 A 
ATOM      4  C   UNL     1       1.358   9.868  19.202  0.00  0.00    +0.000 A 
ATOM      5  C   UNL     1       1.182   9.016  20.298  0.00  0.00    +0.000 A 
ATOM      6  C   UNL     1       1.869   7.791  20.321  0.00  0.00    +0.000 A 
ENDROOT
BRANCH   5   7
ATOM      7  N   UNL     1      -0.055   9.132  21.067  0.00  0.00    +0.000 N 
ATOM      8  C   UNL     1      -1.156   9.591  20.187  0.00  0.00    +0.000 C 
ATOM      9  C   UNL     1      -1.085  11.084  20.330  0.00  0.00    +0.000 A 
ATOM     10  C   UNL     1      -0.547  11.348  21.599  0.00  0.00    +0.000 A 
ATOM     11  C   UNL     1      -0.209  12.619  22.023  0.00  0.00    +0.000 A 
ATOM     12  C   UNL     1      -0.411  13.652  21.119  0.00  0.00    +0.000 A 
ATOM     13  F   UNL     1      -0.031  14.894  21.443  0.00  0.00    +0.000 F 
ATOM     14  C   UNL     1      -0.923  13.413  19.834  0.00  0.00    +0.000 A 
ATOM     15  C   UNL     1      -1.264  12.112  19.410  0.00  0.00    +0.000 A 
ATOM     16  C   UNL     1      -0.021  10.069  22.140  0.00  0.00    +0.000 C 
ATOM     17  O   UNL     1       0.523   9.965  23.216  0.00  0.00    +0.000 OA
BRANCH  15  18
ATOM     18  C   UNL     1      -1.673  11.898  17.977  0.00  0.00    +0.000 C 
ATOM     19  F   UNL     1      -1.317  10.686  17.474  0.00  0.00    +0.000 F 
ATOM     20  F   UNL     1      -3.021  11.986  17.811  0.00  0.00    +0.000 F 
ATOM     21  F   UNL     1      -1.130  12.825  17.140  0.00  0.00    +0.000 F 
ENDBRANCH  15  18
ENDBRANCH   5   7
BRANCH   1  22
ATOM     22  C   UNL     1       3.184   5.973  19.058  0.00  0.00    +0.000 C 
BRANCH  22  28
ATOM     23  C   UNL     1       2.105   3.956  21.324  0.00  0.00    +0.000 C 
ATOM     24  N   UNL     1       1.856   3.920  19.912  0.00  0.00    +0.000 N 
ATOM     25  C   UNL     1       1.119   2.952  19.292  0.00  0.00    +0.000 A 
ATOM     26  N   UNL     1       1.075   3.183  18.005  0.00  0.00    +0.000 NA
ATOM     27  N   UNL     1       1.793   4.327  17.771  0.00  0.00    +0.000 NA
ATOM     28  C   UNL     1       2.269   4.773  18.918  0.00  0.00    +0.000 A 
ENDBRANCH  22  28
BRANCH  22  29
ATOM     29  C   UNL     1       4.277   5.950  17.945  0.00  0.00    +0.000 C 
BRANCH  29  30
ATOM     30  N   UNL     1       4.865   4.629  17.678  0.00  0.00    +0.000 NA
ATOM     31  H   UNL     1       4.182   3.901  17.886  0.00  0.00    +0.000 HD
ATOM     32  H   UNL     1       5.626   4.478  18.343  0.00  0.00    +0.000 HD
ENDBRANCH  29  30
ENDBRANCH  22  29
ENDBRANCH   1  22
TORSDOF 6
ENDMDL
MODEL 9
REMARK VINA RESULT:      -7.6      4.640      8.441
REMARK  Name = 
REMARK  7 active torsions:
REMARK  status: ('A' for Active; 'I' for Inactive)
REMARK    1  A    between atoms: C_1  and  N_2
REMARK    2  A    between atoms: C_6  and  C_7
REMARK    3  A    between atoms: C_7  and  C_8
REMARK    4  A    between atoms: C_7  and  C_10
REMARK    5  A    between atoms: C_8  and  N_9
REMARK    6  A    between atoms: C_14  and  N_15
REMARK    7  A    between atoms: C_23  and  C_24
REMARK                            x       y       z     vdW  Elec       q    Type
REMARK                         _______ _______ _______ _____ _____    ______ ____
ROOT
ATOM      1  C   UNL     1       2.354   7.264  19.401  0.00  0.00    +0.000 A 
ATOM      2  C   UNL     1       2.580   7.870  18.157  0.00  0.00    +0.000 A 
ATOM      3  C   UNL     1       2.197   9.185  17.931  0.00  0.00    +0.000 A 
ATOM      4  C   UNL     1       1.455   9.860  18.891  0.00  0.00    +0.000 A 
ATOM      5  C   UNL     1       0.907   9.132  19.955  0.00  0.00    +0.000 A 
ATOM      6  C   UNL     1       1.494   7.907  20.310  0.00  0.00    +0.000 A 
ENDROOT
BRANCH   5   7
ATOM      7  N   UNL     1      -0.500   9.349  20.283  0.00  0.00    +0.000 N 
ATOM      8  C   UNL     1      -1.077  10.374  19.381  0.00  0.00    +0.000 C 
ATOM      9  C   UNL     1      -0.842  11.646  20.144  0.00  0.00    +0.000 A 
ATOM     10  C   UNL     1      -0.818  11.308  21.506  0.00  0.00    +0.000 A 
ATOM     11  C   UNL     1      -0.487  12.210  22.500  0.00  0.00    +0.000 A 
ATOM     12  C   UNL     1      -0.155  13.493  22.090  0.00  0.00    +0.000 A 
ATOM     13  F   UNL     1       0.251  14.390  22.998  0.00  0.00    +0.000 F 
ATOM     14  C   UNL     1      -0.144  13.851  20.733  0.00  0.00    +0.000 A 
ATOM     15  C   UNL     1      -0.482  12.923  19.727  0.00  0.00    +0.000 A 
ATOM     16  C   UNL     1      -0.752   9.827  21.602  0.00  0.00    +0.000 C 
ATOM     17  O   UNL     1      -0.703   9.220  22.647  0.00  0.00    +0.000 OA
BRANCH  15  18
ATOM     18  C   UNL     1      -0.316  13.323  18.284  0.00  0.00    +0.000 C 
ATOM     19  F   UNL     1      -1.214  12.744  17.442  0.00  0.00    +0.000 F 
ATOM     20  F   UNL     1      -0.454  14.665  18.106  0.00  0.00    +0.000 F 
ATOM     21  F   UNL     1       0.914  13.003  17.797  0.00  0.00    +0.000 F 
ENDBRANCH  15  18
ENDBRANCH   5   7
BRANCH   1  22
ATOM     22  C   UNL     1       3.046   5.944  19.703  0.00  0.00    +0.000 C 
BRANCH  22  28
ATOM     23  C   UNL     1       2.038   3.497  21.538  0.00  0.00    +0.000 C 
ATOM     24  N   UNL     1       1.810   3.710  20.138  0.00  0.00    +0.000 N 
ATOM     25  C   UNL     1       1.130   2.839  19.335  0.00  0.00    +0.000 A 
ATOM     26  N   UNL     1       1.091   3.300  18.112  0.00  0.00    +0.000 NA
ATOM     27  N   UNL     1       1.756   4.499  18.106  0.00  0.00    +0.000 NA
ATOM     28  C   UNL     1       2.193   4.749  19.326  0.00  0.00    +0.000 A 
ENDBRANCH  22  28
BRANCH  22  29
ATOM     29  C   UNL     1       4.462   5.818  19.063  0.00  0.00    +0.000 C 
BRANCH  29  30
ATOM     30  N   UNL     1       4.675   4.610  18.253  0.00  0.00    +0.000 NA
ATOM     31  H   UNL     1       4.223   3.812  18.701  0.00  0.00    +0.000 HD
ATOM     32  H   UNL     1       5.673   4.390  18.261  0.00  0.00    +0.000 HD
ENDBRANCH  29  30
ENDBRANCH  22  29
ENDBRANCH   1  22
TORSDOF 6
ENDMDL
