MODEL 1
REMARK VINA RESULT:      -8.2      0.000      0.000
REMARK  Name = 
REMARK  3 active torsions:
REMARK  status: ('A' for Active; 'I' for Inactive)
REMARK    1  A    between atoms: C_1  and  C_2
REMARK    2  A    between atoms: C_6  and  C_7
REMARK    3  A    between atoms: C_11  and  C_12
REMARK                            x       y       z     vdW  Elec       q    Type
REMARK                         _______ _______ _______ _____ _____    ______ ____
ROOT
ATOM      1  C   UNL     1       0.101  10.645  18.469  0.00  0.00    +0.000 C 
ATOM      2  O   UNL     1      -0.975  10.382  17.925  0.00  0.00    +0.000 OA
ATOM      3  N   UNL     1       0.482  11.963  18.659  0.00  0.00    +0.000 N 
ATOM      4  C   UNL     1       1.559  12.443  19.515  0.00  0.00    +0.000 C 
ATOM      5  C   UNL     1       1.414  13.941  19.445  0.00  0.00    +0.000 C 
ATOM      6  C   UNL     1      -0.115  14.116  19.463  0.00  0.00    +0.000 C 
ATOM      7  C   UNL     1      -0.471  13.088  18.374  0.00  0.00    +0.000 C 
ATOM      8  O   UNL     1      -0.369  15.526  19.356  0.00  0.00    +0.000 OA
ATOM      9  C   UNL     1      -0.174  16.071  20.719  0.00  0.00    +0.000 C 
ATOM     10  C   UNL     1      -0.599  14.936  21.593  0.00  0.00    +0.000 A 
ATOM     11  C   UNL     1      -0.838  14.846  22.951  0.00  0.00    +0.000 A 
ATOM     12  C   UNL     1      -1.371  13.650  23.454  0.00  0.00    +0.000 A 
ATOM     13  C   UNL     1      -1.705  12.595  22.595  0.00  0.00    +0.000 A 
ATOM     14  C   UNL     1      -1.393  12.677  21.247  0.00  0.00    +0.000 A 
ATOM     15  C   UNL     1      -0.750  13.817  20.788  0.00  0.00    +0.000 A 
ENDROOT
BRANCH   1  20
ATOM     16  C   UNL     1       2.367   7.539  18.794  0.00  0.00    +0.000 A 
ATOM     17  C   UNL     1       2.140   7.340  20.163  0.00  0.00    +0.000 A 
ATOM     18  N   UNL     1       1.351   8.118  20.936  0.00  0.00    +0.000 NA
ATOM     19  C   UNL     1       0.748   9.163  20.329  0.00  0.00    +0.000 A 
ATOM     20  C   UNL     1       0.884   9.492  18.983  0.00  0.00    +0.000 A 
ATOM     21  C   UNL     1       1.696   8.637  18.216  0.00  0.00    +0.000 A 
BRANCH  16  27
ATOM     22  C   UNL     1       3.797   2.900  17.449  0.00  0.00    +0.000 C 
ATOM     23  C   UNL     1       3.956   4.387  17.330  0.00  0.00    +0.000 A 
ATOM     24  C   UNL     1       4.902   4.937  16.462  0.00  0.00    +0.000 A 
ATOM     25  C   UNL     1       5.043   6.320  16.377  0.00  0.00    +0.000 A 
ATOM     26  C   UNL     1       4.240   7.157  17.152  0.00  0.00    +0.000 A 
ATOM     27  C   UNL     1       3.263   6.645  18.027  0.00  0.00    +0.000 A 
ATOM     28  C   UNL     1       3.149   5.241  18.104  0.00  0.00    +0.000 A 
ENDBRANCH  16  27
ENDBRANCH   1  20
TORSDOF 2
ENDMDL
MODEL 2
REMARK VINA RESULT:      -7.9      2.089      3.356
REMARK  Name = 
REMARK  3 active torsions:
REMARK  status: ('A' for Active; 'I' for Inactive)
REMARK    1  A    between atoms: C_1  and  C_2
REMARK    2  A    between atoms: C_6  and  C_7
REMARK    3  A    between atoms: C_11  and  C_12
REMARK                            x       y       z     vdW  Elec       q    Type
REMARK                         _______ _______ _______ _____ _____    ______ ____
ROOT
ATOM      1  C   UNL     1       0.768  10.175  20.676  0.00  0.00    +0.000 C 
ATOM      2  O   UNL     1       1.056  10.113  21.874  0.00  0.00    +0.000 OA
ATOM      3  N   UNL     1      -0.016  11.213  20.200  0.00  0.00    +0.000 N 
ATOM      4  C   UNL     1      -0.212  11.587  18.806  0.00  0.00    +0.000 C 
ATOM      5  C   UNL     1      -1.023  12.854  18.899  0.00  0.00    +0.000 C 
ATOM      6  C   UNL     1      -0.378  13.558  20.107  0.00  0.00    +0.000 C 
ATOM      7  C   UNL     1      -0.380  12.370  21.086  0.00  0.00    +0.000 C 
ATOM      8  O   UNL     1      -1.113  14.775  20.313  0.00  0.00    +0.000 OA
ATOM      9  C   UNL     1      -0.580  15.736  19.322  0.00  0.00    +0.000 C 
ATOM     10  C   UNL     1       0.848  15.318  19.190  0.00  0.00    +0.000 A 
ATOM     11  C   UNL     1       1.938  15.906  18.576  0.00  0.00    +0.000 A 
ATOM     12  C   UNL     1       3.199  15.318  18.755  0.00  0.00    +0.000 A 
ATOM     13  C   UNL     1       3.359  14.197  19.580  0.00  0.00    +0.000 A 
ATOM     14  C   UNL     1       2.246  13.580  20.130  0.00  0.00    +0.000 A 
ATOM     15  C   UNL     1       0.993  14.101  19.839  0.00  0.00    +0.000 A 
ENDROOT
BRANCH   1  20
ATOM     16  C   UNL     1       2.393   6.973  19.265  0.00  0.00    +0.000 A 
ATOM     17  C   UNL     1       2.628   7.486  17.981  0.00  0.00    +0.000 A 
ATOM     18  N   UNL     1       2.296   8.731  17.575  0.00  0.00    +0.000 NA
ATOM     19  C   UNL     1       1.692   9.525  18.485  0.00  0.00    +0.000 A 
ATOM     20  C   UNL     1       1.385   9.153  19.791  0.00  0.00    +0.000 A 
ATOM     21  C   UNL     1       1.773   7.855  20.172  0.00  0.00    +0.000 A 
BRANCH  16  27
ATOM     22  C   UNL     1       1.452   2.679  21.725  0.00  0.00    +0.000 C 
ATOM     23  C   UNL     1       2.315   3.467  20.784  0.00  0.00    +0.000 A 
ATOM     24  C   UNL     1       3.441   2.890  20.194  0.00  0.00    +0.000 A 
ATOM     25  C   UNL     1       4.237   3.643  19.334  0.00  0.00    +0.000 A 
ATOM     26  C   UNL     1       3.910   4.971  19.057  0.00  0.00    +0.000 A 
ATOM     27  C   UNL     1       2.774   5.587  19.618  0.00  0.00    +0.000 A 
ATOM     28  C   UNL     1       1.993   4.807  20.494  0.00  0.00    +0.000 A 
ENDBRANCH  16  27
ENDBRANCH   1  20
TORSDOF 2
ENDMDL
MODEL 3
REMARK VINA RESULT:      -7.9      0.401      1.238
REMARK  Name = 
REMARK  3 active torsions:
REMARK  status: ('A' for Active; 'I' for Inactive)
REMARK    1  A    between atoms: C_1  and  C_2
REMARK    2  A    between atoms: C_6  and  C_7
REMARK    3  A    between atoms: C_11  and  C_12
REMARK                            x       y       z     vdW  Elec       q    Type
REMARK                         _______ _______ _______ _____ _____    ______ ____
ROOT
ATOM      1  C   UNL     1       0.111  10.589  18.486  0.00  0.00    +0.000 C 
ATOM      2  O   UNL     1      -0.974  10.333  17.958  0.00  0.00    +0.000 OA
ATOM      3  N   UNL     1       0.519  11.904  18.638  0.00  0.00    +0.000 N 
ATOM      4  C   UNL     1       1.612  12.385  19.473  0.00  0.00    +0.000 C 
ATOM      5  C   UNL     1       1.496  13.883  19.365  0.00  0.00    +0.000 C 
ATOM      6  C   UNL     1      -0.030  14.088  19.390  0.00  0.00    +0.000 C 
ATOM      7  C   UNL     1      -0.414  13.040  18.331  0.00  0.00    +0.000 C 
ATOM      8  O   UNL     1      -0.257  15.500  19.248  0.00  0.00    +0.000 OA
ATOM      9  C   UNL     1      -0.040  16.076  20.594  0.00  0.00    +0.000 C 
ATOM     10  C   UNL     1      -0.480  14.973  21.501  0.00  0.00    +0.000 A 
ATOM     11  C   UNL     1      -0.709  14.924  22.863  0.00  0.00    +0.000 A 
ATOM     12  C   UNL     1      -1.260  13.752  23.402  0.00  0.00    +0.000 A 
ATOM     13  C   UNL     1      -1.622  12.682  22.574  0.00  0.00    +0.000 A 
ATOM     14  C   UNL     1      -1.319  12.722  21.221  0.00  0.00    +0.000 A 
ATOM     15  C   UNL     1      -0.658  13.837  20.728  0.00  0.00    +0.000 A 
ENDROOT
BRANCH   1  20
ATOM     16  C   UNL     1       2.244   7.397  18.870  0.00  0.00    +0.000 A 
ATOM     17  C   UNL     1       2.116   7.307  20.263  0.00  0.00    +0.000 A 
ATOM     18  N   UNL     1       1.428   8.178  21.033  0.00  0.00    +0.000 NA
ATOM     19  C   UNL     1       0.830   9.208  20.397  0.00  0.00    +0.000 A 
ATOM     20  C   UNL     1       0.876   9.435  19.024  0.00  0.00    +0.000 A 
ATOM     21  C   UNL     1       1.584   8.486  18.264  0.00  0.00    +0.000 A 
BRANCH  16  27
ATOM     22  C   UNL     1       6.412   6.163  16.325  0.00  0.00    +0.000 C 
ATOM     23  C   UNL     1       5.078   5.770  16.889  0.00  0.00    +0.000 A 
ATOM     24  C   UNL     1       4.601   4.465  16.752  0.00  0.00    +0.000 A 
ATOM     25  C   UNL     1       3.354   4.125  17.271  0.00  0.00    +0.000 A 
ATOM     26  C   UNL     1       2.583   5.082  17.932  0.00  0.00    +0.000 A 
ATOM     27  C   UNL     1       3.035   6.405  18.107  0.00  0.00    +0.000 A 
ATOM     28  C   UNL     1       4.294   6.727  17.561  0.00  0.00    +0.000 A 
ENDBRANCH  16  27
ENDBRANCH   1  20
TORSDOF 2
ENDMDL
MODEL 4
REMARK VINA RESULT:      -7.8      2.131      3.492
REMARK  Name = 
REMARK  3 active torsions:
REMARK  status: ('A' for Active; 'I' for Inactive)
REMARK    1  A    between atoms: C_1  and  C_2
REMARK    2  A    between atoms: C_6  and  C_7
REMARK    3  A    between atoms: C_11  and  C_12
REMARK                            x       y       z     vdW  Elec       q    Type
REMARK                         _______ _______ _______ _____ _____    ______ ____
ROOT
ATOM      1  C   UNL     1       0.825   9.655  21.493  0.00  0.00    +0.000 C 
ATOM      2  O   UNL     1       1.419   9.707  22.573  0.00  0.00    +0.000 OA
ATOM      3  N   UNL     1      -0.192  10.554  21.213  0.00  0.00    +0.000 N 
ATOM      4  C   UNL     1      -0.792  10.809  19.910  0.00  0.00    +0.000 C 
ATOM      5  C   UNL     1      -1.719  11.967  20.178  0.00  0.00    +0.000 C 
ATOM      6  C   UNL     1      -0.888  12.822  21.152  0.00  0.00    +0.000 C 
ATOM      7  C   UNL     1      -0.472  11.709  22.130  0.00  0.00    +0.000 C 
ATOM      8  O   UNL     1      -1.707  13.948  21.511  0.00  0.00    +0.000 OA
ATOM      9  C   UNL     1      -1.587  14.903  20.386  0.00  0.00    +0.000 C 
ATOM     10  C   UNL     1      -0.197  14.661  19.893  0.00  0.00    +0.000 A 
ATOM     11  C   UNL     1       0.604  15.342  18.995  0.00  0.00    +0.000 A 
ATOM     12  C   UNL     1       1.937  14.931  18.850  0.00  0.00    +0.000 A 
ATOM     13  C   UNL     1       2.459  13.895  19.636  0.00  0.00    +0.000 A 
ATOM     14  C   UNL     1       1.623  13.178  20.478  0.00  0.00    +0.000 A 
ATOM     15  C   UNL     1       0.278  13.517  20.514  0.00  0.00    +0.000 A 
ENDROOT
BRANCH   1  20
ATOM     16  C   UNL     1       2.058   6.443  19.748  0.00  0.00    +0.000 A 
ATOM     17  C   UNL     1       2.392   7.059  18.535  0.00  0.00    +0.000 A 
ATOM     18  N   UNL     1       2.236   8.375  18.268  0.00  0.00    +0.000 NA
ATOM     19  C   UNL     1       1.715   9.136  19.254  0.00  0.00    +0.000 A 
ATOM     20  C   UNL     1       1.328   8.666  20.506  0.00  0.00    +0.000 A 
ATOM     21  C   UNL     1       1.533   7.294  20.742  0.00  0.00    +0.000 A 
BRANCH  16  27
ATOM     22  C   UNL     1       3.308   1.915  17.928  0.00  0.00    +0.000 C 
ATOM     23  C   UNL     1       2.887   2.772  19.087  0.00  0.00    +0.000 A 
ATOM     24  C   UNL     1       2.726   2.222  20.360  0.00  0.00    +0.000 A 
ATOM     25  C   UNL     1       2.321   3.032  21.418  0.00  0.00    +0.000 A 
ATOM     26  C   UNL     1       2.080   4.390  21.211  0.00  0.00    +0.000 A 
ATOM     27  C   UNL     1       2.247   4.988  19.947  0.00  0.00    +0.000 A 
ATOM     28  C   UNL     1       2.645   4.144  18.890  0.00  0.00    +0.000 A 
ENDBRANCH  16  27
ENDBRANCH   1  20
TORSDOF 2
ENDMDL
MODEL 5
REMARK VINA RESULT:      -7.8      3.460      5.129
REMARK  Name = 
REMARK  3 active torsions:
REMARK  status: ('A' for Active; 'I' for Inactive)
REMARK    1  A    between atoms: C_1  and  C_2
REMARK    2  A    between atoms: C_6  and  C_7
REMARK    3  A    between atoms: C_11  and  C_12
REMARK                            x       y       z     vdW  Elec       q    Type
REMARK                         _______ _______ _______ _____ _____    ______ ____
ROOT
ATOM      1  C   UNL     1      -1.585  12.974  21.827  0.00  0.00    +0.000 C 
ATOM      2  O   UNL     1      -1.155  13.764  20.982  0.00  0.00    +0.000 OA
ATOM      3  N   UNL     1      -2.744  13.265  22.527  0.00  0.00    +0.000 N 
ATOM      4  C   UNL     1      -3.528  12.340  23.336  0.00  0.00    +0.000 C 
ATOM      5  C   UNL     1      -4.734  13.157  23.723  0.00  0.00    +0.000 C 
ATOM      6  C   UNL     1      -5.018  13.940  22.428  0.00  0.00    +0.000 C 
ATOM      7  C   UNL     1      -3.592  14.448  22.155  0.00  0.00    +0.000 C 
ATOM      8  O   UNL     1      -6.141  14.795  22.703  0.00  0.00    +0.000 OA
ATOM      9  C   UNL     1      -7.338  13.932  22.582  0.00  0.00    +0.000 C 
ATOM     10  C   UNL     1      -6.931  12.946  21.536  0.00  0.00    +0.000 A 
ATOM     11  C   UNL     1      -7.640  11.995  20.827  0.00  0.00    +0.000 A 
ATOM     12  C   UNL     1      -6.985  11.310  19.794  0.00  0.00    +0.000 A 
ATOM     13  C   UNL     1      -5.662  11.622  19.451  0.00  0.00    +0.000 A 
ATOM     14  C   UNL     1      -4.945  12.528  20.218  0.00  0.00    +0.000 A 
ATOM     15  C   UNL     1      -5.572  13.102  21.315  0.00  0.00    +0.000 A 
ENDROOT
BRANCH   1  20
ATOM     16  C   UNL     1       0.422   9.750  21.147  0.00  0.00    +0.000 A 
ATOM     17  C   UNL     1       0.318   9.240  22.448  0.00  0.00    +0.000 A 
ATOM     18  N   UNL     1      -0.319   9.855  23.470  0.00  0.00    +0.000 NA
ATOM     19  C   UNL     1      -0.887  11.049  23.199  0.00  0.00    +0.000 A 
ATOM     20  C   UNL     1      -0.858  11.686  21.961  0.00  0.00    +0.000 A 
ATOM     21  C   UNL     1      -0.205  10.993  20.925  0.00  0.00    +0.000 A 
BRANCH  16  27
ATOM     22  C   UNL     1       3.037   5.711  19.654  0.00  0.00    +0.000 C 
ATOM     23  C   UNL     1       2.406   7.034  19.332  0.00  0.00    +0.000 A 
ATOM     24  C   UNL     1       2.455   7.552  18.037  0.00  0.00    +0.000 A 
ATOM     25  C   UNL     1       1.875   8.789  17.762  0.00  0.00    +0.000 A 
ATOM     26  C   UNL     1       1.242   9.509  18.776  0.00  0.00    +0.000 A 
ATOM     27  C   UNL     1       1.156   9.015  20.092  0.00  0.00    +0.000 A 
ATOM     28  C   UNL     1       1.761   7.767  20.347  0.00  0.00    +0.000 A 
ENDBRANCH  16  27
ENDBRANCH   1  20
TORSDOF 2
ENDMDL
MODEL 6
REMARK VINA RESULT:      -7.8      2.132      3.245
REMARK  Name = 
REMARK  3 active torsions:
REMARK  status: ('A' for Active; 'I' for Inactive)
REMARK    1  A    between atoms: C_1  and  C_2
REMARK    2  A    between atoms: C_6  and  C_7
REMARK    3  A    between atoms: C_11  and  C_12
REMARK                            x       y       z     vdW  Elec       q    Type
REMARK                         _______ _______ _______ _____ _____    ______ ____
ROOT
ATOM      1  C   UNL     1       0.588  10.055  21.341  0.00  0.00    +0.000 C 
ATOM      2  O   UNL     1       1.177  10.078  22.425  0.00  0.00    +0.000 OA
ATOM      3  N   UNL     1      -0.486  10.900  21.113  0.00  0.00    +0.000 N 
ATOM      4  C   UNL     1      -1.101  11.197  19.826  0.00  0.00    +0.000 C 
ATOM      5  C   UNL     1      -2.104  12.271  20.162  0.00  0.00    +0.000 C 
ATOM      6  C   UNL     1      -1.332  13.116  21.192  0.00  0.00    +0.000 C 
ATOM      7  C   UNL     1      -0.843  11.974  22.100  0.00  0.00    +0.000 C 
ATOM      8  O   UNL     1      -2.225  14.160  21.617  0.00  0.00    +0.000 OA
ATOM      9  C   UNL     1      -2.168  15.190  20.555  0.00  0.00    +0.000 C 
ATOM     10  C   UNL     1      -0.766  15.073  20.055  0.00  0.00    +0.000 A 
ATOM     11  C   UNL     1      -0.011  15.861  19.205  0.00  0.00    +0.000 A 
ATOM     12  C   UNL     1       1.346  15.550  19.041  0.00  0.00    +0.000 A 
ATOM     13  C   UNL     1       1.936  14.503  19.762  0.00  0.00    +0.000 A 
ATOM     14  C   UNL     1       1.149  13.681  20.554  0.00  0.00    +0.000 A 
ATOM     15  C   UNL     1      -0.215  13.926  20.605  0.00  0.00    +0.000 A 
ENDROOT
BRANCH   1  20
ATOM     16  C   UNL     1       2.162   7.093  19.435  0.00  0.00    +0.000 A 
ATOM     17  C   UNL     1       2.293   7.764  18.211  0.00  0.00    +0.000 A 
ATOM     18  N   UNL     1       1.910   9.040  17.986  0.00  0.00    +0.000 NA
ATOM     19  C   UNL     1       1.360   9.701  19.027  0.00  0.00    +0.000 A 
ATOM     20  C   UNL     1       1.157   9.166  20.296  0.00  0.00    +0.000 A 
ATOM     21  C   UNL     1       1.594   7.842  20.486  0.00  0.00    +0.000 A 
BRANCH  16  27
ATOM     22  C   UNL     1       1.688   2.599  21.661  0.00  0.00    +0.000 C 
ATOM     23  C   UNL     1       2.354   3.471  20.637  0.00  0.00    +0.000 A 
ATOM     24  C   UNL     1       3.335   2.954  19.789  0.00  0.00    +0.000 A 
ATOM     25  C   UNL     1       3.952   3.783  18.855  0.00  0.00    +0.000 A 
ATOM     26  C   UNL     1       3.589   5.127  18.762  0.00  0.00    +0.000 A 
ATOM     27  C   UNL     1       2.593   5.685  19.587  0.00  0.00    +0.000 A 
ATOM     28  C   UNL     1       1.993   4.827  20.532  0.00  0.00    +0.000 A 
ENDBRANCH  16  27
ENDBRANCH   1  20
TORSDOF 2
ENDMDL
MODEL 7
REMARK VINA RESULT:      -7.7      2.058      3.349
REMARK  Name = 
REMARK  3 active torsions:
REMARK  status: ('A' for Active; 'I' for Inactive)
REMARK    1  A    between atoms: C_1  and  C_2
REMARK    2  A    between atoms: C_6  and  C_7
REMARK    3  A    between atoms: C_11  and  C_12
REMARK                            x       y       z     vdW  Elec       q    Type
REMARK                         _______ _______ _______ _____ _____    ______ ____
ROOT
ATOM      1  C   UNL     1       1.537  10.219  19.039  0.00  0.00    +0.000 C 
ATOM      2  O   UNL     1       2.099  10.700  18.051  0.00  0.00    +0.000 OA
ATOM      3  N   UNL     1       0.627  10.974  19.759  0.00  0.00    +0.000 N 
ATOM      4  C   UNL     1      -0.315  10.483  20.757  0.00  0.00    +0.000 C 
ATOM      5  C   UNL     1      -1.136  11.704  21.087  0.00  0.00    +0.000 C 
ATOM      6  C   UNL     1      -1.298  12.363  19.705  0.00  0.00    +0.000 C 
ATOM      7  C   UNL     1       0.174  12.316  19.259  0.00  0.00    +0.000 C 
ATOM      8  O   UNL     1      -2.041  13.576  19.914  0.00  0.00    +0.000 OA
ATOM      9  C   UNL     1      -3.459  13.163  20.014  0.00  0.00    +0.000 C 
ATOM     10  C   UNL     1      -3.521  11.972  19.115  0.00  0.00    +0.000 A 
ATOM     11  C   UNL     1      -4.580  11.234  18.617  0.00  0.00    +0.000 A 
ATOM     12  C   UNL     1      -4.308  10.240  17.666  0.00  0.00    +0.000 A 
ATOM     13  C   UNL     1      -3.006  10.038  17.190  0.00  0.00    +0.000 A 
ATOM     14  C   UNL     1      -1.949  10.737  17.752  0.00  0.00    +0.000 A 
ATOM     15  C   UNL     1      -2.221  11.626  18.781  0.00  0.00    +0.000 A 
ENDROOT
BRANCH   1  20
ATOM     16  C   UNL     1       2.620   6.522  18.816  0.00  0.00    +0.000 A 
ATOM     17  C   UNL     1       2.103   6.147  20.064  0.00  0.00    +0.000 A 
ATOM     18  N   UNL     1       1.474   6.981  20.921  0.00  0.00    +0.000 NA
ATOM     19  C   UNL     1       1.345   8.267  20.532  0.00  0.00    +0.000 A 
ATOM     20  C   UNL     1       1.815   8.789  19.330  0.00  0.00    +0.000 A 
ATOM     21  C   UNL     1       2.441   7.875  18.462  0.00  0.00    +0.000 A 
BRANCH  16  27
ATOM     22  C   UNL     1       6.159   5.465  15.391  0.00  0.00    +0.000 C 
ATOM     23  C   UNL     1       5.059   4.999  16.300  0.00  0.00    +0.000 A 
ATOM     24  C   UNL     1       4.721   3.647  16.376  0.00  0.00    +0.000 A 
ATOM     25  C   UNL     1       3.688   3.237  17.216  0.00  0.00    +0.000 A 
ATOM     26  C   UNL     1       2.993   4.173  17.983  0.00  0.00    +0.000 A 
ATOM     27  C   UNL     1       3.313   5.544  17.948  0.00  0.00    +0.000 A 
ATOM     28  C   UNL     1       4.354   5.934  17.081  0.00  0.00    +0.000 A 
ENDBRANCH  16  27
ENDBRANCH   1  20
TORSDOF 2
ENDMDL
MODEL 8
REMARK VINA RESULT:      -7.7      6.429      8.870
REMARK  Name = 
REMARK  3 active torsions:
REMARK  status: ('A' for Active; 'I' for Inactive)
REMARK    1  A    between atoms: C_1  and  C_2
REMARK    2  A    between atoms: C_6  and  C_7
REMARK    3  A    between atoms: C_11  and  C_12
REMARK                            x       y       z     vdW  Elec       q    Type
REMARK                         _______ _______ _______ _____ _____    ______ ____
ROOT
ATOM      1  C   UNL     1       4.638   6.413  17.069  0.00  0.00    +0.000 C 
ATOM      2  O   UNL     1       3.931   7.365  16.728  0.00  0.00    +0.000 OA
ATOM      3  N   UNL     1       4.536   5.892  18.348  0.00  0.00    +0.000 N 
ATOM      4  C   UNL     1       5.077   4.623  18.817  0.00  0.00    +0.000 C 
ATOM      5  C   UNL     1       4.538   4.515  20.220  0.00  0.00    +0.000 C 
ATOM      6  C   UNL     1       3.110   5.066  20.057  0.00  0.00    +0.000 C 
ATOM      7  C   UNL     1       3.452   6.350  19.281  0.00  0.00    +0.000 C 
ATOM      8  O   UNL     1       2.511   5.047  21.364  0.00  0.00    +0.000 OA
ATOM      9  C   UNL     1       2.072   3.650  21.581  0.00  0.00    +0.000 C 
ATOM     10  C   UNL     1       1.726   3.193  20.201  0.00  0.00    +0.000 A 
ATOM     11  C   UNL     1       1.083   2.064  19.728  0.00  0.00    +0.000 A 
ATOM     12  C   UNL     1       0.782   1.996  18.360  0.00  0.00    +0.000 A 
ATOM     13  C   UNL     1       1.074   3.067  17.505  0.00  0.00    +0.000 A 
ATOM     14  C   UNL     1       1.782   4.159  17.984  0.00  0.00    +0.000 A 
ATOM     15  C   UNL     1       2.183   4.153  19.312  0.00  0.00    +0.000 A 
ENDROOT
BRANCH   1  20
ATOM     16  C   UNL     1       5.977   4.440  14.035  0.00  0.00    +0.000 A 
ATOM     17  C   UNL     1       7.329   4.734  14.260  0.00  0.00    +0.000 A 
ATOM     18  N   UNL     1       7.795   5.499  15.272  0.00  0.00    +0.000 NA
ATOM     19  C   UNL     1       6.876   6.013  16.117  0.00  0.00    +0.000 A 
ATOM     20  C   UNL     1       5.501   5.817  16.017  0.00  0.00    +0.000 A 
ATOM     21  C   UNL     1       5.068   4.994  14.961  0.00  0.00    +0.000 A 
BRANCH  16  27
ATOM     22  C   UNL     1       2.937   3.657  10.095  0.00  0.00    +0.000 C 
ATOM     23  C   UNL     1       4.101   3.222  10.937  0.00  0.00    +0.000 A 
ATOM     24  C   UNL     1       4.824   2.071  10.616  0.00  0.00    +0.000 A 
ATOM     25  C   UNL     1       5.892   1.677  11.418  0.00  0.00    +0.000 A 
ATOM     26  C   UNL     1       6.245   2.431  12.538  0.00  0.00    +0.000 A 
ATOM     27  C   UNL     1       5.553   3.607  12.888  0.00  0.00    +0.000 A 
ATOM     28  C   UNL     1       4.469   3.977  12.067  0.00  0.00    +0.000 A 
ENDBRANCH  16  27
ENDBRANCH   1  20
TORSDOF 2
ENDMDL
MODEL 9
REMARK VINA RESULT:      -7.6      1.959      3.439
REMARK  Name = 
REMARK  3 active torsions:
REMARK  status: ('A' for Active; 'I' for Inactive)
REMARK    1  A    between atoms: C_1  and  C_2
REMARK    2  A    between atoms: C_6  and  C_7
REMARK    3  A    between atoms: C_11  and  C_12
REMARK                            x       y       z     vdW  Elec       q    Type
REMARK                         _______ _______ _______ _____ _____    ______ ____
ROOT
ATOM      1  C   UNL     1       0.826  10.427  20.614  0.00  0.00    +0.000 C 
ATOM      2  O   UNL     1       1.180  10.402  21.796  0.00  0.00    +0.000 OA
ATOM      3  N   UNL     1       0.060  11.479  20.138  0.00  0.00    +0.000 N 
ATOM      4  C   UNL     1      -0.200  11.803  18.741  0.00  0.00    +0.000 C 
ATOM      5  C   UNL     1      -0.950  13.108  18.824  0.00  0.00    +0.000 C 
ATOM      6  C   UNL     1      -0.207  13.831  19.963  0.00  0.00    +0.000 C 
ATOM      7  C   UNL     1      -0.203  12.687  20.991  0.00  0.00    +0.000 C 
ATOM      8  O   UNL     1      -0.878  15.088  20.156  0.00  0.00    +0.000 OA
ATOM      9  C   UNL     1      -0.362  15.983  19.095  0.00  0.00    +0.000 C 
ATOM     10  C   UNL     1       1.037  15.495  18.903  0.00  0.00    +0.000 A 
ATOM     11  C   UNL     1       2.114  16.008  18.203  0.00  0.00    +0.000 A 
ATOM     12  C   UNL     1       3.357  15.373  18.337  0.00  0.00    +0.000 A 
ATOM     13  C   UNL     1       3.517  14.281  19.201  0.00  0.00    +0.000 A 
ATOM     14  C   UNL     1       2.412  13.738  19.838  0.00  0.00    +0.000 A 
ATOM     15  C   UNL     1       1.168  14.302  19.594  0.00  0.00    +0.000 A 
ENDROOT
BRANCH   1  20
ATOM     16  C   UNL     1       2.065   7.050  19.219  0.00  0.00    +0.000 A 
ATOM     17  C   UNL     1       2.455   7.547  17.968  0.00  0.00    +0.000 A 
ATOM     18  N   UNL     1       2.333   8.834  17.577  0.00  0.00    +0.000 NA
ATOM     19  C   UNL     1       1.790   9.691  18.468  0.00  0.00    +0.000 A 
ATOM     20  C   UNL     1       1.347   9.344  19.742  0.00  0.00    +0.000 A 
ATOM     21  C   UNL     1       1.519   7.996  20.110  0.00  0.00    +0.000 A 
BRANCH  16  27
ATOM     22  C   UNL     1       3.259   2.349  17.859  0.00  0.00    +0.000 C 
ATOM     23  C   UNL     1       2.832   3.318  18.923  0.00  0.00    +0.000 A 
ATOM     24  C   UNL     1       2.632   2.894  20.237  0.00  0.00    +0.000 A 
ATOM     25  C   UNL     1       2.222   3.806  21.207  0.00  0.00    +0.000 A 
ATOM     26  C   UNL     1       2.014   5.144  20.867  0.00  0.00    +0.000 A 
ATOM     27  C   UNL     1       2.219   5.617  19.557  0.00  0.00    +0.000 A 
ATOM     28  C   UNL     1       2.622   4.670  18.593  0.00  0.00    +0.000 A 
ENDBRANCH  16  27
ENDBRANCH   1  20
TORSDOF 2
ENDMDL
