MODEL 1
REMARK VINA RESULT:      -8.3      0.000      0.000
REMARK  Name = 
REMARK  7 active torsions:
REMARK  status: ('A' for Active; 'I' for Inactive)
REMARK    1  A    between atoms: C_1  and  C_2
REMARK    2  A    between atoms: C_5  and  C_6
REMARK    3  A    between atoms: C_7  and  N_8
REMARK    4  A    between atoms: C_9  and  C_11
REMARK    5  A    between atoms: C_11  and  S_12
REMARK    6  A    between atoms: C_11  and  C_22
REMARK    7  A    between atoms: S_12  and  C_13
REMARK                            x       y       z     vdW  Elec       q    Type
REMARK                         _______ _______ _______ _____ _____    ______ ____
ROOT
ATOM      1  C   UNL     1       3.372   5.835  19.196  0.00  0.00    +0.000 C 
ENDROOT
BRANCH   1   2
ATOM      2  C   UNL     1       2.377   4.766  19.643  0.00  0.00    +0.000 A 
ATOM      3  C   UNL     1       1.582   4.091  18.698  0.00  0.00    +0.000 A 
ATOM      4  C   UNL     1       0.761   3.030  19.087  0.00  0.00    +0.000 A 
ATOM      5  C   UNL     1       0.718   2.629  20.421  0.00  0.00    +0.000 A 
ATOM      6  C   UNL     1       1.487   3.295  21.370  0.00  0.00    +0.000 A 
ATOM      7  C   UNL     1       2.312   4.350  20.985  0.00  0.00    +0.000 A 
ENDBRANCH   1   2
BRANCH   1   9
ATOM      8  N   UNL     1       4.530   5.839  16.999  0.00  0.00    +0.000 N 
ATOM      9  C   UNL     1       4.471   5.264  18.265  0.00  0.00    +0.000 C 
ATOM     10  O   UNL     1       5.238   4.366  18.638  0.00  0.00    +0.000 OA
ATOM     11  H   UNL     1       3.717   6.348  16.675  0.00  0.00    +0.000 HD
BRANCH   8  18
ATOM     12  C   UNL     1       5.590   3.350  12.827  0.00  0.00    +0.000 C 
ATOM     13  C   UNL     1       6.013   4.256  13.945  0.00  0.00    +0.000 A 
ATOM     14  C   UNL     1       7.340   4.669  14.060  0.00  0.00    +0.000 A 
ATOM     15  C   UNL     1       7.741   5.449  15.144  0.00  0.00    +0.000 A 
ATOM     16  C   UNL     1       6.827   5.842  16.139  0.00  0.00    +0.000 A 
ATOM     17  C   UNL     1       7.339   6.693  17.266  0.00  0.00    +0.000 C 
ATOM     18  C   UNL     1       5.482   5.446  16.022  0.00  0.00    +0.000 A 
ATOM     19  C   UNL     1       5.095   4.650  14.929  0.00  0.00    +0.000 A 
ENDBRANCH   8  18
ENDBRANCH   1   9
BRANCH   1  20
ATOM     20  S   UNL     1       2.418   7.159  18.306  0.00  0.00    +0.000 S 
BRANCH  20  21
ATOM     21  C   UNL     1       1.804   8.053  19.651  0.00  0.00    +0.000 A 
ATOM     22  N   UNL     1       1.995   7.741  20.913  0.00  0.00    +0.000 NA
ATOM     23  N   UNL     1       1.349   8.687  21.680  0.00  0.00    +0.000 NA
ATOM     24  C   UNL     1       0.798   9.561  20.864  0.00  0.00    +0.000 A 
ATOM     25  C   UNL     1       0.049  10.748  21.093  0.00  0.00    +0.000 A 
ATOM     26  C   UNL     1      -0.380  11.481  20.049  0.00  0.00    +0.000 A 
ATOM     27  C   UNL     1      -0.109  11.073  18.676  0.00  0.00    +0.000 A 
ATOM     28  C   UNL     1       0.597   9.949  18.456  0.00  0.00    +0.000 A 
ATOM     29  N   UNL     1       1.051   9.201  19.544  0.00  0.00    +0.000 N 
ENDBRANCH  20  21
ENDBRANCH   1  20
TORSDOF 5
ENDMDL
MODEL 2
REMARK VINA RESULT:      -8.2      4.598      7.975
REMARK  Name = 
REMARK  7 active torsions:
REMARK  status: ('A' for Active; 'I' for Inactive)
REMARK    1  A    between atoms: C_1  and  C_2
REMARK    2  A    between atoms: C_5  and  C_6
REMARK    3  A    between atoms: C_7  and  N_8
REMARK    4  A    between atoms: C_9  and  C_11
REMARK    5  A    between atoms: C_11  and  S_12
REMARK    6  A    between atoms: C_11  and  C_22
REMARK    7  A    between atoms: S_12  and  C_13
REMARK                            x       y       z     vdW  Elec       q    Type
REMARK                         _______ _______ _______ _____ _____    ______ ____
ROOT
ATOM      1  C   UNL     1       0.798  10.568  19.971  0.00  0.00    +0.000 C 
ENDROOT
BRANCH   1   2
ATOM      2  C   UNL     1       1.377   9.217  19.555  0.00  0.00    +0.000 A 
ATOM      3  C   UNL     1       1.896   9.031  18.261  0.00  0.00    +0.000 A 
ATOM      4  C   UNL     1       2.536   7.838  17.916  0.00  0.00    +0.000 A 
ATOM      5  C   UNL     1       2.665   6.814  18.853  0.00  0.00    +0.000 A 
ATOM      6  C   UNL     1       2.143   6.977  20.133  0.00  0.00    +0.000 A 
ATOM      7  C   UNL     1       1.510   8.168  20.483  0.00  0.00    +0.000 A 
ENDBRANCH   1   2
BRANCH   1   9
ATOM      8  N   UNL     1      -1.354  10.318  18.758  0.00  0.00    +0.000 N 
ATOM      9  C   UNL     1      -0.226  11.111  18.943  0.00  0.00    +0.000 C 
ATOM     10  O   UNL     1      -0.042  12.179  18.344  0.00  0.00    +0.000 OA
ATOM     11  H   UNL     1      -1.305   9.351  19.056  0.00  0.00    +0.000 HD
BRANCH   8  18
ATOM     12  C   UNL     1      -3.373  10.027  14.223  0.00  0.00    +0.000 C 
ATOM     13  C   UNL     1      -3.429  10.504  15.644  0.00  0.00    +0.000 A 
ATOM     14  C   UNL     1      -4.467  11.329  16.075  0.00  0.00    +0.000 A 
ATOM     15  C   UNL     1      -4.470  11.830  17.377  0.00  0.00    +0.000 A 
ATOM     16  C   UNL     1      -3.442  11.515  18.284  0.00  0.00    +0.000 A 
ATOM     17  C   UNL     1      -3.529  12.086  19.670  0.00  0.00    +0.000 C 
ATOM     18  C   UNL     1      -2.400  10.668  17.863  0.00  0.00    +0.000 A 
ATOM     19  C   UNL     1      -2.403  10.181  16.544  0.00  0.00    +0.000 A 
ENDBRANCH   8  18
ENDBRANCH   1   9
BRANCH   1  20
ATOM     20  S   UNL     1      -0.026  10.345  21.623  0.00  0.00    +0.000 S 
BRANCH  20  21
ATOM     21  C   UNL     1      -0.294  11.996  22.057  0.00  0.00    +0.000 A 
ATOM     22  N   UNL     1       0.507  12.994  21.758  0.00  0.00    +0.000 NA
ATOM     23  N   UNL     1      -0.045  14.144  22.278  0.00  0.00    +0.000 NA
ATOM     24  C   UNL     1      -1.179  13.819  22.864  0.00  0.00    +0.000 A 
ATOM     25  C   UNL     1      -2.172  14.591  23.529  0.00  0.00    +0.000 A 
ATOM     26  C   UNL     1      -3.270  13.989  24.023  0.00  0.00    +0.000 A 
ATOM     27  C   UNL     1      -3.457  12.547  23.908  0.00  0.00    +0.000 A 
ATOM     28  C   UNL     1      -2.518  11.813  23.283  0.00  0.00    +0.000 A 
ATOM     29  N   UNL     1      -1.390  12.448  22.761  0.00  0.00    +0.000 N 
ENDBRANCH  20  21
ENDBRANCH   1  20
TORSDOF 5
ENDMDL
MODEL 3
REMARK VINA RESULT:      -8.1      1.263      1.349
REMARK  Name = 
REMARK  7 active torsions:
REMARK  status: ('A' for Active; 'I' for Inactive)
REMARK    1  A    between atoms: C_1  and  C_2
REMARK    2  A    between atoms: C_5  and  C_6
REMARK    3  A    between atoms: C_7  and  N_8
REMARK    4  A    between atoms: C_9  and  C_11
REMARK    5  A    between atoms: C_11  and  S_12
REMARK    6  A    between atoms: C_11  and  C_22
REMARK    7  A    between atoms: S_12  and  C_13
REMARK                            x       y       z     vdW  Elec       q    Type
REMARK                         _______ _______ _______ _____ _____    ______ ____
ROOT
ATOM      1  C   UNL     1       2.750   6.717  19.333  0.00  0.00    +0.000 C 
ENDROOT
BRANCH   1   2
ATOM      2  C   UNL     1       2.083   5.385  19.671  0.00  0.00    +0.000 A 
ATOM      3  C   UNL     1       1.507   4.598  18.657  0.00  0.00    +0.000 A 
ATOM      4  C   UNL     1       1.005   3.326  18.944  0.00  0.00    +0.000 A 
ATOM      5  C   UNL     1       1.067   2.823  20.242  0.00  0.00    +0.000 A 
ATOM      6  C   UNL     1       1.620   3.595  21.259  0.00  0.00    +0.000 A 
ATOM      7  C   UNL     1       2.127   4.862  20.976  0.00  0.00    +0.000 A 
ENDBRANCH   1   2
BRANCH   1   9
ATOM      8  N   UNL     1       4.371   5.326  18.067  0.00  0.00    +0.000 N 
ATOM      9  C   UNL     1       3.786   6.582  18.189  0.00  0.00    +0.000 C 
ATOM     10  O   UNL     1       4.058   7.532  17.442  0.00  0.00    +0.000 OA
ATOM     11  H   UNL     1       4.317   4.702  18.862  0.00  0.00    +0.000 HD
BRANCH   8  18
ATOM     12  C   UNL     1       5.387   3.829  13.435  0.00  0.00    +0.000 C 
ATOM     13  C   UNL     1       5.850   4.321  14.774  0.00  0.00    +0.000 A 
ATOM     14  C   UNL     1       7.210   4.427  15.059  0.00  0.00    +0.000 A 
ATOM     15  C   UNL     1       7.632   4.813  16.332  0.00  0.00    +0.000 A 
ATOM     16  C   UNL     1       6.707   5.107  17.350  0.00  0.00    +0.000 A 
ATOM     17  C   UNL     1       7.246   5.527  18.689  0.00  0.00    +0.000 C 
ATOM     18  C   UNL     1       5.332   5.020  17.067  0.00  0.00    +0.000 A 
ATOM     19  C   UNL     1       4.922   4.619  15.783  0.00  0.00    +0.000 A 
ENDBRANCH   8  18
ENDBRANCH   1   9
BRANCH   1  20
ATOM     20  S   UNL     1       1.414   7.909  18.834  0.00  0.00    +0.000 S 
BRANCH  20  21
ATOM     21  C   UNL     1       1.128   8.701  20.343  0.00  0.00    +0.000 A 
ATOM     22  N   UNL     1       1.718   8.396  21.477  0.00  0.00    +0.000 NA
ATOM     23  N   UNL     1       1.226   9.244  22.446  0.00  0.00    +0.000 NA
ATOM     24  C   UNL     1       0.364  10.056  21.871  0.00  0.00    +0.000 A 
ATOM     25  C   UNL     1      -0.412  11.139  22.368  0.00  0.00    +0.000 A 
ATOM     26  C   UNL     1      -1.211  11.830  21.534  0.00  0.00    +0.000 A 
ATOM     27  C   UNL     1      -1.314  11.479  20.122  0.00  0.00    +0.000 A 
ATOM     28  C   UNL     1      -0.584  10.453  19.649  0.00  0.00    +0.000 A 
ATOM     29  N   UNL     1       0.253   9.750  20.518  0.00  0.00    +0.000 N 
ENDBRANCH  20  21
ENDBRANCH   1  20
TORSDOF 5
ENDMDL
MODEL 4
REMARK VINA RESULT:      -8.1      1.099      1.470
REMARK  Name = 
REMARK  7 active torsions:
REMARK  status: ('A' for Active; 'I' for Inactive)
REMARK    1  A    between atoms: C_1  and  C_2
REMARK    2  A    between atoms: C_5  and  C_6
REMARK    3  A    between atoms: C_7  and  N_8
REMARK    4  A    between atoms: C_9  and  C_11
REMARK    5  A    between atoms: C_11  and  S_12
REMARK    6  A    between atoms: C_11  and  C_22
REMARK    7  A    between atoms: S_12  and  C_13
REMARK                            x       y       z     vdW  Elec       q    Type
REMARK                         _______ _______ _______ _____ _____    ______ ____
ROOT
ATOM      1  C   UNL     1       2.887   6.666  18.961  0.00  0.00    +0.000 C 
ENDROOT
BRANCH   1   2
ATOM      2  C   UNL     1       2.262   5.316  19.304  0.00  0.00    +0.000 A 
ATOM      3  C   UNL     1       2.218   4.867  20.637  0.00  0.00    +0.000 A 
ATOM      4  C   UNL     1       1.540   3.692  20.970  0.00  0.00    +0.000 A 
ATOM      5  C   UNL     1       0.899   2.947  19.981  0.00  0.00    +0.000 A 
ATOM      6  C   UNL     1       0.945   3.370  18.656  0.00  0.00    +0.000 A 
ATOM      7  C   UNL     1       1.615   4.545  18.320  0.00  0.00    +0.000 A 
ENDBRANCH   1   2
BRANCH   1   9
ATOM      8  N   UNL     1       4.473   5.322  17.603  0.00  0.00    +0.000 N 
ATOM      9  C   UNL     1       3.884   6.570  17.779  0.00  0.00    +0.000 C 
ATOM     10  O   UNL     1       4.123   7.542  17.049  0.00  0.00    +0.000 OA
ATOM     11  H   UNL     1       4.450   4.677  18.383  0.00  0.00    +0.000 HD
BRANCH   8  18
ATOM     12  C   UNL     1       5.368   3.647  13.007  0.00  0.00    +0.000 C 
ATOM     13  C   UNL     1       5.854   4.264  14.285  0.00  0.00    +0.000 A 
ATOM     14  C   UNL     1       7.211   4.522  14.477  0.00  0.00    +0.000 A 
ATOM     15  C   UNL     1       7.663   5.025  15.697  0.00  0.00    +0.000 A 
ATOM     16  C   UNL     1       6.774   5.290  16.753  0.00  0.00    +0.000 A 
ATOM     17  C   UNL     1       7.343   5.843  18.029  0.00  0.00    +0.000 C 
ATOM     18  C   UNL     1       5.401   5.051  16.563  0.00  0.00    +0.000 A 
ATOM     19  C   UNL     1       4.960   4.532  15.332  0.00  0.00    +0.000 A 
ENDBRANCH   8  18
ENDBRANCH   1   9
BRANCH   1  20
ATOM     20  S   UNL     1       1.508   7.835  18.527  0.00  0.00    +0.000 S 
BRANCH  20  21
ATOM     21  C   UNL     1       1.216   8.554  20.072  0.00  0.00    +0.000 A 
ATOM     22  N   UNL     1       1.786   8.181  21.195  0.00  0.00    +0.000 NA
ATOM     23  N   UNL     1       1.296   8.987  22.201  0.00  0.00    +0.000 NA
ATOM     24  C   UNL     1       0.455   9.843  21.658  0.00  0.00    +0.000 A 
ATOM     25  C   UNL     1      -0.309  10.912  22.201  0.00  0.00    +0.000 A 
ATOM     26  C   UNL     1      -1.085  11.659  21.393  0.00  0.00    +0.000 A 
ATOM     27  C   UNL     1      -1.176  11.382  19.964  0.00  0.00    +0.000 A 
ATOM     28  C   UNL     1      -0.457  10.368  19.448  0.00  0.00    +0.000 A 
ATOM     29  N   UNL     1       0.357   9.608  20.290  0.00  0.00    +0.000 N 
ENDBRANCH  20  21
ENDBRANCH   1  20
TORSDOF 5
ENDMDL
MODEL 5
REMARK VINA RESULT:      -8.0      1.715      7.259
REMARK  Name = 
REMARK  7 active torsions:
REMARK  status: ('A' for Active; 'I' for Inactive)
REMARK    1  A    between atoms: C_1  and  C_2
REMARK    2  A    between atoms: C_5  and  C_6
REMARK    3  A    between atoms: C_7  and  N_8
REMARK    4  A    between atoms: C_9  and  C_11
REMARK    5  A    between atoms: C_11  and  S_12
REMARK    6  A    between atoms: C_11  and  C_22
REMARK    7  A    between atoms: S_12  and  C_13
REMARK                            x       y       z     vdW  Elec       q    Type
REMARK                         _______ _______ _______ _____ _____    ______ ____
ROOT
ATOM      1  C   UNL     1       3.123   6.117  18.128  0.00  0.00    +0.000 C 
ENDROOT
BRANCH   1   2
ATOM      2  C   UNL     1       2.208   5.072  18.764  0.00  0.00    +0.000 A 
ATOM      3  C   UNL     1       1.567   4.105  17.967  0.00  0.00    +0.000 A 
ATOM      4  C   UNL     1       0.829   3.075  18.556  0.00  0.00    +0.000 A 
ATOM      5  C   UNL     1       0.716   2.996  19.943  0.00  0.00    +0.000 A 
ATOM      6  C   UNL     1       1.332   3.953  20.744  0.00  0.00    +0.000 A 
ATOM      7  C   UNL     1       2.074   4.979  20.161  0.00  0.00    +0.000 A 
ENDBRANCH   1   2
BRANCH   1   9
ATOM      8  N   UNL     1       1.941   7.894  19.397  0.00  0.00    +0.000 N 
ATOM      9  C   UNL     1       2.515   7.541  18.180  0.00  0.00    +0.000 C 
ATOM     10  O   UNL     1       2.552   8.300  17.202  0.00  0.00    +0.000 OA
ATOM     11  H   UNL     1       1.700   7.148  20.038  0.00  0.00    +0.000 HD
BRANCH   8  18
ATOM     12  C   UNL     1       1.634  12.729  18.275  0.00  0.00    +0.000 C 
ATOM     13  C   UNL     1       1.158  11.542  19.059  0.00  0.00    +0.000 A 
ATOM     14  C   UNL     1       0.181  11.688  20.043  0.00  0.00    +0.000 A 
ATOM     15  C   UNL     1      -0.201  10.594  20.820  0.00  0.00    +0.000 A 
ATOM     16  C   UNL     1       0.376   9.326  20.630  0.00  0.00    +0.000 A 
ATOM     17  C   UNL     1      -0.102   8.199  21.500  0.00  0.00    +0.000 C 
ATOM     18  C   UNL     1       1.349   9.164  19.626  0.00  0.00    +0.000 A 
ATOM     19  C   UNL     1       1.733  10.279  18.860  0.00  0.00    +0.000 A 
ENDBRANCH   8  18
ENDBRANCH   1   9
BRANCH   1  20
ATOM     20  S   UNL     1       4.738   6.088  19.047  0.00  0.00    +0.000 S 
BRANCH  20  21
ATOM     21  C   UNL     1       5.847   6.111  17.721  0.00  0.00    +0.000 A 
ATOM     22  N   UNL     1       6.864   6.935  17.605  0.00  0.00    +0.000 NA
ATOM     23  N   UNL     1       7.503   6.646  16.418  0.00  0.00    +0.000 NA
ATOM     24  C   UNL     1       6.869   5.639  15.853  0.00  0.00    +0.000 A 
ATOM     25  C   UNL     1       7.100   4.912  14.653  0.00  0.00    +0.000 A 
ATOM     26  C   UNL     1       6.290   3.888  14.323  0.00  0.00    +0.000 A 
ATOM     27  C   UNL     1       5.159   3.517  15.166  0.00  0.00    +0.000 A 
ATOM     28  C   UNL     1       4.935   4.206  16.300  0.00  0.00    +0.000 A 
ATOM     29  N   UNL     1       5.789   5.257  16.642  0.00  0.00    +0.000 N 
ENDBRANCH  20  21
ENDBRANCH   1  20
TORSDOF 5
ENDMDL
MODEL 6
REMARK VINA RESULT:      -7.8      5.147      8.988
REMARK  Name = 
REMARK  7 active torsions:
REMARK  status: ('A' for Active; 'I' for Inactive)
REMARK    1  A    between atoms: C_1  and  C_2
REMARK    2  A    between atoms: C_5  and  C_6
REMARK    3  A    between atoms: C_7  and  N_8
REMARK    4  A    between atoms: C_9  and  C_11
REMARK    5  A    between atoms: C_11  and  S_12
REMARK    6  A    between atoms: C_11  and  C_22
REMARK    7  A    between atoms: S_12  and  C_13
REMARK                            x       y       z     vdW  Elec       q    Type
REMARK                         _______ _______ _______ _____ _____    ______ ____
ROOT
ATOM      1  C   UNL     1       0.366  11.350  20.182  0.00  0.00    +0.000 C 
ENDROOT
BRANCH   1   2
ATOM      2  C   UNL     1       1.090  10.131  19.617  0.00  0.00    +0.000 A 
ATOM      3  C   UNL     1       1.275   8.981  20.406  0.00  0.00    +0.000 A 
ATOM      4  C   UNL     1       1.828   7.821  19.855  0.00  0.00    +0.000 A 
ATOM      5  C   UNL     1       2.205   7.792  18.514  0.00  0.00    +0.000 A 
ATOM      6  C   UNL     1       2.042   8.926  17.724  0.00  0.00    +0.000 A 
ATOM      7  C   UNL     1       1.486  10.083  18.267  0.00  0.00    +0.000 A 
ENDBRANCH   1   2
BRANCH   1   9
ATOM      8  N   UNL     1      -1.925  11.013  19.286  0.00  0.00    +0.000 N 
ATOM      9  C   UNL     1      -0.794  11.822  19.269  0.00  0.00    +0.000 C 
ATOM     10  O   UNL     1      -0.706  12.850  18.585  0.00  0.00    +0.000 OA
ATOM     11  H   UNL     1      -1.824  10.068  19.635  0.00  0.00    +0.000 HD
BRANCH   8  18
ATOM     12  C   UNL     1      -6.401  13.156  18.953  0.00  0.00    +0.000 C 
ATOM     13  C   UNL     1      -5.277  12.384  18.326  0.00  0.00    +0.000 A 
ATOM     14  C   UNL     1      -5.389  11.903  17.022  0.00  0.00    +0.000 A 
ATOM     15  C   UNL     1      -4.371  11.122  16.474  0.00  0.00    +0.000 A 
ATOM     16  C   UNL     1      -3.215  10.805  17.210  0.00  0.00    +0.000 A 
ATOM     17  C   UNL     1      -2.163   9.968  16.540  0.00  0.00    +0.000 C 
ATOM     18  C   UNL     1      -3.086  11.300  18.520  0.00  0.00    +0.000 A 
ATOM     19  C   UNL     1      -4.125  12.077  19.064  0.00  0.00    +0.000 A 
ENDBRANCH   8  18
ENDBRANCH   1   9
BRANCH   1  20
ATOM     20  S   UNL     1      -0.299  10.888  21.855  0.00  0.00    +0.000 S 
BRANCH  20  21
ATOM     21  C   UNL     1      -0.618  12.457  22.505  0.00  0.00    +0.000 A 
ATOM     22  N   UNL     1       0.194  13.486  22.420  0.00  0.00    +0.000 NA
ATOM     23  N   UNL     1      -0.409  14.549  23.057  0.00  0.00    +0.000 NA
ATOM     24  C   UNL     1      -1.582  14.143  23.497  0.00  0.00    +0.000 A 
ATOM     25  C   UNL     1      -2.633  14.811  24.186  0.00  0.00    +0.000 A 
ATOM     26  C   UNL     1      -3.760  14.144  24.497  0.00  0.00    +0.000 A 
ATOM     27  C   UNL     1      -3.923  12.735  24.157  0.00  0.00    +0.000 A 
ATOM     28  C   UNL     1      -2.930  12.100  23.509  0.00  0.00    +0.000 A 
ATOM     29  N   UNL     1      -1.770  12.802  23.177  0.00  0.00    +0.000 N 
ENDBRANCH  20  21
ENDBRANCH   1  20
TORSDOF 5
ENDMDL
MODEL 7
REMARK VINA RESULT:      -7.7      3.738      8.533
REMARK  Name = 
REMARK  7 active torsions:
REMARK  status: ('A' for Active; 'I' for Inactive)
REMARK    1  A    between atoms: C_1  and  C_2
REMARK    2  A    between atoms: C_5  and  C_6
REMARK    3  A    between atoms: C_7  and  N_8
REMARK    4  A    between atoms: C_9  and  C_11
REMARK    5  A    between atoms: C_11  and  S_12
REMARK    6  A    between atoms: C_11  and  C_22
REMARK    7  A    between atoms: S_12  and  C_13
REMARK                            x       y       z     vdW  Elec       q    Type
REMARK                         _______ _______ _______ _____ _____    ______ ____
ROOT
ATOM      1  C   UNL     1       0.654  10.506  18.675  0.00  0.00    +0.000 C 
ENDROOT
BRANCH   1   2
ATOM      2  C   UNL     1      -0.850  10.644  18.441  0.00  0.00    +0.000 A 
ATOM      3  C   UNL     1      -1.603  11.581  19.172  0.00  0.00    +0.000 A 
ATOM      4  C   UNL     1      -2.952  11.795  18.877  0.00  0.00    +0.000 A 
ATOM      5  C   UNL     1      -3.568  11.078  17.853  0.00  0.00    +0.000 A 
ATOM      6  C   UNL     1      -2.841  10.137  17.131  0.00  0.00    +0.000 A 
ATOM      7  C   UNL     1      -1.494   9.924  17.418  0.00  0.00    +0.000 A 
ENDBRANCH   1   2
BRANCH   1   9
ATOM      8  N   UNL     1       1.554  12.752  18.119  0.00  0.00    +0.000 N 
ATOM      9  C   UNL     1       1.302  11.836  19.135  0.00  0.00    +0.000 C 
ATOM     10  O   UNL     1       1.563  12.054  20.326  0.00  0.00    +0.000 OA
ATOM     11  H   UNL     1       1.579  12.406  17.168  0.00  0.00    +0.000 HD
BRANCH   8  18
ATOM     12  C   UNL     1       5.613  15.606  18.453  0.00  0.00    +0.000 C 
ATOM     13  C   UNL     1       4.121  15.456  18.492  0.00  0.00    +0.000 A 
ATOM     14  C   UNL     1       3.308  16.540  18.817  0.00  0.00    +0.000 A 
ATOM     15  C   UNL     1       1.927  16.373  18.926  0.00  0.00    +0.000 A 
ATOM     16  C   UNL     1       1.323  15.122  18.708  0.00  0.00    +0.000 A 
ATOM     17  C   UNL     1      -0.172  15.033  18.834  0.00  0.00    +0.000 C 
ATOM     18  C   UNL     1       2.133  14.026  18.361  0.00  0.00    +0.000 A 
ATOM     19  C   UNL     1       3.525  14.207  18.267  0.00  0.00    +0.000 A 
ENDBRANCH   8  18
ENDBRANCH   1   9
BRANCH   1  20
ATOM     20  S   UNL     1       0.907   9.200  19.973  0.00  0.00    +0.000 S 
BRANCH  20  21
ATOM     21  C   UNL     1       1.985   8.140  19.136  0.00  0.00    +0.000 A 
ATOM     22  N   UNL     1       2.665   8.455  18.057  0.00  0.00    +0.000 NA
ATOM     23  N   UNL     1       3.403   7.351  17.689  0.00  0.00    +0.000 NA
ATOM     24  C   UNL     1       3.167   6.397  18.567  0.00  0.00    +0.000 A 
ATOM     25  C   UNL     1       3.671   5.074  18.706  0.00  0.00    +0.000 A 
ATOM     26  C   UNL     1       3.268   4.308  19.737  0.00  0.00    +0.000 A 
ATOM     27  C   UNL     1       2.303   4.801  20.713  0.00  0.00    +0.000 A 
ATOM     28  C   UNL     1       1.822   6.051  20.583  0.00  0.00    +0.000 A 
ATOM     29  N   UNL     1       2.256   6.844  19.519  0.00  0.00    +0.000 N 
ENDBRANCH  20  21
ENDBRANCH   1  20
TORSDOF 5
ENDMDL
MODEL 8
REMARK VINA RESULT:      -7.7      1.789      7.323
REMARK  Name = 
REMARK  7 active torsions:
REMARK  status: ('A' for Active; 'I' for Inactive)
REMARK    1  A    between atoms: C_1  and  C_2
REMARK    2  A    between atoms: C_5  and  C_6
REMARK    3  A    between atoms: C_7  and  N_8
REMARK    4  A    between atoms: C_9  and  C_11
REMARK    5  A    between atoms: C_11  and  S_12
REMARK    6  A    between atoms: C_11  and  C_22
REMARK    7  A    between atoms: S_12  and  C_13
REMARK                            x       y       z     vdW  Elec       q    Type
REMARK                         _______ _______ _______ _____ _____    ______ ____
ROOT
ATOM      1  C   UNL     1       3.393   5.523  18.712  0.00  0.00    +0.000 C 
ENDROOT
BRANCH   1   2
ATOM      2  C   UNL     1       2.762   4.133  18.670  0.00  0.00    +0.000 A 
ATOM      3  C   UNL     1       3.511   2.999  19.033  0.00  0.00    +0.000 A 
ATOM      4  C   UNL     1       2.904   1.742  19.113  0.00  0.00    +0.000 A 
ATOM      5  C   UNL     1       1.547   1.599  18.831  0.00  0.00    +0.000 A 
ATOM      6  C   UNL     1       0.796   2.709  18.456  0.00  0.00    +0.000 A 
ATOM      7  C   UNL     1       1.396   3.965  18.380  0.00  0.00    +0.000 A 
ENDBRANCH   1   2
BRANCH   1   9
ATOM      8  N   UNL     1       2.307   7.733  19.033  0.00  0.00    +0.000 N 
ATOM      9  C   UNL     1       2.601   6.502  19.613  0.00  0.00    +0.000 C 
ATOM     10  O   UNL     1       2.255   6.194  20.762  0.00  0.00    +0.000 OA
ATOM     11  H   UNL     1       2.849   8.014  18.226  0.00  0.00    +0.000 HD
BRANCH   8  18
ATOM     12  C   UNL     1      -0.187   9.228  23.067  0.00  0.00    +0.000 C 
ATOM     13  C   UNL     1       0.378   9.512  21.707  0.00  0.00    +0.000 A 
ATOM     14  C   UNL     1       0.147  10.738  21.086  0.00  0.00    +0.000 A 
ATOM     15  C   UNL     1       0.612  10.966  19.790  0.00  0.00    +0.000 A 
ATOM     16  C   UNL     1       1.324   9.979  19.085  0.00  0.00    +0.000 A 
ATOM     17  C   UNL     1       1.799  10.312  17.699  0.00  0.00    +0.000 C 
ATOM     18  C   UNL     1       1.578   8.746  19.711  0.00  0.00    +0.000 A 
ATOM     19  C   UNL     1       1.093   8.526  21.013  0.00  0.00    +0.000 A 
ENDBRANCH   8  18
ENDBRANCH   1   9
BRANCH   1  20
ATOM     20  S   UNL     1       5.127   5.338  19.356  0.00  0.00    +0.000 S 
BRANCH  20  21
ATOM     21  C   UNL     1       6.028   5.734  17.935  0.00  0.00    +0.000 A 
ATOM     22  N   UNL     1       6.846   6.756  17.823  0.00  0.00    +0.000 NA
ATOM     23  N   UNL     1       7.367   6.737  16.547  0.00  0.00    +0.000 NA
ATOM     24  C   UNL     1       6.866   5.691  15.922  0.00  0.00    +0.000 A 
ATOM     25  C   UNL     1       7.072   5.163  14.617  0.00  0.00    +0.000 A 
ATOM     26  C   UNL     1       6.435   4.039  14.241  0.00  0.00    +0.000 A 
ATOM     27  C   UNL     1       5.515   3.353  15.142  0.00  0.00    +0.000 A 
ATOM     28  C   UNL     1       5.316   3.852  16.376  0.00  0.00    +0.000 A 
ATOM     29  N   UNL     1       5.991   5.010  16.763  0.00  0.00    +0.000 N 
ENDBRANCH  20  21
ENDBRANCH   1  20
TORSDOF 5
ENDMDL
MODEL 9
REMARK VINA RESULT:      -7.7      7.033      8.874
REMARK  Name = 
REMARK  7 active torsions:
REMARK  status: ('A' for Active; 'I' for Inactive)
REMARK    1  A    between atoms: C_1  and  C_2
REMARK    2  A    between atoms: C_5  and  C_6
REMARK    3  A    between atoms: C_7  and  N_8
REMARK    4  A    between atoms: C_9  and  C_11
REMARK    5  A    between atoms: C_11  and  S_12
REMARK    6  A    between atoms: C_11  and  C_22
REMARK    7  A    between atoms: S_12  and  C_13
REMARK                            x       y       z     vdW  Elec       q    Type
REMARK                         _______ _______ _______ _____ _____    ______ ____
ROOT
ATOM      1  C   UNL     1       0.554  12.369  20.182  0.00  0.00    +0.000 C 
ENDROOT
BRANCH   1   2
ATOM      2  C   UNL     1       0.236  11.295  21.220  0.00  0.00    +0.000 A 
ATOM      3  C   UNL     1       0.977  10.099  21.260  0.00  0.00    +0.000 A 
ATOM      4  C   UNL     1       0.771   9.169  22.283  0.00  0.00    +0.000 A 
ATOM      5  C   UNL     1      -0.175   9.416  23.276  0.00  0.00    +0.000 A 
ATOM      6  C   UNL     1      -0.926  10.587  23.242  0.00  0.00    +0.000 A 
ATOM      7  C   UNL     1      -0.720  11.520  22.228  0.00  0.00    +0.000 A 
ENDBRANCH   1   2
BRANCH   1   9
ATOM      8  N   UNL     1      -1.396  11.367  19.016  0.00  0.00    +0.000 N 
ATOM      9  C   UNL     1      -0.520  12.446  19.068  0.00  0.00    +0.000 C 
ATOM     10  O   UNL     1      -0.584  13.410  18.293  0.00  0.00    +0.000 OA
ATOM     11  H   UNL     1      -1.117  10.511  19.479  0.00  0.00    +0.000 HD
BRANCH   8  18
ATOM     12  C   UNL     1      -2.957  10.063  14.478  0.00  0.00    +0.000 C 
ATOM     13  C   UNL     1      -3.244  10.606  15.847  0.00  0.00    +0.000 A 
ATOM     14  C   UNL     1      -4.517  11.071  16.173  0.00  0.00    +0.000 A 
ATOM     15  C   UNL     1      -4.756  11.644  17.422  0.00  0.00    +0.000 A 
ATOM     16  C   UNL     1      -3.732  11.762  18.380  0.00  0.00    +0.000 A 
ATOM     17  C   UNL     1      -4.078  12.380  19.705  0.00  0.00    +0.000 C 
ATOM     18  C   UNL     1      -2.449  11.278  18.067  0.00  0.00    +0.000 A 
ATOM     19  C   UNL     1      -2.220  10.714  16.799  0.00  0.00    +0.000 A 
ENDBRANCH   8  18
ENDBRANCH   1   9
BRANCH   1  20
ATOM     20  S   UNL     1       0.660  13.999  21.069  0.00  0.00    +0.000 S 
BRANCH  20  21
ATOM     21  C   UNL     1       2.366  14.269  21.013  0.00  0.00    +0.000 A 
ATOM     22  N   UNL     1       3.188  14.105  22.025  0.00  0.00    +0.000 NA
ATOM     23  N   UNL     1       4.457  14.422  21.590  0.00  0.00    +0.000 NA
ATOM     24  C   UNL     1       4.376  14.752  20.318  0.00  0.00    +0.000 A 
ATOM     25  C   UNL     1       5.358  15.129  19.360  0.00  0.00    +0.000 A 
ATOM     26  C   UNL     1       4.991  15.393  18.092  0.00  0.00    +0.000 A 
ATOM     27  C   UNL     1       3.594  15.319  17.678  0.00  0.00    +0.000 A 
ATOM     28  C   UNL     1       2.663  14.966  18.583  0.00  0.00    +0.000 A 
ATOM     29  N   UNL     1       3.054  14.679  19.892  0.00  0.00    +0.000 N 
ENDBRANCH  20  21
ENDBRANCH   1  20
TORSDOF 5
ENDMDL
