MODEL 1
REMARK VINA RESULT:      -8.0      0.000      0.000
REMARK  Name = 
REMARK  7 active torsions:
REMARK  status: ('A' for Active; 'I' for Inactive)
REMARK    1  A    between atoms: C_2  and  O_3
REMARK    2  A    between atoms: C_2  and  C_4
REMARK    3  A    between atoms: C_8  and  C_9
REMARK    4  A    between atoms: C_9  and  N_10
REMARK    5  A    between atoms: N_10  and  C_11
REMARK    6  A    between atoms: N_18  and  C_19
REMARK    7  A    between atoms: C_19  and  C_20
REMARK                            x       y       z     vdW  Elec       q    Type
REMARK                         _______ _______ _______ _____ _____    ______ ____
ROOT
ATOM      1  C   UNL     1       5.336   6.040  16.978  0.00  0.00    +0.000 A 
ATOM      2  C   UNL     1       4.400   7.083  17.144  0.00  0.00    +0.000 A 
ATOM      3  C   UNL     1       3.230   6.917  17.911  0.00  0.00    +0.000 A 
ATOM      4  C   UNL     1       2.999   5.685  18.494  0.00  0.00    +0.000 A 
ATOM      5  C   UNL     1       3.912   4.645  18.326  0.00  0.00    +0.000 A 
ATOM      6  C   UNL     1       5.072   4.809  17.594  0.00  0.00    +0.000 A 
ATOM      7  C   UNL     1       3.409   3.419  19.017  0.00  0.00    +0.000 C 
ATOM      8  N   UNL     1       1.979   3.716  19.207  0.00  0.00    +0.000 NA
ATOM      9  C   UNL     1       1.858   5.183  19.332  0.00  0.00    +0.000 C 
ENDROOT
BRANCH   1  10
ATOM     10  N   UNL     1       6.463   6.126  16.181  0.00  0.00    +0.000 N 
ATOM     11  H   UNL     1       6.517   6.931  15.566  0.00  0.00    +0.000 HD
BRANCH  10  12
ATOM     12  C   UNL     1       7.316   5.021  15.795  0.00  0.00    +0.000 C 
BRANCH  12  17
ATOM     13  C   UNL     1       6.266   3.665  12.369  0.00  0.00    +0.000 A 
ATOM     14  C   UNL     1       7.034   4.460  11.515  0.00  0.00    +0.000 A 
ATOM     15  C   UNL     1       7.892   5.424  12.041  0.00  0.00    +0.000 A 
ATOM     16  C   UNL     1       7.991   5.593  13.425  0.00  0.00    +0.000 A 
ATOM     17  C   UNL     1       7.243   4.789  14.301  0.00  0.00    +0.000 A 
ATOM     18  C   UNL     1       6.387   3.818  13.756  0.00  0.00    +0.000 A 
BRANCH  13  20
ATOM     19  O   UNL     1       4.249   2.922  11.365  0.00  0.00    +0.000 OA
ATOM     20  C   UNL     1       5.363   2.654  11.773  0.00  0.00    +0.000 C 
BRANCH  20  21
ATOM     21  O   UNL     1       5.861   1.398  11.772  0.00  0.00    +0.000 OA
ATOM     22  H   UNL     1       6.171   1.067  10.909  0.00  0.00    +0.000 HD
ENDBRANCH  20  21
ENDBRANCH  13  20
ENDBRANCH  12  17
ENDBRANCH  10  12
ENDBRANCH   1  10
BRANCH   8  23
ATOM     23  C   UNL     1       1.300   2.911  20.229  0.00  0.00    +0.000 C 
BRANCH  23  24
ATOM     24  C   UNL     1       1.817   2.830  21.681  0.00  0.00    +0.000 C 
ATOM     25  F   UNL     1       0.897   2.347  22.541  0.00  0.00    +0.000 F 
ATOM     26  F   UNL     1       2.902   2.024  21.757  0.00  0.00    +0.000 F 
ATOM     27  F   UNL     1       2.190   4.053  22.126  0.00  0.00    +0.000 F 
ENDBRANCH  23  24
ENDBRANCH   8  23
TORSDOF 7
ENDMDL
MODEL 2
REMARK VINA RESULT:      -7.8      8.532     10.498
REMARK  Name = 
REMARK  7 active torsions:
REMARK  status: ('A' for Active; 'I' for Inactive)
REMARK    1  A    between atoms: C_2  and  O_3
REMARK    2  A    between atoms: C_2  and  C_4
REMARK    3  A    between atoms: C_8  and  C_9
REMARK    4  A    between atoms: C_9  and  N_10
REMARK    5  A    between atoms: N_10  and  C_11
REMARK    6  A    between atoms: N_18  and  C_19
REMARK    7  A    between atoms: C_19  and  C_20
REMARK                            x       y       z     vdW  Elec       q    Type
REMARK                         _______ _______ _______ _____ _____    ______ ____
ROOT
ATOM      1  C   UNL     1       9.348  10.394  19.247  0.00  0.00    +0.000 A 
ATOM      2  C   UNL     1       9.602  10.895  20.541  0.00  0.00    +0.000 A 
ATOM      3  C   UNL     1      10.252  12.128  20.748  0.00  0.00    +0.000 A 
ATOM      4  C   UNL     1      10.662  12.844  19.639  0.00  0.00    +0.000 A 
ATOM      5  C   UNL     1      10.426  12.353  18.357  0.00  0.00    +0.000 A 
ATOM      6  C   UNL     1       9.769  11.155  18.148  0.00  0.00    +0.000 A 
ATOM      7  C   UNL     1      11.001  13.291  17.345  0.00  0.00    +0.000 C 
ATOM      8  N   UNL     1      11.935  14.100  18.145  0.00  0.00    +0.000 NA
ATOM      9  C   UNL     1      11.390  14.153  19.518  0.00  0.00    +0.000 C 
ENDROOT
BRANCH   1  10
ATOM     10  N   UNL     1       8.777   9.161  18.987  0.00  0.00    +0.000 N 
ATOM     11  H   UNL     1       9.204   8.365  19.448  0.00  0.00    +0.000 HD
BRANCH  10  12
ATOM     12  C   UNL     1       7.976   8.823  17.829  0.00  0.00    +0.000 C 
BRANCH  12  17
ATOM     13  C   UNL     1       7.125   5.321  16.530  0.00  0.00    +0.000 A 
ATOM     14  C   UNL     1       7.364   4.544  17.667  0.00  0.00    +0.000 A 
ATOM     15  C   UNL     1       7.791   5.148  18.849  0.00  0.00    +0.000 A 
ATOM     16  C   UNL     1       7.974   6.533  18.901  0.00  0.00    +0.000 A 
ATOM     17  C   UNL     1       7.718   7.333  17.776  0.00  0.00    +0.000 A 
ATOM     18  C   UNL     1       7.284   6.711  16.594  0.00  0.00    +0.000 A 
BRANCH  13  20
ATOM     19  O   UNL     1       6.599   5.212  14.220  0.00  0.00    +0.000 OA
ATOM     20  C   UNL     1       6.677   4.644  15.293  0.00  0.00    +0.000 C 
BRANCH  20  21
ATOM     21  O   UNL     1       6.308   3.356  15.469  0.00  0.00    +0.000 OA
ATOM     22  H   UNL     1       7.034   2.705  15.475  0.00  0.00    +0.000 HD
ENDBRANCH  20  21
ENDBRANCH  13  20
ENDBRANCH  12  17
ENDBRANCH  10  12
ENDBRANCH   1  10
BRANCH   8  23
ATOM     23  C   UNL     1      12.333  15.379  17.547  0.00  0.00    +0.000 C 
BRANCH  23  24
ATOM     24  C   UNL     1      11.297  16.455  17.156  0.00  0.00    +0.000 C 
ATOM     25  F   UNL     1      10.736  16.231  15.950  0.00  0.00    +0.000 F 
ATOM     26  F   UNL     1      10.295  16.504  18.065  0.00  0.00    +0.000 F 
ATOM     27  F   UNL     1      11.870  17.681  17.119  0.00  0.00    +0.000 F 
ENDBRANCH  23  24
ENDBRANCH   8  23
TORSDOF 7
ENDMDL
MODEL 3
REMARK VINA RESULT:      -7.8      3.649      5.187
REMARK  Name = 
REMARK  7 active torsions:
REMARK  status: ('A' for Active; 'I' for Inactive)
REMARK    1  A    between atoms: C_2  and  O_3
REMARK    2  A    between atoms: C_2  and  C_4
REMARK    3  A    between atoms: C_8  and  C_9
REMARK    4  A    between atoms: C_9  and  N_10
REMARK    5  A    between atoms: N_10  and  C_11
REMARK    6  A    between atoms: N_18  and  C_19
REMARK    7  A    between atoms: C_19  and  C_20
REMARK                            x       y       z     vdW  Elec       q    Type
REMARK                         _______ _______ _______ _____ _____    ______ ____
ROOT
ATOM      1  C   UNL     1       2.824   5.506  18.837  0.00  0.00    +0.000 A 
ATOM      2  C   UNL     1       2.903   6.417  17.762  0.00  0.00    +0.000 A 
ATOM      3  C   UNL     1       2.456   7.748  17.881  0.00  0.00    +0.000 A 
ATOM      4  C   UNL     1       1.910   8.149  19.086  0.00  0.00    +0.000 A 
ATOM      5  C   UNL     1       1.817   7.253  20.149  0.00  0.00    +0.000 A 
ATOM      6  C   UNL     1       2.274   5.954  20.045  0.00  0.00    +0.000 A 
ATOM      7  C   UNL     1       1.155   7.921  21.312  0.00  0.00    +0.000 C 
ATOM      8  N   UNL     1       0.507   9.088  20.691  0.00  0.00    +0.000 NA
ATOM      9  C   UNL     1       1.328   9.464  19.521  0.00  0.00    +0.000 C 
ENDROOT
BRANCH   1  10
ATOM     10  N   UNL     1       3.183   4.173  18.755  0.00  0.00    +0.000 N 
ATOM     11  H   UNL     1       2.429   3.500  18.838  0.00  0.00    +0.000 HD
BRANCH  10  12
ATOM     12  C   UNL     1       4.500   3.630  19.019  0.00  0.00    +0.000 C 
BRANCH  12  17
ATOM     13  C   UNL     1       6.691   4.974  16.178  0.00  0.00    +0.000 A 
ATOM     14  C   UNL     1       7.443   5.942  16.849  0.00  0.00    +0.000 A 
ATOM     15  C   UNL     1       7.249   6.155  18.213  0.00  0.00    +0.000 A 
ATOM     16  C   UNL     1       6.307   5.397  18.913  0.00  0.00    +0.000 A 
ATOM     17  C   UNL     1       5.557   4.405  18.261  0.00  0.00    +0.000 A 
ATOM     18  C   UNL     1       5.767   4.198  16.888  0.00  0.00    +0.000 A 
BRANCH  13  20
ATOM     19  O   UNL     1       6.351   3.924  14.078  0.00  0.00    +0.000 OA
ATOM     20  C   UNL     1       6.922   4.779  14.729  0.00  0.00    +0.000 C 
BRANCH  20  21
ATOM     21  O   UNL     1       7.863   5.594  14.203  0.00  0.00    +0.000 OA
ATOM     22  H   UNL     1       7.850   5.683  13.232  0.00  0.00    +0.000 HD
ENDBRANCH  20  21
ENDBRANCH  13  20
ENDBRANCH  12  17
ENDBRANCH  10  12
ENDBRANCH   1  10
BRANCH   8  23
ATOM     23  C   UNL     1       0.143  10.170  21.613  0.00  0.00    +0.000 C 
BRANCH  23  24
ATOM     24  C   UNL     1      -0.427   9.887  23.019  0.00  0.00    +0.000 C 
ATOM     25  F   UNL     1      -1.138  10.920  23.516  0.00  0.00    +0.000 F 
ATOM     26  F   UNL     1      -1.246   8.809  22.994  0.00  0.00    +0.000 F 
ATOM     27  F   UNL     1       0.569   9.617  23.895  0.00  0.00    +0.000 F 
ENDBRANCH  23  24
ENDBRANCH   8  23
TORSDOF 7
ENDMDL
MODEL 4
REMARK VINA RESULT:      -7.8      2.454      3.366
REMARK  Name = 
REMARK  7 active torsions:
REMARK  status: ('A' for Active; 'I' for Inactive)
REMARK    1  A    between atoms: C_2  and  O_3
REMARK    2  A    between atoms: C_2  and  C_4
REMARK    3  A    between atoms: C_8  and  C_9
REMARK    4  A    between atoms: C_9  and  N_10
REMARK    5  A    between atoms: N_10  and  C_11
REMARK    6  A    between atoms: N_18  and  C_19
REMARK    7  A    between atoms: C_19  and  C_20
REMARK                            x       y       z     vdW  Elec       q    Type
REMARK                         _______ _______ _______ _____ _____    ______ ____
ROOT
ATOM      1  C   UNL     1       4.604   4.328  17.559  0.00  0.00    +0.000 A 
ATOM      2  C   UNL     1       4.202   3.608  18.704  0.00  0.00    +0.000 A 
ATOM      3  C   UNL     1       3.299   4.146  19.642  0.00  0.00    +0.000 A 
ATOM      4  C   UNL     1       2.819   5.424  19.428  0.00  0.00    +0.000 A 
ATOM      5  C   UNL     1       3.219   6.148  18.307  0.00  0.00    +0.000 A 
ATOM      6  C   UNL     1       4.087   5.616  17.372  0.00  0.00    +0.000 A 
ATOM      7  C   UNL     1       2.593   7.506  18.335  0.00  0.00    +0.000 C 
ATOM      8  N   UNL     1       2.174   7.641  19.739  0.00  0.00    +0.000 NA
ATOM      9  C   UNL     1       1.884   6.280  20.235  0.00  0.00    +0.000 C 
ENDROOT
BRANCH   1  10
ATOM     10  N   UNL     1       5.539   3.876  16.645  0.00  0.00    +0.000 N 
ATOM     11  H   UNL     1       5.607   2.870  16.533  0.00  0.00    +0.000 HD
BRANCH  10  12
ATOM     12  C   UNL     1       6.702   4.608  16.188  0.00  0.00    +0.000 C 
BRANCH  12  17
ATOM     13  C   UNL     1       6.144   3.554  12.547  0.00  0.00    +0.000 A 
ATOM     14  C   UNL     1       7.061   4.373  11.884  0.00  0.00    +0.000 A 
ATOM     15  C   UNL     1       7.861   5.257  12.608  0.00  0.00    +0.000 A 
ATOM     16  C   UNL     1       7.751   5.320  14.000  0.00  0.00    +0.000 A 
ATOM     17  C   UNL     1       6.852   4.489  14.687  0.00  0.00    +0.000 A 
ATOM     18  C   UNL     1       6.056   3.601  13.944  0.00  0.00    +0.000 A 
BRANCH  13  20
ATOM     19  O   UNL     1       5.706   1.547  11.361  0.00  0.00    +0.000 OA
ATOM     20  C   UNL     1       5.310   2.632  11.744  0.00  0.00    +0.000 C 
BRANCH  20  21
ATOM     21  O   UNL     1       4.092   3.123  11.425  0.00  0.00    +0.000 OA
ATOM     22  H   UNL     1       3.730   3.787  12.041  0.00  0.00    +0.000 HD
ENDBRANCH  20  21
ENDBRANCH  13  20
ENDBRANCH  12  17
ENDBRANCH  10  12
ENDBRANCH   1  10
BRANCH   8  23
ATOM     23  C   UNL     1       1.155   8.665  19.996  0.00  0.00    +0.000 C 
BRANCH  23  24
ATOM     24  C   UNL     1       0.534   8.866  21.395  0.00  0.00    +0.000 C 
ATOM     25  F   UNL     1      -0.526   8.064  21.621  0.00  0.00    +0.000 F 
ATOM     26  F   UNL     1       1.447   8.612  22.363  0.00  0.00    +0.000 F 
ATOM     27  F   UNL     1       0.121  10.146  21.557  0.00  0.00    +0.000 F 
ENDBRANCH  23  24
ENDBRANCH   8  23
TORSDOF 7
ENDMDL
MODEL 5
REMARK VINA RESULT:      -7.7      6.047      7.357
REMARK  Name = 
REMARK  7 active torsions:
REMARK  status: ('A' for Active; 'I' for Inactive)
REMARK    1  A    between atoms: C_2  and  O_3
REMARK    2  A    between atoms: C_2  and  C_4
REMARK    3  A    between atoms: C_8  and  C_9
REMARK    4  A    between atoms: C_9  and  N_10
REMARK    5  A    between atoms: N_10  and  C_11
REMARK    6  A    between atoms: N_18  and  C_19
REMARK    7  A    between atoms: C_19  and  C_20
REMARK                            x       y       z     vdW  Elec       q    Type
REMARK                         _______ _______ _______ _____ _____    ______ ____
ROOT
ATOM      1  C   UNL     1       7.475   7.240  17.877  0.00  0.00    +0.000 A 
ATOM      2  C   UNL     1       7.910   6.358  18.889  0.00  0.00    +0.000 A 
ATOM      3  C   UNL     1       7.138   5.251  19.293  0.00  0.00    +0.000 A 
ATOM      4  C   UNL     1       5.913   5.050  18.683  0.00  0.00    +0.000 A 
ATOM      5  C   UNL     1       5.470   5.923  17.692  0.00  0.00    +0.000 A 
ATOM      6  C   UNL     1       6.234   6.997  17.275  0.00  0.00    +0.000 A 
ATOM      7  C   UNL     1       4.109   5.510  17.230  0.00  0.00    +0.000 C 
ATOM      8  N   UNL     1       3.652   4.627  18.316  0.00  0.00    +0.000 NA
ATOM      9  C   UNL     1       4.858   4.003  18.899  0.00  0.00    +0.000 C 
ENDROOT
BRANCH   1  10
ATOM     10  N   UNL     1       8.160   8.377  17.490  0.00  0.00    +0.000 N 
ATOM     11  H   UNL     1       9.164   8.280  17.379  0.00  0.00    +0.000 HD
BRANCH  10  12
ATOM     12  C   UNL     1       7.708   9.742  17.668  0.00  0.00    +0.000 C 
BRANCH  12  17
ATOM     13  C   UNL     1      10.171  12.639  18.134  0.00  0.00    +0.000 A 
ATOM     14  C   UNL     1      10.818  12.259  19.312  0.00  0.00    +0.000 A 
ATOM     15  C   UNL     1      10.467  11.070  19.950  0.00  0.00    +0.000 A 
ATOM     16  C   UNL     1       9.471  10.252  19.408  0.00  0.00    +0.000 A 
ATOM     17  C   UNL     1       8.824  10.606  18.213  0.00  0.00    +0.000 A 
ATOM     18  C   UNL     1       9.192  11.805  17.579  0.00  0.00    +0.000 A 
BRANCH  13  20
ATOM     19  O   UNL     1      10.301  15.001  17.957  0.00  0.00    +0.000 OA
ATOM     20  C   UNL     1      10.568  13.911  17.488  0.00  0.00    +0.000 C 
BRANCH  20  21
ATOM     21  O   UNL     1      11.203  13.757  16.306  0.00  0.00    +0.000 OA
ATOM     22  H   UNL     1      11.293  14.564  15.766  0.00  0.00    +0.000 HD
ENDBRANCH  20  21
ENDBRANCH  13  20
ENDBRANCH  12  17
ENDBRANCH  10  12
ENDBRANCH   1  10
BRANCH   8  23
ATOM     23  C   UNL     1       2.547   3.725  17.971  0.00  0.00    +0.000 C 
BRANCH  23  24
ATOM     24  C   UNL     1       1.564   3.195  19.036  0.00  0.00    +0.000 C 
ATOM     25  F   UNL     1       2.171   2.475  20.001  0.00  0.00    +0.000 F 
ATOM     26  F   UNL     1       0.918   4.219  19.642  0.00  0.00    +0.000 F 
ATOM     27  F   UNL     1       0.622   2.404  18.468  0.00  0.00    +0.000 F 
ENDBRANCH  23  24
ENDBRANCH   8  23
TORSDOF 7
ENDMDL
MODEL 6
REMARK VINA RESULT:      -7.6      2.793      3.592
REMARK  Name = 
REMARK  7 active torsions:
REMARK  status: ('A' for Active; 'I' for Inactive)
REMARK    1  A    between atoms: C_2  and  O_3
REMARK    2  A    between atoms: C_2  and  C_4
REMARK    3  A    between atoms: C_8  and  C_9
REMARK    4  A    between atoms: C_9  and  N_10
REMARK    5  A    between atoms: N_10  and  C_11
REMARK    6  A    between atoms: N_18  and  C_19
REMARK    7  A    between atoms: C_19  and  C_20
REMARK                            x       y       z     vdW  Elec       q    Type
REMARK                         _______ _______ _______ _____ _____    ______ ____
ROOT
ATOM      1  C   UNL     1       4.483   6.110  17.340  0.00  0.00    +0.000 A 
ATOM      2  C   UNL     1       4.392   5.255  18.459  0.00  0.00    +0.000 A 
ATOM      3  C   UNL     1       3.508   5.517  19.525  0.00  0.00    +0.000 A 
ATOM      4  C   UNL     1       2.732   6.660  19.464  0.00  0.00    +0.000 A 
ATOM      5  C   UNL     1       2.824   7.516  18.369  0.00  0.00    +0.000 A 
ATOM      6  C   UNL     1       3.672   7.252  17.310  0.00  0.00    +0.000 A 
ATOM      7  C   UNL     1       1.917   8.688  18.570  0.00  0.00    +0.000 C 
ATOM      8  N   UNL     1       1.648   8.647  20.016  0.00  0.00    +0.000 NA
ATOM      9  C   UNL     1       1.731   7.230  20.429  0.00  0.00    +0.000 C 
ENDROOT
BRANCH   1  10
ATOM     10  N   UNL     1       5.380   5.938  16.301  0.00  0.00    +0.000 N 
ATOM     11  H   UNL     1       5.169   6.432  15.441  0.00  0.00    +0.000 HD
BRANCH  10  12
ATOM     12  C   UNL     1       6.291   4.823  16.142  0.00  0.00    +0.000 C 
BRANCH  12  17
ATOM     13  C   UNL     1       6.077   3.548  12.535  0.00  0.00    +0.000 A 
ATOM     14  C   UNL     1       7.110   4.268  11.931  0.00  0.00    +0.000 A 
ATOM     15  C   UNL     1       7.878   5.155  12.684  0.00  0.00    +0.000 A 
ATOM     16  C   UNL     1       7.619   5.321  14.048  0.00  0.00    +0.000 A 
ATOM     17  C   UNL     1       6.599   4.591  14.678  0.00  0.00    +0.000 A 
ATOM     18  C   UNL     1       5.837   3.698  13.907  0.00  0.00    +0.000 A 
BRANCH  13  20
ATOM     19  O   UNL     1       4.202   2.918  11.225  0.00  0.00    +0.000 OA
ATOM     20  C   UNL     1       5.281   2.619  11.702  0.00  0.00    +0.000 C 
BRANCH  20  21
ATOM     21  O   UNL     1       5.830   1.392  11.562  0.00  0.00    +0.000 OA
ATOM     22  H   UNL     1       6.379   1.088  12.309  0.00  0.00    +0.000 HD
ENDBRANCH  20  21
ENDBRANCH  13  20
ENDBRANCH  12  17
ENDBRANCH  10  12
ENDBRANCH   1  10
BRANCH   8  23
ATOM     23  C   UNL     1       0.462   9.391  20.458  0.00  0.00    +0.000 C 
BRANCH  23  24
ATOM     24  C   UNL     1      -0.151   9.192  21.860  0.00  0.00    +0.000 C 
ATOM     25  F   UNL     1      -0.923   8.090  21.946  0.00  0.00    +0.000 F 
ATOM     26  F   UNL     1       0.823   9.076  22.794  0.00  0.00    +0.000 F 
ATOM     27  F   UNL     1      -0.915  10.256  22.204  0.00  0.00    +0.000 F 
ENDBRANCH  23  24
ENDBRANCH   8  23
TORSDOF 7
ENDMDL
MODEL 7
REMARK VINA RESULT:      -7.6      4.155      5.747
REMARK  Name = 
REMARK  7 active torsions:
REMARK  status: ('A' for Active; 'I' for Inactive)
REMARK    1  A    between atoms: C_2  and  O_3
REMARK    2  A    between atoms: C_2  and  C_4
REMARK    3  A    between atoms: C_8  and  C_9
REMARK    4  A    between atoms: C_9  and  N_10
REMARK    5  A    between atoms: N_10  and  C_11
REMARK    6  A    between atoms: N_18  and  C_19
REMARK    7  A    between atoms: C_19  and  C_20
REMARK                            x       y       z     vdW  Elec       q    Type
REMARK                         _______ _______ _______ _____ _____    ______ ____
ROOT
ATOM      1  C   UNL     1       2.449   5.777  19.161  0.00  0.00    +0.000 A 
ATOM      2  C   UNL     1       2.460   6.535  17.971  0.00  0.00    +0.000 A 
ATOM      3  C   UNL     1       2.110   7.900  17.956  0.00  0.00    +0.000 A 
ATOM      4  C   UNL     1       1.730   8.491  19.146  0.00  0.00    +0.000 A 
ATOM      5  C   UNL     1       1.704   7.748  20.324  0.00  0.00    +0.000 A 
ATOM      6  C   UNL     1       2.068   6.415  20.349  0.00  0.00    +0.000 A 
ATOM      7  C   UNL     1       1.221   8.605  21.449  0.00  0.00    +0.000 C 
ATOM      8  N   UNL     1       0.578   9.729  20.749  0.00  0.00    +0.000 NA
ATOM      9  C   UNL     1       1.281   9.890  19.459  0.00  0.00    +0.000 C 
ENDROOT
BRANCH   1  10
ATOM     10  N   UNL     1       2.715   4.421  19.222  0.00  0.00    +0.000 N 
ATOM     11  H   UNL     1       2.891   4.040  20.146  0.00  0.00    +0.000 HD
BRANCH  10  12
ATOM     12  C   UNL     1       3.212   3.604  18.135  0.00  0.00    +0.000 C 
BRANCH  12  17
ATOM     13  C   UNL     1       6.346   4.449  16.100  0.00  0.00    +0.000 A 
ATOM     14  C   UNL     1       7.220   4.865  17.107  0.00  0.00    +0.000 A 
ATOM     15  C   UNL     1       6.804   4.866  18.438  0.00  0.00    +0.000 A 
ATOM     16  C   UNL     1       5.512   4.444  18.767  0.00  0.00    +0.000 A 
ATOM     17  C   UNL     1       4.626   4.003  17.771  0.00  0.00    +0.000 A 
ATOM     18  C   UNL     1       5.062   4.003  16.436  0.00  0.00    +0.000 A 
BRANCH  13  20
ATOM     19  O   UNL     1       7.586   5.312  14.270  0.00  0.00    +0.000 OA
ATOM     20  C   UNL     1       6.824   4.466  14.699  0.00  0.00    +0.000 C 
BRANCH  20  21
ATOM     21  O   UNL     1       6.295   3.495  13.922  0.00  0.00    +0.000 OA
ATOM     22  H   UNL     1       5.340   3.571  13.742  0.00  0.00    +0.000 HD
ENDBRANCH  20  21
ENDBRANCH  13  20
ENDBRANCH  12  17
ENDBRANCH  10  12
ENDBRANCH   1  10
BRANCH   8  23
ATOM     23  C   UNL     1       0.387  10.944  21.549  0.00  0.00    +0.000 C 
BRANCH  23  24
ATOM     24  C   UNL     1      -0.924  11.218  22.317  0.00  0.00    +0.000 C 
ATOM     25  F   UNL     1      -1.318  10.174  23.075  0.00  0.00    +0.000 F 
ATOM     26  F   UNL     1      -0.782  12.283  23.140  0.00  0.00    +0.000 F 
ATOM     27  F   UNL     1      -1.932  11.503  21.458  0.00  0.00    +0.000 F 
ENDBRANCH  23  24
ENDBRANCH   8  23
TORSDOF 7
ENDMDL
MODEL 8
REMARK VINA RESULT:      -7.6      6.016      9.131
REMARK  Name = 
REMARK  7 active torsions:
REMARK  status: ('A' for Active; 'I' for Inactive)
REMARK    1  A    between atoms: C_2  and  O_3
REMARK    2  A    between atoms: C_2  and  C_4
REMARK    3  A    between atoms: C_8  and  C_9
REMARK    4  A    between atoms: C_9  and  N_10
REMARK    5  A    between atoms: N_10  and  C_11
REMARK    6  A    between atoms: N_18  and  C_19
REMARK    7  A    between atoms: C_19  and  C_20
REMARK                            x       y       z     vdW  Elec       q    Type
REMARK                         _______ _______ _______ _____ _____    ______ ____
ROOT
ATOM      1  C   UNL     1       3.304   6.414  18.243  0.00  0.00    +0.000 A 
ATOM      2  C   UNL     1       3.337   5.104  18.765  0.00  0.00    +0.000 A 
ATOM      3  C   UNL     1       4.079   4.076  18.149  0.00  0.00    +0.000 A 
ATOM      4  C   UNL     1       4.773   4.375  16.991  0.00  0.00    +0.000 A 
ATOM      5  C   UNL     1       4.737   5.663  16.462  0.00  0.00    +0.000 A 
ATOM      6  C   UNL     1       4.029   6.680  17.074  0.00  0.00    +0.000 A 
ATOM      7  C   UNL     1       5.529   5.708  15.195  0.00  0.00    +0.000 C 
ATOM      8  N   UNL     1       5.644   4.286  14.832  0.00  0.00    +0.000 NA
ATOM      9  C   UNL     1       5.620   3.518  16.094  0.00  0.00    +0.000 C 
ENDROOT
BRANCH   1  10
ATOM     10  N   UNL     1       2.539   7.441  18.766  0.00  0.00    +0.000 N 
ATOM     11  H   UNL     1       1.880   7.183  19.493  0.00  0.00    +0.000 HD
BRANCH  10  12
ATOM     12  C   UNL     1       2.245   8.699  18.112  0.00  0.00    +0.000 C 
BRANCH  12  17
ATOM     13  C   UNL     1      -0.804  10.889  18.880  0.00  0.00    +0.000 A 
ATOM     14  C   UNL     1      -0.901  10.742  20.266  0.00  0.00    +0.000 A 
ATOM     15  C   UNL     1       0.016   9.947  20.951  0.00  0.00    +0.000 A 
ATOM     16  C   UNL     1       1.040   9.300  20.253  0.00  0.00    +0.000 A 
ATOM     17  C   UNL     1       1.168   9.452  18.863  0.00  0.00    +0.000 A 
ATOM     18  C   UNL     1       0.239  10.260  18.188  0.00  0.00    +0.000 A 
BRANCH  13  20
ATOM     19  O   UNL     1      -2.997  11.538  18.253  0.00  0.00    +0.000 OA
ATOM     20  C   UNL     1      -1.799  11.738  18.188  0.00  0.00    +0.000 C 
BRANCH  20  21
ATOM     21  O   UNL     1      -1.259  12.718  17.431  0.00  0.00    +0.000 OA
ATOM     22  H   UNL     1      -1.896  13.313  16.993  0.00  0.00    +0.000 HD
ENDBRANCH  20  21
ENDBRANCH  13  20
ENDBRANCH  12  17
ENDBRANCH  10  12
ENDBRANCH   1  10
BRANCH   8  23
ATOM     23  C   UNL     1       6.718   3.962  13.886  0.00  0.00    +0.000 C 
BRANCH  23  24
ATOM     24  C   UNL     1       6.431   3.652  12.401  0.00  0.00    +0.000 C 
ATOM     25  F   UNL     1       6.797   2.404  12.045  0.00  0.00    +0.000 F 
ATOM     26  F   UNL     1       5.110   3.777  12.134  0.00  0.00    +0.000 F 
ATOM     27  F   UNL     1       7.090   4.518  11.595  0.00  0.00    +0.000 F 
ENDBRANCH  23  24
ENDBRANCH   8  23
TORSDOF 7
ENDMDL
MODEL 9
REMARK VINA RESULT:      -7.6      4.932      6.325
REMARK  Name = 
REMARK  7 active torsions:
REMARK  status: ('A' for Active; 'I' for Inactive)
REMARK    1  A    between atoms: C_2  and  O_3
REMARK    2  A    between atoms: C_2  and  C_4
REMARK    3  A    between atoms: C_8  and  C_9
REMARK    4  A    between atoms: C_9  and  N_10
REMARK    5  A    between atoms: N_10  and  C_11
REMARK    6  A    between atoms: N_18  and  C_19
REMARK    7  A    between atoms: C_19  and  C_20
REMARK                            x       y       z     vdW  Elec       q    Type
REMARK                         _______ _______ _______ _____ _____    ______ ____
ROOT
ATOM      1  C   UNL     1       2.339   7.769  18.588  0.00  0.00    +0.000 A 
ATOM      2  C   UNL     1       2.062   8.943  17.856  0.00  0.00    +0.000 A 
ATOM      3  C   UNL     1       1.377  10.033  18.429  0.00  0.00    +0.000 A 
ATOM      4  C   UNL     1       0.956   9.923  19.741  0.00  0.00    +0.000 A 
ATOM      5  C   UNL     1       1.215   8.763  20.468  0.00  0.00    +0.000 A 
ATOM      6  C   UNL     1       1.906   7.700  19.918  0.00  0.00    +0.000 A 
ATOM      7  C   UNL     1       0.622   8.884  21.836  0.00  0.00    +0.000 C 
ATOM      8  N   UNL     1      -0.340   9.987  21.676  0.00  0.00    +0.000 NA
ATOM      9  C   UNL     1       0.193  10.873  20.621  0.00  0.00    +0.000 C 
ENDROOT
BRANCH   1  10
ATOM     10  N   UNL     1       2.945   6.646  18.055  0.00  0.00    +0.000 N 
ATOM     11  H   UNL     1       2.654   6.380  17.120  0.00  0.00    +0.000 HD
BRANCH  10  12
ATOM     12  C   UNL     1       3.573   5.581  18.810  0.00  0.00    +0.000 C 
BRANCH  12  17
ATOM     13  C   UNL     1       6.504   4.854  16.452  0.00  0.00    +0.000 A 
ATOM     14  C   UNL     1       7.586   4.938  17.331  0.00  0.00    +0.000 A 
ATOM     15  C   UNL     1       7.372   5.220  18.679  0.00  0.00    +0.000 A 
ATOM     16  C   UNL     1       6.073   5.413  19.156  0.00  0.00    +0.000 A 
ATOM     17  C   UNL     1       4.970   5.312  18.293  0.00  0.00    +0.000 A 
ATOM     18  C   UNL     1       5.201   5.023  16.938  0.00  0.00    +0.000 A 
BRANCH  13  20
ATOM     19  O   UNL     1       6.228   3.648  14.428  0.00  0.00    +0.000 OA
ATOM     20  C   UNL     1       6.771   4.557  15.027  0.00  0.00    +0.000 C 
BRANCH  20  21
ATOM     21  O   UNL     1       7.712   5.346  14.464  0.00  0.00    +0.000 OA
ATOM     22  H   UNL     1       7.938   5.139  13.538  0.00  0.00    +0.000 HD
ENDBRANCH  20  21
ENDBRANCH  13  20
ENDBRANCH  12  17
ENDBRANCH  10  12
ENDBRANCH   1  10
BRANCH   8  23
ATOM     23  C   UNL     1      -0.768  10.634  22.922  0.00  0.00    +0.000 C 
BRANCH  23  24
ATOM     24  C   UNL     1      -1.797  11.784  22.933  0.00  0.00    +0.000 C 
ATOM     25  F   UNL     1      -2.330  12.024  21.717  0.00  0.00    +0.000 F 
ATOM     26  F   UNL     1      -2.820  11.502  23.773  0.00  0.00    +0.000 F 
ATOM     27  F   UNL     1      -1.226  12.934  23.364  0.00  0.00    +0.000 F 
ENDBRANCH  23  24
ENDBRANCH   8  23
TORSDOF 7
ENDMDL
