MODEL 1
REMARK VINA RESULT:      -7.6      0.000      0.000
REMARK  Name = 
REMARK  3 active torsions:
REMARK  status: ('A' for Active; 'I' for Inactive)
REMARK    1  A    between atoms: C_2  and  C_12
REMARK    2  A    between atoms: N_3  and  C_4
REMARK    3  A    between atoms: C_17  and  C_18
REMARK                            x       y       z     vdW  Elec       q    Type
REMARK                         _______ _______ _______ _____ _____    ______ ____
ROOT
ATOM      1  C   UNL     1       2.807   3.646  19.313  0.00  0.00    +0.000 A 
ATOM      2  N   UNL     1       2.965   2.327  19.660  0.00  0.00    +0.000 NA
ATOM      3  C   UNL     1       2.604   2.006  20.923  0.00  0.00    +0.000 A 
ATOM      4  C   UNL     1       2.125   2.941  21.820  0.00  0.00    +0.000 A 
ATOM      5  N   UNL     1       1.987   4.246  21.497  0.00  0.00    +0.000 NA
ATOM      6  C   UNL     1       2.332   4.602  20.215  0.00  0.00    +0.000 A 
ENDROOT
BRANCH   6   7
ATOM      7  C   UNL     1       2.195   6.036  19.926  0.00  0.00    +0.000 A 
ATOM      8  N   UNL     1       2.686   6.656  18.871  0.00  0.00    +0.000 NA
ATOM      9  C   UNL     1       2.210   7.954  18.817  0.00  0.00    +0.000 A 
ATOM     10  C   UNL     1       2.393   8.856  17.750  0.00  0.00    +0.000 A 
ATOM     11  C   UNL     1       1.832  10.136  17.817  0.00  0.00    +0.000 A 
ATOM     12  C   UNL     1       1.120  10.535  18.943  0.00  0.00    +0.000 A 
ATOM     13  C   UNL     1       0.939   9.664  20.022  0.00  0.00    +0.000 A 
ATOM     14  C   UNL     1       1.474   8.369  19.926  0.00  0.00    +0.000 A 
ATOM     15  S   UNL     1       1.354   7.060  21.034  0.00  0.00    +0.000 S 
ENDBRANCH   6   7
BRANCH   1  17
ATOM     16  O   UNL     1       2.269   3.708  16.984  0.00  0.00    +0.000 OA
ATOM     17  C   UNL     1       3.084   3.946  17.868  0.00  0.00    +0.000 C 
ATOM     18  N   UNL     1       4.356   4.430  17.575  0.00  0.00    +0.000 N 
ATOM     19  H   UNL     1       5.067   4.407  18.311  0.00  0.00    +0.000 HD
BRANCH  18  20
ATOM     20  C   UNL     1       4.737   4.709  16.193  0.00  0.00    +0.000 C 
ATOM     21  C   UNL     1       5.573   3.579  15.582  0.00  0.00    +0.000 C 
ATOM     22  O   UNL     1       6.952   3.990  15.569  0.00  0.00    +0.000 OA
ATOM     23  C   UNL     1       7.022   5.344  16.000  0.00  0.00    +0.000 C 
ATOM     24  C   UNL     1       7.428   5.476  17.472  0.00  0.00    +0.000 C 
ATOM     25  N   UNL     1       6.526   6.475  18.079  0.00  0.00    +0.000 NA
ATOM     26  C   UNL     1       5.711   7.029  16.990  0.00  0.00    +0.000 C 
ATOM     27  C   UNL     1       5.625   5.926  15.957  0.00  0.00    +0.000 C 
ATOM     28  H   UNL     1       7.072   7.215  18.521  0.00  0.00    +0.000 HD
ENDBRANCH  18  20
ENDBRANCH   1  17
TORSDOF 3
ENDMDL
MODEL 2
REMARK VINA RESULT:      -7.5      1.549      2.054
REMARK  Name = 
REMARK  3 active torsions:
REMARK  status: ('A' for Active; 'I' for Inactive)
REMARK    1  A    between atoms: C_2  and  C_12
REMARK    2  A    between atoms: N_3  and  C_4
REMARK    3  A    between atoms: C_17  and  C_18
REMARK                            x       y       z     vdW  Elec       q    Type
REMARK                         _______ _______ _______ _____ _____    ______ ____
ROOT
ATOM      1  C   UNL     1       3.548   4.556  19.781  0.00  0.00    +0.000 A 
ATOM      2  N   UNL     1       3.757   3.213  19.973  0.00  0.00    +0.000 NA
ATOM      3  C   UNL     1       2.691   2.514  20.429  0.00  0.00    +0.000 A 
ATOM      4  C   UNL     1       1.475   3.109  20.704  0.00  0.00    +0.000 A 
ATOM      5  N   UNL     1       1.267   4.433  20.541  0.00  0.00    +0.000 NA
ATOM      6  C   UNL     1       2.325   5.169  20.066  0.00  0.00    +0.000 A 
ENDROOT
BRANCH   6   7
ATOM      7  C   UNL     1       2.056   6.607  19.937  0.00  0.00    +0.000 A 
ATOM      8  N   UNL     1       2.355   7.354  18.892  0.00  0.00    +0.000 NA
ATOM      9  C   UNL     1       1.793   8.611  19.027  0.00  0.00    +0.000 A 
ATOM     10  C   UNL     1       1.768   9.614  18.038  0.00  0.00    +0.000 A 
ATOM     11  C   UNL     1       1.139  10.836  18.302  0.00  0.00    +0.000 A 
ATOM     12  C   UNL     1       0.565  11.078  19.546  0.00  0.00    +0.000 A 
ATOM     13  C   UNL     1       0.591  10.105  20.549  0.00  0.00    +0.000 A 
ATOM     14  C   UNL     1       1.191   8.868  20.259  0.00  0.00    +0.000 A 
ATOM     15  S   UNL     1       1.311   7.462  21.240  0.00  0.00    +0.000 S 
ENDBRANCH   6   7
BRANCH   1  17
ATOM     16  O   UNL     1       5.700   5.598  19.781  0.00  0.00    +0.000 OA
ATOM     17  C   UNL     1       4.702   5.278  19.146  0.00  0.00    +0.000 C 
ATOM     18  N   UNL     1       4.540   5.641  17.812  0.00  0.00    +0.000 N 
ATOM     19  H   UNL     1       3.612   5.544  17.391  0.00  0.00    +0.000 HD
BRANCH  18  20
ATOM     20  C   UNL     1       5.588   6.385  17.120  0.00  0.00    +0.000 C 
ATOM     21  C   UNL     1       5.039   7.204  15.945  0.00  0.00    +0.000 C 
ATOM     22  O   UNL     1       5.352   6.512  14.723  0.00  0.00    +0.000 OA
ATOM     23  C   UNL     1       6.171   5.393  15.037  0.00  0.00    +0.000 C 
ATOM     24  C   UNL     1       5.383   4.079  15.093  0.00  0.00    +0.000 C 
ATOM     25  N   UNL     1       5.831   3.361  16.303  0.00  0.00    +0.000 NA
ATOM     26  C   UNL     1       6.944   4.134  16.870  0.00  0.00    +0.000 C 
ATOM     27  C   UNL     1       6.686   5.565  16.450  0.00  0.00    +0.000 C 
ATOM     28  H   UNL     1       6.146   2.422  16.055  0.00  0.00    +0.000 HD
ENDBRANCH  18  20
ENDBRANCH   1  17
TORSDOF 3
ENDMDL
MODEL 3
REMARK VINA RESULT:      -7.3      1.792      2.240
REMARK  Name = 
REMARK  3 active torsions:
REMARK  status: ('A' for Active; 'I' for Inactive)
REMARK    1  A    between atoms: C_2  and  C_12
REMARK    2  A    between atoms: N_3  and  C_4
REMARK    3  A    between atoms: C_17  and  C_18
REMARK                            x       y       z     vdW  Elec       q    Type
REMARK                         _______ _______ _______ _____ _____    ______ ____
ROOT
ATOM      1  C   UNL     1       3.805   3.547  19.104  0.00  0.00    +0.000 A 
ATOM      2  N   UNL     1       3.918   2.180  19.074  0.00  0.00    +0.000 NA
ATOM      3  C   UNL     1       2.752   1.497  19.004  0.00  0.00    +0.000 A 
ATOM      4  C   UNL     1       1.522   2.127  18.984  0.00  0.00    +0.000 A 
ATOM      5  N   UNL     1       1.400   3.471  19.037  0.00  0.00    +0.000 NA
ATOM      6  C   UNL     1       2.567   4.194  19.094  0.00  0.00    +0.000 A 
ENDROOT
BRANCH   6   7
ATOM      7  C   UNL     1       2.377   5.648  19.183  0.00  0.00    +0.000 A 
ATOM      8  N   UNL     1       2.622   6.514  18.219  0.00  0.00    +0.000 NA
ATOM      9  C   UNL     1       2.155   7.767  18.574  0.00  0.00    +0.000 A 
ATOM     10  C   UNL     1       2.099   8.896  17.732  0.00  0.00    +0.000 A 
ATOM     11  C   UNL     1       1.576  10.100  18.216  0.00  0.00    +0.000 A 
ATOM     12  C   UNL     1       1.138  10.199  19.533  0.00  0.00    +0.000 A 
ATOM     13  C   UNL     1       1.198   9.098  20.393  0.00  0.00    +0.000 A 
ATOM     14  C   UNL     1       1.690   7.884  19.884  0.00  0.00    +0.000 A 
ATOM     15  S   UNL     1       1.813   6.353  20.655  0.00  0.00    +0.000 S 
ENDBRANCH   6   7
BRANCH   1  17
ATOM     16  O   UNL     1       5.379   5.210  19.794  0.00  0.00    +0.000 OA
ATOM     17  C   UNL     1       5.116   4.279  19.042  0.00  0.00    +0.000 C 
ATOM     18  N   UNL     1       5.984   3.896  18.024  0.00  0.00    +0.000 N 
ATOM     19  H   UNL     1       5.633   3.269  17.294  0.00  0.00    +0.000 HD
BRANCH  18  20
ATOM     20  C   UNL     1       7.264   4.578  17.853  0.00  0.00    +0.000 C 
ATOM     21  C   UNL     1       7.409   5.784  18.789  0.00  0.00    +0.000 C 
ATOM     22  O   UNL     1       7.183   6.982  18.025  0.00  0.00    +0.000 OA
ATOM     23  C   UNL     1       7.042   6.622  16.656  0.00  0.00    +0.000 C 
ATOM     24  C   UNL     1       5.578   6.558  16.209  0.00  0.00    +0.000 C 
ATOM     25  N   UNL     1       5.424   5.322  15.416  0.00  0.00    +0.000 NA
ATOM     26  C   UNL     1       6.766   4.743  15.266  0.00  0.00    +0.000 C 
ATOM     27  C   UNL     1       7.534   5.201  16.487  0.00  0.00    +0.000 C 
ATOM     28  H   UNL     1       5.031   5.540  14.500  0.00  0.00    +0.000 HD
ENDBRANCH  18  20
ENDBRANCH   1  17
TORSDOF 3
ENDMDL
MODEL 4
REMARK VINA RESULT:      -7.2      3.121      6.784
REMARK  Name = 
REMARK  3 active torsions:
REMARK  status: ('A' for Active; 'I' for Inactive)
REMARK    1  A    between atoms: C_2  and  C_12
REMARK    2  A    between atoms: N_3  and  C_4
REMARK    3  A    between atoms: C_17  and  C_18
REMARK                            x       y       z     vdW  Elec       q    Type
REMARK                         _______ _______ _______ _____ _____    ______ ____
ROOT
ATOM      1  C   UNL     1       6.079   5.278  18.637  0.00  0.00    +0.000 A 
ATOM      2  N   UNL     1       6.372   5.414  19.971  0.00  0.00    +0.000 NA
ATOM      3  C   UNL     1       7.680   5.300  20.298  0.00  0.00    +0.000 A 
ATOM      4  C   UNL     1       8.661   5.043  19.359  0.00  0.00    +0.000 A 
ATOM      5  N   UNL     1       8.379   4.884  18.048  0.00  0.00    +0.000 NA
ATOM      6  C   UNL     1       7.061   5.008  17.681  0.00  0.00    +0.000 A 
ENDROOT
BRANCH   6   7
ATOM      7  C   UNL     1       6.805   4.793  16.251  0.00  0.00    +0.000 A 
ATOM      8  N   UNL     1       7.426   5.404  15.260  0.00  0.00    +0.000 NA
ATOM      9  C   UNL     1       7.076   4.828  14.051  0.00  0.00    +0.000 A 
ATOM     10  C   UNL     1       7.661   5.113  12.802  0.00  0.00    +0.000 A 
ATOM     11  C   UNL     1       7.225   4.435  11.658  0.00  0.00    +0.000 A 
ATOM     12  C   UNL     1       6.197   3.502  11.742  0.00  0.00    +0.000 A 
ATOM     13  C   UNL     1       5.589   3.214  12.968  0.00  0.00    +0.000 A 
ATOM     14  C   UNL     1       6.061   3.874  14.115  0.00  0.00    +0.000 A 
ATOM     15  S   UNL     1       5.581   3.681  15.754  0.00  0.00    +0.000 S 
ENDBRANCH   6   7
BRANCH   1  17
ATOM     16  O   UNL     1       4.308   6.487  17.578  0.00  0.00    +0.000 OA
ATOM     17  C   UNL     1       4.642   5.545  18.288  0.00  0.00    +0.000 C 
ATOM     18  N   UNL     1       3.700   4.714  18.886  0.00  0.00    +0.000 N 
ATOM     19  H   UNL     1       4.010   4.086  19.633  0.00  0.00    +0.000 HD
BRANCH  18  20
ATOM     20  C   UNL     1       2.276   4.922  18.644  0.00  0.00    +0.000 C 
ATOM     21  C   UNL     1       1.503   5.211  19.936  0.00  0.00    +0.000 C 
ATOM     22  O   UNL     1       0.800   4.017  20.323  0.00  0.00    +0.000 OA
ATOM     23  C   UNL     1       0.967   3.045  19.297  0.00  0.00    +0.000 C 
ATOM     24  C   UNL     1       2.053   2.016  19.628  0.00  0.00    +0.000 C 
ATOM     25  N   UNL     1       2.869   1.845  18.409  0.00  0.00    +0.000 NA
ATOM     26  C   UNL     1       2.217   2.624  17.348  0.00  0.00    +0.000 C 
ATOM     27  C   UNL     1       1.497   3.745  18.064  0.00  0.00    +0.000 C 
ATOM     28  H   UNL     1       2.907   0.859  18.149  0.00  0.00    +0.000 HD
ENDBRANCH  18  20
ENDBRANCH   1  17
TORSDOF 3
ENDMDL
MODEL 5
REMARK VINA RESULT:      -7.1      1.931      4.824
REMARK  Name = 
REMARK  3 active torsions:
REMARK  status: ('A' for Active; 'I' for Inactive)
REMARK    1  A    between atoms: C_2  and  C_12
REMARK    2  A    between atoms: N_3  and  C_4
REMARK    3  A    between atoms: C_17  and  C_18
REMARK                            x       y       z     vdW  Elec       q    Type
REMARK                         _______ _______ _______ _____ _____    ______ ____
ROOT
ATOM      1  C   UNL     1       3.596   5.609  17.342  0.00  0.00    +0.000 A 
ATOM      2  N   UNL     1       4.518   5.001  16.526  0.00  0.00    +0.000 NA
ATOM      3  C   UNL     1       5.509   5.799  16.065  0.00  0.00    +0.000 A 
ATOM      4  C   UNL     1       5.583   7.144  16.374  0.00  0.00    +0.000 A 
ATOM      5  N   UNL     1       4.668   7.756  17.156  0.00  0.00    +0.000 NA
ATOM      6  C   UNL     1       3.657   6.969  17.652  0.00  0.00    +0.000 A 
ENDROOT
BRANCH   6   7
ATOM      7  C   UNL     1       2.672   7.690  18.469  0.00  0.00    +0.000 A 
ATOM      8  N   UNL     1       2.315   7.373  19.698  0.00  0.00    +0.000 NA
ATOM      9  C   UNL     1       1.516   8.368  20.234  0.00  0.00    +0.000 A 
ATOM     10  C   UNL     1       1.083   8.446  21.573  0.00  0.00    +0.000 A 
ATOM     11  C   UNL     1       0.295   9.526  21.987  0.00  0.00    +0.000 A 
ATOM     12  C   UNL     1      -0.088  10.507  21.079  0.00  0.00    +0.000 A 
ATOM     13  C   UNL     1       0.314  10.443  19.741  0.00  0.00    +0.000 A 
ATOM     14  C   UNL     1       1.137   9.374  19.346  0.00  0.00    +0.000 A 
ATOM     15  S   UNL     1       1.853   9.063  17.815  0.00  0.00    +0.000 S 
ENDBRANCH   6   7
BRANCH   1  17
ATOM     16  O   UNL     1       1.629   4.249  17.316  0.00  0.00    +0.000 OA
ATOM     17  C   UNL     1       2.591   4.671  17.947  0.00  0.00    +0.000 C 
ATOM     18  N   UNL     1       2.764   4.373  19.296  0.00  0.00    +0.000 N 
ATOM     19  H   UNL     1       3.450   4.915  19.830  0.00  0.00    +0.000 HD
BRANCH  18  20
ATOM     20  C   UNL     1       1.814   3.507  19.986  0.00  0.00    +0.000 C 
ATOM     21  C   UNL     1       1.737   3.808  21.488  0.00  0.00    +0.000 C 
ATOM     22  O   UNL     1       2.479   2.796  22.193  0.00  0.00    +0.000 OA
ATOM     23  C   UNL     1       2.898   1.812  21.256  0.00  0.00    +0.000 C 
ATOM     24  C   UNL     1       4.357   1.991  20.822  0.00  0.00    +0.000 C 
ATOM     25  N   UNL     1       4.392   1.826  19.355  0.00  0.00    +0.000 NA
ATOM     26  C   UNL     1       3.044   1.419  18.940  0.00  0.00    +0.000 C 
ATOM     27  C   UNL     1       2.114   2.011  19.977  0.00  0.00    +0.000 C 
ATOM     28  H   UNL     1       5.070   1.106  19.100  0.00  0.00    +0.000 HD
ENDBRANCH  18  20
ENDBRANCH   1  17
TORSDOF 3
ENDMDL
MODEL 6
REMARK VINA RESULT:      -6.9      1.100      1.359
REMARK  Name = 
REMARK  3 active torsions:
REMARK  status: ('A' for Active; 'I' for Inactive)
REMARK    1  A    between atoms: C_2  and  C_12
REMARK    2  A    between atoms: N_3  and  C_4
REMARK    3  A    between atoms: C_17  and  C_18
REMARK                            x       y       z     vdW  Elec       q    Type
REMARK                         _______ _______ _______ _____ _____    ______ ____
ROOT
ATOM      1  C   UNL     1       3.346   4.547  19.328  0.00  0.00    +0.000 A 
ATOM      2  N   UNL     1       3.667   3.233  19.563  0.00  0.00    +0.000 NA
ATOM      3  C   UNL     1       3.047   2.657  20.619  0.00  0.00    +0.000 A 
ATOM      4  C   UNL     1       2.161   3.346  21.425  0.00  0.00    +0.000 A 
ATOM      5  N   UNL     1       1.858   4.646  21.218  0.00  0.00    +0.000 NA
ATOM      6  C   UNL     1       2.461   5.255  20.144  0.00  0.00    +0.000 A 
ENDROOT
BRANCH   6   7
ATOM      7  C   UNL     1       2.122   6.675  19.983  0.00  0.00    +0.000 A 
ATOM      8  N   UNL     1       2.384   7.410  18.920  0.00  0.00    +0.000 NA
ATOM      9  C   UNL     1       1.761   8.641  19.026  0.00  0.00    +0.000 A 
ATOM     10  C   UNL     1       1.687   9.619  18.014  0.00  0.00    +0.000 A 
ATOM     11  C   UNL     1       1.000  10.815  18.250  0.00  0.00    +0.000 A 
ATOM     12  C   UNL     1       0.414  11.057  19.488  0.00  0.00    +0.000 A 
ATOM     13  C   UNL     1       0.488  10.110  20.514  0.00  0.00    +0.000 A 
ATOM     14  C   UNL     1       1.148   8.898  20.252  0.00  0.00    +0.000 A 
ATOM     15  S   UNL     1       1.336   7.523  21.266  0.00  0.00    +0.000 S 
ENDBRANCH   6   7
BRANCH   1  17
ATOM     16  O   UNL     1       3.659   4.683  16.962  0.00  0.00    +0.000 OA
ATOM     17  C   UNL     1       3.943   5.116  18.073  0.00  0.00    +0.000 C 
ATOM     18  N   UNL     1       4.902   6.109  18.245  0.00  0.00    +0.000 N 
ATOM     19  H   UNL     1       5.259   6.283  19.189  0.00  0.00    +0.000 HD
BRANCH  18  20
ATOM     20  C   UNL     1       5.573   6.693  17.087  0.00  0.00    +0.000 C 
ATOM     21  C   UNL     1       5.310   5.900  15.801  0.00  0.00    +0.000 C 
ATOM     22  O   UNL     1       6.477   5.110  15.509  0.00  0.00    +0.000 OA
ATOM     23  C   UNL     1       7.497   5.453  16.439  0.00  0.00    +0.000 C 
ATOM     24  C   UNL     1       7.613   4.446  17.589  0.00  0.00    +0.000 C 
ATOM     25  N   UNL     1       7.735   5.229  18.835  0.00  0.00    +0.000 NA
ATOM     26  C   UNL     1       7.837   6.641  18.442  0.00  0.00    +0.000 C 
ATOM     27  C   UNL     1       7.097   6.741  17.126  0.00  0.00    +0.000 C 
ATOM     28  H   UNL     1       8.571   4.945  19.346  0.00  0.00    +0.000 HD
ENDBRANCH  18  20
ENDBRANCH   1  17
TORSDOF 3
ENDMDL
MODEL 7
REMARK VINA RESULT:      -6.7      2.087      5.793
REMARK  Name = 
REMARK  3 active torsions:
REMARK  status: ('A' for Active; 'I' for Inactive)
REMARK    1  A    between atoms: C_2  and  C_12
REMARK    2  A    between atoms: N_3  and  C_4
REMARK    3  A    between atoms: C_17  and  C_18
REMARK                            x       y       z     vdW  Elec       q    Type
REMARK                         _______ _______ _______ _____ _____    ______ ____
ROOT
ATOM      1  C   UNL     1       2.193   7.386  19.418  0.00  0.00    +0.000 A 
ATOM      2  N   UNL     1       1.292   8.269  19.961  0.00  0.00    +0.000 NA
ATOM      3  C   UNL     1       1.086   9.404  19.254  0.00  0.00    +0.000 A 
ATOM      4  C   UNL     1       1.749   9.675  18.073  0.00  0.00    +0.000 A 
ATOM      5  N   UNL     1       2.655   8.824  17.543  0.00  0.00    +0.000 NA
ATOM      6  C   UNL     1       2.877   7.655  18.230  0.00  0.00    +0.000 A 
ENDROOT
BRANCH   6   7
ATOM      7  C   UNL     1       3.893   6.781  17.629  0.00  0.00    +0.000 A 
ATOM      8  N   UNL     1       3.651   5.674  16.955  0.00  0.00    +0.000 NA
ATOM      9  C   UNL     1       4.816   5.208  16.370  0.00  0.00    +0.000 A 
ATOM     10  C   UNL     1       4.909   4.144  15.451  0.00  0.00    +0.000 A 
ATOM     11  C   UNL     1       6.154   3.792  14.917  0.00  0.00    +0.000 A 
ATOM     12  C   UNL     1       7.305   4.468  15.310  0.00  0.00    +0.000 A 
ATOM     13  C   UNL     1       7.241   5.516  16.234  0.00  0.00    +0.000 A 
ATOM     14  C   UNL     1       5.980   5.884  16.734  0.00  0.00    +0.000 A 
ATOM     15  S   UNL     1       5.568   7.163  17.805  0.00  0.00    +0.000 S 
ENDBRANCH   6   7
BRANCH   1  17
ATOM     16  O   UNL     1       1.829   5.920  21.271  0.00  0.00    +0.000 OA
ATOM     17  C   UNL     1       2.298   6.079  20.150  0.00  0.00    +0.000 C 
ATOM     18  N   UNL     1       3.034   5.080  19.520  0.00  0.00    +0.000 N 
ATOM     19  H   UNL     1       3.584   5.329  18.692  0.00  0.00    +0.000 HD
BRANCH  18  20
ATOM     20  C   UNL     1       3.232   3.789  20.172  0.00  0.00    +0.000 C 
ATOM     21  C   UNL     1       4.553   3.127  19.762  0.00  0.00    +0.000 C 
ATOM     22  O   UNL     1       4.265   2.091  18.806  0.00  0.00    +0.000 OA
ATOM     23  C   UNL     1       2.853   1.966  18.690  0.00  0.00    +0.000 C 
ATOM     24  C   UNL     1       2.293   2.684  17.458  0.00  0.00    +0.000 C 
ATOM     25  N   UNL     1       1.093   3.423  17.898  0.00  0.00    +0.000 NA
ATOM     26  C   UNL     1       0.853   3.049  19.298  0.00  0.00    +0.000 C 
ATOM     27  C   UNL     1       2.216   2.696  19.854  0.00  0.00    +0.000 C 
ATOM     28  H   UNL     1       0.292   3.163  17.323  0.00  0.00    +0.000 HD
ENDBRANCH  18  20
ENDBRANCH   1  17
TORSDOF 3
ENDMDL
MODEL 8
REMARK VINA RESULT:      -6.6      1.732      2.385
REMARK  Name = 
REMARK  3 active torsions:
REMARK  status: ('A' for Active; 'I' for Inactive)
REMARK    1  A    between atoms: C_2  and  C_12
REMARK    2  A    between atoms: N_3  and  C_4
REMARK    3  A    between atoms: C_17  and  C_18
REMARK                            x       y       z     vdW  Elec       q    Type
REMARK                         _______ _______ _______ _____ _____    ______ ____
ROOT
ATOM      1  C   UNL     1       3.660   4.356  19.666  0.00  0.00    +0.000 A 
ATOM      2  N   UNL     1       4.019   3.038  19.802  0.00  0.00    +0.000 NA
ATOM      3  C   UNL     1       3.039   2.204  20.222  0.00  0.00    +0.000 A 
ATOM      4  C   UNL     1       1.764   2.646  20.516  0.00  0.00    +0.000 A 
ATOM      5  N   UNL     1       1.407   3.944  20.408  0.00  0.00    +0.000 NA
ATOM      6  C   UNL     1       2.376   4.814  19.970  0.00  0.00    +0.000 A 
ENDROOT
BRANCH   6   7
ATOM      7  C   UNL     1       1.946   6.218  19.901  0.00  0.00    +0.000 A 
ATOM      8  N   UNL     1       1.471   6.925  20.908  0.00  0.00    +0.000 NA
ATOM      9  C   UNL     1       1.348   8.253  20.541  0.00  0.00    +0.000 A 
ATOM     10  C   UNL     1       1.026   9.321  21.402  0.00  0.00    +0.000 A 
ATOM     11  C   UNL     1       0.959  10.625  20.899  0.00  0.00    +0.000 A 
ATOM     12  C   UNL     1       1.181  10.871  19.548  0.00  0.00    +0.000 A 
ATOM     13  C   UNL     1       1.485   9.827  18.670  0.00  0.00    +0.000 A 
ATOM     14  C   UNL     1       1.587   8.527  19.194  0.00  0.00    +0.000 A 
ATOM     15  S   UNL     1       2.018   7.066  18.398  0.00  0.00    +0.000 S 
ENDBRANCH   6   7
BRANCH   1  17
ATOM     16  O   UNL     1       5.593   5.762  19.753  0.00  0.00    +0.000 OA
ATOM     17  C   UNL     1       4.726   5.230  19.069  0.00  0.00    +0.000 C 
ATOM     18  N   UNL     1       4.625   5.474  17.702  0.00  0.00    +0.000 N 
ATOM     19  H   UNL     1       3.769   5.187  17.219  0.00  0.00    +0.000 HD
BRANCH  18  20
ATOM     20  C   UNL     1       5.588   6.347  17.037  0.00  0.00    +0.000 C 
ATOM     21  C   UNL     1       4.961   7.123  15.873  0.00  0.00    +0.000 C 
ATOM     22  O   UNL     1       5.362   6.497  14.641  0.00  0.00    +0.000 OA
ATOM     23  C   UNL     1       6.301   5.472  14.943  0.00  0.00    +0.000 C 
ATOM     24  C   UNL     1       5.668   4.077  14.963  0.00  0.00    +0.000 C 
ATOM     25  N   UNL     1       6.183   3.388  16.163  0.00  0.00    +0.000 NA
ATOM     26  C   UNL     1       7.194   4.271  16.759  0.00  0.00    +0.000 C 
ATOM     27  C   UNL     1       6.779   5.672  16.365  0.00  0.00    +0.000 C 
ATOM     28  H   UNL     1       6.605   2.497  15.900  0.00  0.00    +0.000 HD
ENDBRANCH  18  20
ENDBRANCH   1  17
TORSDOF 3
ENDMDL
MODEL 9
REMARK VINA RESULT:      -6.6      1.674      4.836
REMARK  Name = 
REMARK  3 active torsions:
REMARK  status: ('A' for Active; 'I' for Inactive)
REMARK    1  A    between atoms: C_2  and  C_12
REMARK    2  A    between atoms: N_3  and  C_4
REMARK    3  A    between atoms: C_17  and  C_18
REMARK                            x       y       z     vdW  Elec       q    Type
REMARK                         _______ _______ _______ _____ _____    ______ ____
ROOT
ATOM      1  C   UNL     1       4.644   4.634  17.028  0.00  0.00    +0.000 A 
ATOM      2  N   UNL     1       5.693   4.013  16.397  0.00  0.00    +0.000 NA
ATOM      3  C   UNL     1       6.835   4.733  16.310  0.00  0.00    +0.000 A 
ATOM      4  C   UNL     1       6.941   6.019  16.806  0.00  0.00    +0.000 A 
ATOM      5  N   UNL     1       5.908   6.648  17.407  0.00  0.00    +0.000 NA
ATOM      6  C   UNL     1       4.738   5.937  17.522  0.00  0.00    +0.000 A 
ENDROOT
BRANCH   6   7
ATOM      7  C   UNL     1       3.638   6.678  18.154  0.00  0.00    +0.000 A 
ATOM      8  N   UNL     1       3.060   6.367  19.298  0.00  0.00    +0.000 NA
ATOM      9  C   UNL     1       2.199   7.377  19.688  0.00  0.00    +0.000 A 
ATOM     10  C   UNL     1       1.535   7.463  20.927  0.00  0.00    +0.000 A 
ATOM     11  C   UNL     1       0.709   8.558  21.200  0.00  0.00    +0.000 A 
ATOM     12  C   UNL     1       0.515   9.549  20.244  0.00  0.00    +0.000 A 
ATOM     13  C   UNL     1       1.149   9.478  19.000  0.00  0.00    +0.000 A 
ATOM     14  C   UNL     1       2.006   8.393  18.752  0.00  0.00    +0.000 A 
ATOM     15  S   UNL     1       2.978   8.069  17.372  0.00  0.00    +0.000 S 
ENDBRANCH   6   7
BRANCH   1  17
ATOM     16  O   UNL     1       2.640   3.534  16.328  0.00  0.00    +0.000 OA
ATOM     17  C   UNL     1       3.438   3.762  17.230  0.00  0.00    +0.000 C 
ATOM     18  N   UNL     1       3.228   3.295  18.524  0.00  0.00    +0.000 N 
ATOM     19  H   UNL     1       3.797   3.686  19.280  0.00  0.00    +0.000 HD
BRANCH  18  20
ATOM     20  C   UNL     1       2.059   2.477  18.831  0.00  0.00    +0.000 C 
ATOM     21  C   UNL     1       0.748   3.260  18.687  0.00  0.00    +0.000 C 
ATOM     22  O   UNL     1       0.283   3.613  20.003  0.00  0.00    +0.000 OA
ATOM     23  C   UNL     1       1.133   2.993  20.961  0.00  0.00    +0.000 C 
ATOM     24  C   UNL     1       2.185   3.952  21.527  0.00  0.00    +0.000 C 
ATOM     25  N   UNL     1       3.469   3.224  21.537  0.00  0.00    +0.000 NA
ATOM     26  C   UNL     1       3.178   1.842  21.135  0.00  0.00    +0.000 C 
ATOM     27  C   UNL     1       1.952   1.935  20.253  0.00  0.00    +0.000 C 
ATOM     28  H   UNL     1       3.873   3.240  22.475  0.00  0.00    +0.000 HD
ENDBRANCH  18  20
ENDBRANCH   1  17
TORSDOF 3
ENDMDL
