MODEL 1
REMARK VINA RESULT:      -9.7      0.000      0.000
REMARK  Name = 
REMARK  6 active torsions:
REMARK  status: ('A' for Active; 'I' for Inactive)
REMARK    1  A    between atoms: C_1  and  N_2
REMARK    2  A    between atoms: N_2  and  C_3
REMARK    3  A    between atoms: C_4  and  C_6
REMARK    4  A    between atoms: C_9  and  N_10
REMARK    5  A    between atoms: C_11  and  C_13
REMARK    6  A    between atoms: C_15  and  C_16
REMARK                            x       y       z     vdW  Elec       q    Type
REMARK                         _______ _______ _______ _____ _____    ______ ____
ROOT
ATOM      1  C   UNL     1       2.852   6.265  18.929  0.00  0.00    +0.000 A 
ATOM      2  C   UNL     1       3.770   6.326  17.851  0.00  0.00    +0.000 A 
ATOM      3  C   UNL     1       4.312   5.155  17.313  0.00  0.00    +0.000 A 
ATOM      4  N   UNL     1       3.850   3.953  17.721  0.00  0.00    +0.000 NA
ATOM      5  C   UNL     1       2.879   3.881  18.639  0.00  0.00    +0.000 A 
ATOM      6  C   UNL     1       2.297   2.638  18.827  0.00  0.00    +0.000 A 
ATOM      7  C   UNL     1       1.245   2.450  19.720  0.00  0.00    +0.000 A 
ATOM      8  C   UNL     1       0.820   3.511  20.505  0.00  0.00    +0.000 A 
ATOM      9  C   UNL     1       1.389   4.772  20.333  0.00  0.00    +0.000 A 
ATOM     10  C   UNL     1       2.382   4.998  19.349  0.00  0.00    +0.000 A 
ENDROOT
BRANCH   3  11
ATOM     11  C   UNL     1       5.390   5.078  16.280  0.00  0.00    +0.000 A 
ATOM     12  C   UNL     1       5.244   4.402  15.062  0.00  0.00    +0.000 A 
ATOM     13  C   UNL     1       6.286   4.409  14.137  0.00  0.00    +0.000 A 
ATOM     14  N   UNL     1       7.467   5.031  14.322  0.00  0.00    +0.000 NA
ATOM     15  C   UNL     1       7.618   5.675  15.494  0.00  0.00    +0.000 A 
ATOM     16  C   UNL     1       6.635   5.719  16.476  0.00  0.00    +0.000 A 
ENDBRANCH   3  11
BRANCH   1  18
ATOM     17  N   UNL     1       1.843   7.748  20.698  0.00  0.00    +0.000 N 
ATOM     18  C   UNL     1       2.186   7.553  19.354  0.00  0.00    +0.000 C 
ATOM     19  O   UNL     1       2.007   8.381  18.458  0.00  0.00    +0.000 OA
ATOM     20  H   UNL     1       2.260   7.128  21.382  0.00  0.00    +0.000 HD
BRANCH  17  24
ATOM     21  C   UNL     1      -0.772  10.802  22.321  0.00  0.00    +0.000 A 
ATOM     22  C   UNL     1      -0.593  10.658  20.945  0.00  0.00    +0.000 A 
ATOM     23  C   UNL     1       0.259   9.662  20.406  0.00  0.00    +0.000 A 
ATOM     24  C   UNL     1       0.998   8.793  21.217  0.00  0.00    +0.000 A 
ATOM     25  C   UNL     1       0.851   8.960  22.604  0.00  0.00    +0.000 A 
ATOM     26  C   UNL     1      -0.011   9.952  23.145  0.00  0.00    +0.000 A 
BRANCH  21  30
ATOM     27  C   UNL     1      -2.116  14.169  23.677  0.00  0.00    +0.000 C 
ATOM     28  N   UNL     1      -1.206  13.227  23.029  0.00  0.00    +0.000 N 
ATOM     29  C   UNL     1      -0.148  13.814  22.218  0.00  0.00    +0.000 C 
ATOM     30  C   UNL     1      -1.624  11.882  22.950  0.00  0.00    +0.000 C 
ATOM     31  O   UNL     1      -2.724  11.536  23.387  0.00  0.00    +0.000 OA
ENDBRANCH  21  30
ENDBRANCH  17  24
ENDBRANCH   1  18
TORSDOF 4
ENDMDL
MODEL 2
REMARK VINA RESULT:      -9.5      0.233      1.228
REMARK  Name = 
REMARK  6 active torsions:
REMARK  status: ('A' for Active; 'I' for Inactive)
REMARK    1  A    between atoms: C_1  and  N_2
REMARK    2  A    between atoms: N_2  and  C_3
REMARK    3  A    between atoms: C_4  and  C_6
REMARK    4  A    between atoms: C_9  and  N_10
REMARK    5  A    between atoms: C_11  and  C_13
REMARK    6  A    between atoms: C_15  and  C_16
REMARK                            x       y       z     vdW  Elec       q    Type
REMARK                         _______ _______ _______ _____ _____    ______ ____
ROOT
ATOM      1  C   UNL     1       2.775   6.348  19.034  0.00  0.00    +0.000 A 
ATOM      2  C   UNL     1       3.703   6.436  17.967  0.00  0.00    +0.000 A 
ATOM      3  C   UNL     1       4.289   5.281  17.439  0.00  0.00    +0.000 A 
ATOM      4  N   UNL     1       3.863   4.066  17.847  0.00  0.00    +0.000 NA
ATOM      5  C   UNL     1       2.885   3.966  18.755  0.00  0.00    +0.000 A 
ATOM      6  C   UNL     1       2.342   2.705  18.941  0.00  0.00    +0.000 A 
ATOM      7  C   UNL     1       1.286   2.486  19.823  0.00  0.00    +0.000 A 
ATOM      8  C   UNL     1       0.818   3.534  20.599  0.00  0.00    +0.000 A 
ATOM      9  C   UNL     1       1.347   4.814  20.428  0.00  0.00    +0.000 A 
ATOM     10  C   UNL     1       2.343   5.069  19.454  0.00  0.00    +0.000 A 
ENDROOT
BRANCH   3  11
ATOM     11  C   UNL     1       5.381   5.237  16.418  0.00  0.00    +0.000 A 
ATOM     12  C   UNL     1       6.593   5.925  16.555  0.00  0.00    +0.000 A 
ATOM     13  C   UNL     1       7.574   5.802  15.574  0.00  0.00    +0.000 A 
ATOM     14  N   UNL     1       7.451   5.051  14.462  0.00  0.00    +0.000 NA
ATOM     15  C   UNL     1       6.285   4.394  14.318  0.00  0.00    +0.000 A 
ATOM     16  C   UNL     1       5.250   4.460  15.244  0.00  0.00    +0.000 A 
ENDBRANCH   3  11
BRANCH   1  18
ATOM     17  N   UNL     1       1.838   7.877  20.805  0.00  0.00    +0.000 N 
ATOM     18  C   UNL     1       2.063   7.616  19.447  0.00  0.00    +0.000 C 
ATOM     19  O   UNL     1       1.739   8.368  18.526  0.00  0.00    +0.000 OA
ATOM     20  H   UNL     1       2.363   7.332  21.479  0.00  0.00    +0.000 HD
BRANCH  17  24
ATOM     21  C   UNL     1      -0.673  11.034  22.394  0.00  0.00    +0.000 A 
ATOM     22  C   UNL     1      -0.257   9.968  23.192  0.00  0.00    +0.000 A 
ATOM     23  C   UNL     1       0.565   8.932  22.681  0.00  0.00    +0.000 A 
ATOM     24  C   UNL     1       0.974   8.896  21.343  0.00  0.00    +0.000 A 
ATOM     25  C   UNL     1       0.525   9.947  20.526  0.00  0.00    +0.000 A 
ATOM     26  C   UNL     1      -0.290  10.991  21.041  0.00  0.00    +0.000 A 
BRANCH  21  30
ATOM     27  C   UNL     1      -2.164  14.442  23.462  0.00  0.00    +0.000 C 
ATOM     28  N   UNL     1      -1.183  13.479  22.967  0.00  0.00    +0.000 N 
ATOM     29  C   UNL     1      -0.025  14.041  22.285  0.00  0.00    +0.000 C 
ATOM     30  C   UNL     1      -1.594  12.133  22.874  0.00  0.00    +0.000 C 
ATOM     31  O   UNL     1      -2.744  11.803  23.173  0.00  0.00    +0.000 OA
ENDBRANCH  21  30
ENDBRANCH  17  24
ENDBRANCH   1  18
TORSDOF 4
ENDMDL
MODEL 3
REMARK VINA RESULT:      -9.0      2.109      2.565
REMARK  Name = 
REMARK  6 active torsions:
REMARK  status: ('A' for Active; 'I' for Inactive)
REMARK    1  A    between atoms: C_1  and  N_2
REMARK    2  A    between atoms: N_2  and  C_3
REMARK    3  A    between atoms: C_4  and  C_6
REMARK    4  A    between atoms: C_9  and  N_10
REMARK    5  A    between atoms: C_11  and  C_13
REMARK    6  A    between atoms: C_15  and  C_16
REMARK                            x       y       z     vdW  Elec       q    Type
REMARK                         _______ _______ _______ _____ _____    ______ ____
ROOT
ATOM      1  C   UNL     1       2.774   6.329  18.890  0.00  0.00    +0.000 A 
ATOM      2  C   UNL     1       3.712   6.415  17.832  0.00  0.00    +0.000 A 
ATOM      3  C   UNL     1       4.274   5.257  17.284  0.00  0.00    +0.000 A 
ATOM      4  N   UNL     1       3.813   4.045  17.663  0.00  0.00    +0.000 NA
ATOM      5  C   UNL     1       2.826   3.951  18.561  0.00  0.00    +0.000 A 
ATOM      6  C   UNL     1       2.250   2.700  18.717  0.00  0.00    +0.000 A 
ATOM      7  C   UNL     1       1.182   2.490  19.586  0.00  0.00    +0.000 A 
ATOM      8  C   UNL     1       0.734   3.533  20.380  0.00  0.00    +0.000 A 
ATOM      9  C   UNL     1       1.296   4.802  20.240  0.00  0.00    +0.000 A 
ATOM     10  C   UNL     1       2.306   5.052  19.279  0.00  0.00    +0.000 A 
ENDROOT
BRANCH   3  11
ATOM     11  C   UNL     1       5.372   5.206  16.271  0.00  0.00    +0.000 A 
ATOM     12  C   UNL     1       6.598   5.864  16.429  0.00  0.00    +0.000 A 
ATOM     13  C   UNL     1       7.584   5.736  15.454  0.00  0.00    +0.000 A 
ATOM     14  N   UNL     1       7.453   5.008  14.327  0.00  0.00    +0.000 NA
ATOM     15  C   UNL     1       6.274   4.381  14.163  0.00  0.00    +0.000 A 
ATOM     16  C   UNL     1       5.233   4.454  15.082  0.00  0.00    +0.000 A 
ENDBRANCH   3  11
BRANCH   1  18
ATOM     17  N   UNL     1       1.597   8.492  18.359  0.00  0.00    +0.000 N 
ATOM     18  C   UNL     1       2.091   7.605  19.324  0.00  0.00    +0.000 C 
ATOM     19  O   UNL     1       1.995   7.770  20.541  0.00  0.00    +0.000 OA
ATOM     20  H   UNL     1       1.498   8.146  17.411  0.00  0.00    +0.000 HD
BRANCH  17  24
ATOM     21  C   UNL     1       0.346  12.567  19.151  0.00  0.00    +0.000 A 
ATOM     22  C   UNL     1      -0.527  11.494  19.329  0.00  0.00    +0.000 A 
ATOM     23  C   UNL     1      -0.126  10.159  19.074  0.00  0.00    +0.000 A 
ATOM     24  C   UNL     1       1.150   9.841  18.593  0.00  0.00    +0.000 A 
ATOM     25  C   UNL     1       2.020  10.922  18.374  0.00  0.00    +0.000 A 
ATOM     26  C   UNL     1       1.621  12.261  18.641  0.00  0.00    +0.000 A 
BRANCH  21  30
ATOM     27  C   UNL     1      -0.569  15.995  20.697  0.00  0.00    +0.000 C 
ATOM     28  N   UNL     1      -0.164  14.593  20.636  0.00  0.00    +0.000 N 
ATOM     29  C   UNL     1       0.423  14.044  21.851  0.00  0.00    +0.000 C 
ATOM     30  C   UNL     1      -0.047  14.013  19.356  0.00  0.00    +0.000 C 
ATOM     31  O   UNL     1      -0.252  14.681  18.339  0.00  0.00    +0.000 OA
ENDBRANCH  21  30
ENDBRANCH  17  24
ENDBRANCH   1  18
TORSDOF 4
ENDMDL
MODEL 4
REMARK VINA RESULT:      -9.0      2.303      2.604
REMARK  Name = 
REMARK  6 active torsions:
REMARK  status: ('A' for Active; 'I' for Inactive)
REMARK    1  A    between atoms: C_1  and  N_2
REMARK    2  A    between atoms: N_2  and  C_3
REMARK    3  A    between atoms: C_4  and  C_6
REMARK    4  A    between atoms: C_9  and  N_10
REMARK    5  A    between atoms: C_11  and  C_13
REMARK    6  A    between atoms: C_15  and  C_16
REMARK                            x       y       z     vdW  Elec       q    Type
REMARK                         _______ _______ _______ _____ _____    ______ ____
ROOT
ATOM      1  C   UNL     1       2.894   5.999  18.611  0.00  0.00    +0.000 A 
ATOM      2  C   UNL     1       3.803   6.053  17.526  0.00  0.00    +0.000 A 
ATOM      3  C   UNL     1       4.276   4.877  16.936  0.00  0.00    +0.000 A 
ATOM      4  N   UNL     1       3.754   3.686  17.304  0.00  0.00    +0.000 NA
ATOM      5  C   UNL     1       2.790   3.630  18.230  0.00  0.00    +0.000 A 
ATOM      6  C   UNL     1       2.144   2.413  18.377  0.00  0.00    +0.000 A 
ATOM      7  C   UNL     1       1.092   2.247  19.274  0.00  0.00    +0.000 A 
ATOM      8  C   UNL     1       0.733   3.297  20.105  0.00  0.00    +0.000 A 
ATOM      9  C   UNL     1       1.367   4.533  19.975  0.00  0.00    +0.000 A 
ATOM     10  C   UNL     1       2.361   4.744  18.988  0.00  0.00    +0.000 A 
ENDROOT
BRANCH   3  11
ATOM     11  C   UNL     1       5.338   4.783  15.888  0.00  0.00    +0.000 A 
ATOM     12  C   UNL     1       5.165   4.107  14.674  0.00  0.00    +0.000 A 
ATOM     13  C   UNL     1       6.193   4.098  13.734  0.00  0.00    +0.000 A 
ATOM     14  N   UNL     1       7.386   4.704  13.901  0.00  0.00    +0.000 NA
ATOM     15  C   UNL     1       7.563   5.347  15.070  0.00  0.00    +0.000 A 
ATOM     16  C   UNL     1       6.595   5.407  16.066  0.00  0.00    +0.000 A 
ENDBRANCH   3  11
BRANCH   1  18
ATOM     17  N   UNL     1       1.813   8.231  18.165  0.00  0.00    +0.000 N 
ATOM     18  C   UNL     1       2.303   7.303  19.094  0.00  0.00    +0.000 C 
ATOM     19  O   UNL     1       2.273   7.454  20.317  0.00  0.00    +0.000 OA
ATOM     20  H   UNL     1       1.651   7.905  17.219  0.00  0.00    +0.000 HD
BRANCH  17  24
ATOM     21  C   UNL     1       0.839  12.361  19.053  0.00  0.00    +0.000 A 
ATOM     22  C   UNL     1      -0.004  11.319  19.440  0.00  0.00    +0.000 A 
ATOM     23  C   UNL     1       0.308   9.966  19.155  0.00  0.00    +0.000 A 
ATOM     24  C   UNL     1       1.452   9.599  18.438  0.00  0.00    +0.000 A 
ATOM     25  C   UNL     1       2.284  10.647  18.012  0.00  0.00    +0.000 A 
ATOM     26  C   UNL     1       1.977  12.004  18.307  0.00  0.00    +0.000 A 
BRANCH  21  30
ATOM     27  C   UNL     1       0.646  15.946  20.499  0.00  0.00    +0.000 C 
ATOM     28  N   UNL     1       1.037  14.543  20.383  0.00  0.00    +0.000 N 
ATOM     29  C   UNL     1       2.181  14.130  21.185  0.00  0.00    +0.000 C 
ATOM     30  C   UNL     1       0.527  13.824  19.282  0.00  0.00    +0.000 C 
ATOM     31  O   UNL     1      -0.193  14.375  18.447  0.00  0.00    +0.000 OA
ENDBRANCH  21  30
ENDBRANCH  17  24
ENDBRANCH   1  18
TORSDOF 4
ENDMDL
MODEL 5
REMARK VINA RESULT:      -9.0      2.103      2.404
REMARK  Name = 
REMARK  6 active torsions:
REMARK  status: ('A' for Active; 'I' for Inactive)
REMARK    1  A    between atoms: C_1  and  N_2
REMARK    2  A    between atoms: N_2  and  C_3
REMARK    3  A    between atoms: C_4  and  C_6
REMARK    4  A    between atoms: C_9  and  N_10
REMARK    5  A    between atoms: C_11  and  C_13
REMARK    6  A    between atoms: C_15  and  C_16
REMARK                            x       y       z     vdW  Elec       q    Type
REMARK                         _______ _______ _______ _____ _____    ______ ____
ROOT
ATOM      1  C   UNL     1       2.812   6.294  18.885  0.00  0.00    +0.000 A 
ATOM      2  C   UNL     1       3.750   6.361  17.825  0.00  0.00    +0.000 A 
ATOM      3  C   UNL     1       4.296   5.192  17.285  0.00  0.00    +0.000 A 
ATOM      4  N   UNL     1       3.822   3.988  17.674  0.00  0.00    +0.000 NA
ATOM      5  C   UNL     1       2.834   3.913  18.573  0.00  0.00    +0.000 A 
ATOM      6  C   UNL     1       2.243   2.670  18.739  0.00  0.00    +0.000 A 
ATOM      7  C   UNL     1       1.173   2.479  19.610  0.00  0.00    +0.000 A 
ATOM      8  C   UNL     1       0.740   3.534  20.397  0.00  0.00    +0.000 A 
ATOM      9  C   UNL     1       1.317   4.795  20.248  0.00  0.00    +0.000 A 
ATOM     10  C   UNL     1       2.329   5.025  19.284  0.00  0.00    +0.000 A 
ENDROOT
BRANCH   3  11
ATOM     11  C   UNL     1       5.393   5.120  16.271  0.00  0.00    +0.000 A 
ATOM     12  C   UNL     1       5.278   4.428  15.059  0.00  0.00    +0.000 A 
ATOM     13  C   UNL     1       6.335   4.440  14.152  0.00  0.00    +0.000 A 
ATOM     14  N   UNL     1       7.503   5.083  14.349  0.00  0.00    +0.000 NA
ATOM     15  C   UNL     1       7.625   5.742  15.516  0.00  0.00    +0.000 A 
ATOM     16  C   UNL     1       6.625   5.783  16.481  0.00  0.00    +0.000 A 
ENDBRANCH   3  11
BRANCH   1  18
ATOM     17  N   UNL     1       1.757   8.516  18.341  0.00  0.00    +0.000 N 
ATOM     18  C   UNL     1       2.145   7.581  19.310  0.00  0.00    +0.000 C 
ATOM     19  O   UNL     1       1.963   7.712  20.522  0.00  0.00    +0.000 OA
ATOM     20  H   UNL     1       1.717   8.204  17.378  0.00  0.00    +0.000 HD
BRANCH  17  24
ATOM     21  C   UNL     1       0.414  12.586  18.994  0.00  0.00    +0.000 A 
ATOM     22  C   UNL     1       1.717  12.312  18.579  0.00  0.00    +0.000 A 
ATOM     23  C   UNL     1       2.164  10.984  18.362  0.00  0.00    +0.000 A 
ATOM     24  C   UNL     1       1.342   9.874  18.588  0.00  0.00    +0.000 A 
ATOM     25  C   UNL     1       0.041  10.144  19.044  0.00  0.00    +0.000 A 
ATOM     26  C   UNL     1      -0.410  11.476  19.251  0.00  0.00    +0.000 A 
BRANCH  21  30
ATOM     27  C   UNL     1      -0.813  15.804  20.763  0.00  0.00    +0.000 C 
ATOM     28  N   UNL     1      -0.299  14.444  20.610  0.00  0.00    +0.000 N 
ATOM     29  C   UNL     1       0.292  13.847  21.800  0.00  0.00    +0.000 C 
ATOM     30  C   UNL     1      -0.097  13.979  19.294  0.00  0.00    +0.000 C 
ATOM     31  O   UNL     1      -0.322  14.707  18.325  0.00  0.00    +0.000 OA
ENDBRANCH  21  30
ENDBRANCH  17  24
ENDBRANCH   1  18
TORSDOF 4
ENDMDL
MODEL 6
REMARK VINA RESULT:      -8.6      2.952     10.625
REMARK  Name = 
REMARK  6 active torsions:
REMARK  status: ('A' for Active; 'I' for Inactive)
REMARK    1  A    between atoms: C_1  and  N_2
REMARK    2  A    between atoms: N_2  and  C_3
REMARK    3  A    between atoms: C_4  and  C_6
REMARK    4  A    between atoms: C_9  and  N_10
REMARK    5  A    between atoms: C_11  and  C_13
REMARK    6  A    between atoms: C_15  and  C_16
REMARK                            x       y       z     vdW  Elec       q    Type
REMARK                         _______ _______ _______ _____ _____    ______ ____
ROOT
ATOM      1  C   UNL     1       0.109  11.541  21.314  0.00  0.00    +0.000 A 
ATOM      2  C   UNL     1      -1.180  11.423  21.890  0.00  0.00    +0.000 A 
ATOM      3  C   UNL     1      -2.065  12.506  21.876  0.00  0.00    +0.000 A 
ATOM      4  N   UNL     1      -1.749  13.622  21.184  0.00  0.00    +0.000 NA
ATOM      5  C   UNL     1      -0.592  13.694  20.515  0.00  0.00    +0.000 A 
ATOM      6  C   UNL     1      -0.449  14.760  19.642  0.00  0.00    +0.000 A 
ATOM      7  C   UNL     1       0.691  14.914  18.856  0.00  0.00    +0.000 A 
ATOM      8  C   UNL     1       1.747  14.029  19.007  0.00  0.00    +0.000 A 
ATOM      9  C   UNL     1       1.625  12.946  19.877  0.00  0.00    +0.000 A 
ATOM     10  C   UNL     1       0.428  12.718  20.597  0.00  0.00    +0.000 A 
ENDROOT
BRANCH   3  11
ATOM     11  C   UNL     1      -3.390  12.567  22.566  0.00  0.00    +0.000 A 
ATOM     12  C   UNL     1      -4.594  12.830  21.901  0.00  0.00    +0.000 A 
ATOM     13  C   UNL     1      -5.792  12.835  22.613  0.00  0.00    +0.000 A 
ATOM     14  N   UNL     1      -5.894  12.602  23.936  0.00  0.00    +0.000 NA
ATOM     15  C   UNL     1      -4.740  12.358  24.584  0.00  0.00    +0.000 A 
ATOM     16  C   UNL     1      -3.499  12.336  23.957  0.00  0.00    +0.000 A 
ENDBRANCH   3  11
BRANCH   1  18
ATOM     17  N   UNL     1       1.041   9.598  20.007  0.00  0.00    +0.000 N 
ATOM     18  C   UNL     1       0.951  10.289  21.223  0.00  0.00    +0.000 C 
ATOM     19  O   UNL     1       1.537   9.965  22.258  0.00  0.00    +0.000 OA
ATOM     20  H   UNL     1       0.736  10.083  19.170  0.00  0.00    +0.000 HD
BRANCH  17  24
ATOM     21  C   UNL     1       2.614   5.616  19.327  0.00  0.00    +0.000 A 
ATOM     22  C   UNL     1       1.974   5.948  20.521  0.00  0.00    +0.000 A 
ATOM     23  C   UNL     1       1.456   7.247  20.752  0.00  0.00    +0.000 A 
ATOM     24  C   UNL     1       1.589   8.280  19.817  0.00  0.00    +0.000 A 
ATOM     25  C   UNL     1       2.267   7.961  18.628  0.00  0.00    +0.000 A 
ATOM     26  C   UNL     1       2.778   6.656  18.393  0.00  0.00    +0.000 A 
BRANCH  21  30
ATOM     27  C   UNL     1       3.182   1.849  18.642  0.00  0.00    +0.000 C 
ATOM     28  N   UNL     1       2.460   3.096  18.884  0.00  0.00    +0.000 N 
ATOM     29  C   UNL     1       1.038   3.083  18.570  0.00  0.00    +0.000 C 
ATOM     30  C   UNL     1       3.234   4.264  19.052  0.00  0.00    +0.000 C 
ATOM     31  O   UNL     1       4.463   4.224  18.968  0.00  0.00    +0.000 OA
ENDBRANCH  21  30
ENDBRANCH  17  24
ENDBRANCH   1  18
TORSDOF 4
ENDMDL
MODEL 7
REMARK VINA RESULT:      -8.6      3.194      9.390
REMARK  Name = 
REMARK  6 active torsions:
REMARK  status: ('A' for Active; 'I' for Inactive)
REMARK    1  A    between atoms: C_1  and  N_2
REMARK    2  A    between atoms: N_2  and  C_3
REMARK    3  A    between atoms: C_4  and  C_6
REMARK    4  A    between atoms: C_9  and  N_10
REMARK    5  A    between atoms: C_11  and  C_13
REMARK    6  A    between atoms: C_15  and  C_16
REMARK                            x       y       z     vdW  Elec       q    Type
REMARK                         _______ _______ _______ _____ _____    ______ ____
ROOT
ATOM      1  C   UNL     1       0.444  11.533  19.521  0.00  0.00    +0.000 A 
ATOM      2  C   UNL     1       1.230  12.522  18.880  0.00  0.00    +0.000 A 
ATOM      3  C   UNL     1       1.176  13.854  19.301  0.00  0.00    +0.000 A 
ATOM      4  N   UNL     1       0.485  14.178  20.416  0.00  0.00    +0.000 NA
ATOM      5  C   UNL     1      -0.148  13.229  21.114  0.00  0.00    +0.000 A 
ATOM      6  C   UNL     1      -0.627  13.595  22.362  0.00  0.00    +0.000 A 
ATOM      7  C   UNL     1      -1.260  12.680  23.201  0.00  0.00    +0.000 A 
ATOM      8  C   UNL     1      -1.496  11.392  22.748  0.00  0.00    +0.000 A 
ATOM      9  C   UNL     1      -1.022  10.998  21.497  0.00  0.00    +0.000 A 
ATOM     10  C   UNL     1      -0.279  11.888  20.684  0.00  0.00    +0.000 A 
ENDROOT
BRANCH   3  11
ATOM     11  C   UNL     1       1.836  15.016  18.630  0.00  0.00    +0.000 A 
ATOM     12  C   UNL     1       3.049  14.919  17.937  0.00  0.00    +0.000 A 
ATOM     13  C   UNL     1       3.580  16.043  17.309  0.00  0.00    +0.000 A 
ATOM     14  N   UNL     1       3.006  17.263  17.313  0.00  0.00    +0.000 NA
ATOM     15  C   UNL     1       1.845  17.366  17.986  0.00  0.00    +0.000 A 
ATOM     16  C   UNL     1       1.243  16.300  18.644  0.00  0.00    +0.000 A 
ENDBRANCH   3  11
BRANCH   1  18
ATOM     17  N   UNL     1       1.459   9.263  19.928  0.00  0.00    +0.000 N 
ATOM     18  C   UNL     1       0.670  10.093  19.121  0.00  0.00    +0.000 C 
ATOM     19  O   UNL     1       0.105   9.733  18.086  0.00  0.00    +0.000 OA
ATOM     20  H   UNL     1       1.658   9.578  20.871  0.00  0.00    +0.000 HD
BRANCH  17  24
ATOM     21  C   UNL     1       3.064   5.354  18.959  0.00  0.00    +0.000 A 
ATOM     22  C   UNL     1       3.159   6.418  18.062  0.00  0.00    +0.000 A 
ATOM     23  C   UNL     1       2.638   7.700  18.371  0.00  0.00    +0.000 A 
ATOM     24  C   UNL     1       1.967   7.963  19.571  0.00  0.00    +0.000 A 
ATOM     25  C   UNL     1       1.834   6.883  20.460  0.00  0.00    +0.000 A 
ATOM     26  C   UNL     1       2.366   5.601  20.154  0.00  0.00    +0.000 A 
BRANCH  21  30
ATOM     27  C   UNL     1       3.290   1.540  18.340  0.00  0.00    +0.000 C 
ATOM     28  N   UNL     1       2.689   2.840  18.627  0.00  0.00    +0.000 N 
ATOM     29  C   UNL     1       1.241   2.919  18.492  0.00  0.00    +0.000 C 
ATOM     30  C   UNL     1       3.553   3.955  18.656  0.00  0.00    +0.000 C 
ATOM     31  O   UNL     1       4.757   3.826  18.421  0.00  0.00    +0.000 OA
ENDBRANCH  21  30
ENDBRANCH  17  24
ENDBRANCH   1  18
TORSDOF 4
ENDMDL
MODEL 8
REMARK VINA RESULT:      -8.6      2.692     10.329
REMARK  Name = 
REMARK  6 active torsions:
REMARK  status: ('A' for Active; 'I' for Inactive)
REMARK    1  A    between atoms: C_1  and  N_2
REMARK    2  A    between atoms: N_2  and  C_3
REMARK    3  A    between atoms: C_4  and  C_6
REMARK    4  A    between atoms: C_9  and  N_10
REMARK    5  A    between atoms: C_11  and  C_13
REMARK    6  A    between atoms: C_15  and  C_16
REMARK                            x       y       z     vdW  Elec       q    Type
REMARK                         _______ _______ _______ _____ _____    ______ ____
ROOT
ATOM      1  C   UNL     1      -0.315  10.424  20.686  0.00  0.00    +0.000 A 
ATOM      2  C   UNL     1      -0.658  11.130  21.865  0.00  0.00    +0.000 A 
ATOM      3  C   UNL     1      -1.549  12.207  21.814  0.00  0.00    +0.000 A 
ATOM      4  N   UNL     1      -2.199  12.485  20.663  0.00  0.00    +0.000 NA
ATOM      5  C   UNL     1      -1.991  11.736  19.574  0.00  0.00    +0.000 A 
ATOM      6  C   UNL     1      -2.863  11.929  18.515  0.00  0.00    +0.000 A 
ATOM      7  C   UNL     1      -2.776  11.173  17.348  0.00  0.00    +0.000 A 
ATOM      8  C   UNL     1      -1.741  10.263  17.202  0.00  0.00    +0.000 A 
ATOM      9  C   UNL     1      -0.852  10.048  18.256  0.00  0.00    +0.000 A 
ATOM     10  C   UNL     1      -1.001  10.731  19.487  0.00  0.00    +0.000 A 
ENDROOT
BRANCH   3  11
ATOM     11  C   UNL     1      -1.887  13.125  22.946  0.00  0.00    +0.000 A 
ATOM     12  C   UNL     1      -1.014  14.107  23.429  0.00  0.00    +0.000 A 
ATOM     13  C   UNL     1      -1.419  14.946  24.464  0.00  0.00    +0.000 A 
ATOM     14  N   UNL     1      -2.624  14.888  25.065  0.00  0.00    +0.000 NA
ATOM     15  C   UNL     1      -3.466  13.940  24.613  0.00  0.00    +0.000 A 
ATOM     16  C   UNL     1      -3.146  13.058  23.587  0.00  0.00    +0.000 A 
ENDBRANCH   3  11
BRANCH   1  18
ATOM     17  N   UNL     1       1.312   8.733  19.768  0.00  0.00    +0.000 N 
ATOM     18  C   UNL     1       0.525   9.177  20.839  0.00  0.00    +0.000 C 
ATOM     19  O   UNL     1       0.472   8.631  21.943  0.00  0.00    +0.000 OA
ATOM     20  H   UNL     1       1.481   9.385  19.010  0.00  0.00    +0.000 HD
BRANCH  17  24
ATOM     21  C   UNL     1       3.220   4.863  19.345  0.00  0.00    +0.000 A 
ATOM     22  C   UNL     1       2.412   5.156  20.444  0.00  0.00    +0.000 A 
ATOM     23  C   UNL     1       1.784   6.418  20.590  0.00  0.00    +0.000 A 
ATOM     24  C   UNL     1       1.966   7.454  19.666  0.00  0.00    +0.000 A 
ATOM     25  C   UNL     1       2.810   7.176  18.578  0.00  0.00    +0.000 A 
ATOM     26  C   UNL     1       3.432   5.907  18.426  0.00  0.00    +0.000 A 
BRANCH  21  30
ATOM     27  C   UNL     1       4.136   1.169  18.639  0.00  0.00    +0.000 C 
ATOM     28  N   UNL     1       3.312   2.371  18.752  0.00  0.00    +0.000 N 
ATOM     29  C   UNL     1       2.018   2.324  18.087  0.00  0.00    +0.000 C 
ATOM     30  C   UNL     1       3.958   3.554  19.169  0.00  0.00    +0.000 C 
ATOM     31  O   UNL     1       5.169   3.566  19.397  0.00  0.00    +0.000 OA
ENDBRANCH  21  30
ENDBRANCH  17  24
ENDBRANCH   1  18
TORSDOF 4
ENDMDL
MODEL 9
REMARK VINA RESULT:      -8.5      1.345      1.449
REMARK  Name = 
REMARK  6 active torsions:
REMARK  status: ('A' for Active; 'I' for Inactive)
REMARK    1  A    between atoms: C_1  and  N_2
REMARK    2  A    between atoms: N_2  and  C_3
REMARK    3  A    between atoms: C_4  and  C_6
REMARK    4  A    between atoms: C_9  and  N_10
REMARK    5  A    between atoms: C_11  and  C_13
REMARK    6  A    between atoms: C_15  and  C_16
REMARK                            x       y       z     vdW  Elec       q    Type
REMARK                         _______ _______ _______ _____ _____    ______ ____
ROOT
ATOM      1  C   UNL     1       2.898   6.762  18.418  0.00  0.00    +0.000 A 
ATOM      2  C   UNL     1       3.795   6.600  17.334  0.00  0.00    +0.000 A 
ATOM      3  C   UNL     1       4.380   5.356  17.075  0.00  0.00    +0.000 A 
ATOM      4  N   UNL     1       3.978   4.269  17.770  0.00  0.00    +0.000 NA
ATOM      5  C   UNL     1       3.026   4.381  18.704  0.00  0.00    +0.000 A 
ATOM      6  C   UNL     1       2.502   3.197  19.197  0.00  0.00    +0.000 A 
ATOM      7  C   UNL     1       1.473   3.188  20.136  0.00  0.00    +0.000 A 
ATOM      8  C   UNL     1       1.016   4.387  20.657  0.00  0.00    +0.000 A 
ATOM      9  C   UNL     1       1.526   5.593  20.175  0.00  0.00    +0.000 A 
ATOM     10  C   UNL     1       2.492   5.615  19.140  0.00  0.00    +0.000 A 
ENDROOT
BRANCH   3  11
ATOM     11  C   UNL     1       5.444   5.077  16.062  0.00  0.00    +0.000 A 
ATOM     12  C   UNL     1       5.210   4.375  14.873  0.00  0.00    +0.000 A 
ATOM     13  C   UNL     1       6.249   4.189  13.964  0.00  0.00    +0.000 A 
ATOM     14  N   UNL     1       7.507   4.640  14.139  0.00  0.00    +0.000 NA
ATOM     15  C   UNL     1       7.741   5.307  15.284  0.00  0.00    +0.000 A 
ATOM     16  C   UNL     1       6.767   5.538  16.249  0.00  0.00    +0.000 A 
ENDBRANCH   3  11
BRANCH   1  18
ATOM     17  N   UNL     1       1.640   8.473  19.774  0.00  0.00    +0.000 N 
ATOM     18  C   UNL     1       2.184   8.088  18.542  0.00  0.00    +0.000 C 
ATOM     19  O   UNL     1       2.150   8.772  17.517  0.00  0.00    +0.000 OA
ATOM     20  H   UNL     1       1.943   7.966  20.598  0.00  0.00    +0.000 HD
BRANCH  17  24
ATOM     21  C   UNL     1      -1.136  11.710  20.556  0.00  0.00    +0.000 A 
ATOM     22  C   UNL     1      -1.177  10.994  19.360  0.00  0.00    +0.000 A 
ATOM     23  C   UNL     1      -0.275   9.934  19.096  0.00  0.00    +0.000 A 
ATOM     24  C   UNL     1       0.732   9.569  19.998  0.00  0.00    +0.000 A 
ATOM     25  C   UNL     1       0.802  10.313  21.187  0.00  0.00    +0.000 A 
ATOM     26  C   UNL     1      -0.110  11.370  21.456  0.00  0.00    +0.000 A 
BRANCH  21  30
ATOM     27  C   UNL     1      -2.620  15.263  20.955  0.00  0.00    +0.000 C 
ATOM     28  N   UNL     1      -1.665  14.218  20.593  0.00  0.00    +0.000 N 
ATOM     29  C   UNL     1      -0.605  14.611  19.675  0.00  0.00    +0.000 C 
ATOM     30  C   UNL     1      -2.038  12.885  20.864  0.00  0.00    +0.000 C 
ATOM     31  O   UNL     1      -3.138  12.625  21.358  0.00  0.00    +0.000 OA
ENDBRANCH  21  30
ENDBRANCH  17  24
ENDBRANCH   1  18
TORSDOF 4
ENDMDL
