MODEL 1
REMARK VINA RESULT:      -9.3      0.000      0.000
REMARK  Name = 
REMARK  5 active torsions:
REMARK  status: ('A' for Active; 'I' for Inactive)
REMARK    1  A    between atoms: C_1  and  C_2
REMARK    2  A    between atoms: C_2  and  N_3
REMARK    3  A    between atoms: C_2  and  C_16
REMARK    4  A    between atoms: C_4  and  C_6
REMARK    5  A    between atoms: C_6  and  C_7
REMARK                            x       y       z     vdW  Elec       q    Type
REMARK                         _______ _______ _______ _____ _____    ______ ____
ROOT
ATOM      1  N   UNL     1       3.450   5.193  18.239  0.00  0.00    +0.000 N 
ATOM      2  C   UNL     1       4.497   4.306  18.100  0.00  0.00    +0.000 C 
ATOM      3  O   UNL     1       5.211   3.970  19.044  0.00  0.00    +0.000 OA
ATOM      4  H   UNL     1       3.041   5.593  17.403  0.00  0.00    +0.000 HD
ENDROOT
BRANCH   1   6
ATOM      5  C   UNL     1       2.345   4.865  20.427  0.00  0.00    +0.000 C 
ATOM      6  C   UNL     1       3.147   5.807  19.524  0.00  0.00    +0.000 C 
BRANCH   6   7
ATOM      7  C   UNL     1       2.413   7.118  19.319  0.00  0.00    +0.000 A 
ATOM      8  C   UNL     1       2.405   7.758  18.074  0.00  0.00    +0.000 A 
ATOM      9  C   UNL     1       1.765   8.987  17.907  0.00  0.00    +0.000 A 
ATOM     10  C   UNL     1       1.117   9.607  18.988  0.00  0.00    +0.000 A 
ATOM     11  C   UNL     1       0.485  10.850  18.843  0.00  0.00    +0.000 A 
ATOM     12  C   UNL     1      -0.150  11.457  19.930  0.00  0.00    +0.000 A 
ATOM     13  C   UNL     1      -0.168  10.821  21.167  0.00  0.00    +0.000 A 
ATOM     14  C   UNL     1       0.452   9.581  21.325  0.00  0.00    +0.000 A 
ATOM     15  C   UNL     1       1.096   8.963  20.242  0.00  0.00    +0.000 A 
ATOM     16  C   UNL     1       1.749   7.726  20.395  0.00  0.00    +0.000 A 
ENDBRANCH   6   7
ENDBRANCH   1   6
BRANCH   2  17
ATOM     17  C   UNL     1       4.683   3.733  16.704  0.00  0.00    +0.000 C 
BRANCH  17  18
ATOM     18  C   UNL     1       5.775   4.405  15.933  0.00  0.00    +0.000 A 
ATOM     19  C   UNL     1       6.634   5.368  16.430  0.00  0.00    +0.000 A 
ATOM     20  N   UNL     1       7.500   5.731  15.437  0.00  0.00    +0.000 N 
ATOM     21  C   UNL     1       7.191   5.073  14.270  0.00  0.00    +0.000 A 
ATOM     22  C   UNL     1       7.786   5.162  13.006  0.00  0.00    +0.000 A 
ATOM     23  C   UNL     1       7.260   4.368  11.984  0.00  0.00    +0.000 A 
ATOM     24  C   UNL     1       6.188   3.513  12.225  0.00  0.00    +0.000 A 
ATOM     25  C   UNL     1       5.609   3.432  13.498  0.00  0.00    +0.000 A 
ATOM     26  C   UNL     1       6.113   4.230  14.548  0.00  0.00    +0.000 A 
ATOM     27  H   UNL     1       8.257   6.395  15.532  0.00  0.00    +0.000 HD
ENDBRANCH  17  18
ENDBRANCH   2  17
TORSDOF 4
ENDMDL
MODEL 2
REMARK VINA RESULT:      -8.8      5.202      7.544
REMARK  Name = 
REMARK  5 active torsions:
REMARK  status: ('A' for Active; 'I' for Inactive)
REMARK    1  A    between atoms: C_1  and  C_2
REMARK    2  A    between atoms: C_2  and  N_3
REMARK    3  A    between atoms: C_2  and  C_16
REMARK    4  A    between atoms: C_4  and  C_6
REMARK    5  A    between atoms: C_6  and  C_7
REMARK                            x       y       z     vdW  Elec       q    Type
REMARK                         _______ _______ _______ _____ _____    ______ ____
ROOT
ATOM      1  N   UNL     1       7.290   7.464  16.906  0.00  0.00    +0.000 N 
ATOM      2  C   UNL     1       8.017   8.109  17.884  0.00  0.00    +0.000 C 
ATOM      3  O   UNL     1       8.560   7.510  18.811  0.00  0.00    +0.000 OA
ATOM      4  H   UNL     1       6.696   8.017  16.300  0.00  0.00    +0.000 HD
ENDROOT
BRANCH   1   6
ATOM      5  C   UNL     1       7.550   5.363  15.627  0.00  0.00    +0.000 C 
ATOM      6  C   UNL     1       7.102   6.020  16.936  0.00  0.00    +0.000 C 
BRANCH   6   7
ATOM      7  C   UNL     1       5.655   5.687  17.243  0.00  0.00    +0.000 A 
ATOM      8  C   UNL     1       4.720   6.694  17.515  0.00  0.00    +0.000 A 
ATOM      9  C   UNL     1       3.401   6.374  17.842  0.00  0.00    +0.000 A 
ATOM     10  C   UNL     1       2.986   5.034  17.906  0.00  0.00    +0.000 A 
ATOM     11  C   UNL     1       1.671   4.694  18.252  0.00  0.00    +0.000 A 
ATOM     12  C   UNL     1       1.275   3.356  18.317  0.00  0.00    +0.000 A 
ATOM     13  C   UNL     1       2.188   2.346  18.029  0.00  0.00    +0.000 A 
ATOM     14  C   UNL     1       3.500   2.670  17.678  0.00  0.00    +0.000 A 
ATOM     15  C   UNL     1       3.910   4.011  17.612  0.00  0.00    +0.000 A 
ATOM     16  C   UNL     1       5.237   4.348  17.288  0.00  0.00    +0.000 A 
ENDBRANCH   6   7
ENDBRANCH   1   6
BRANCH   2  17
ATOM     17  C   UNL     1       8.144   9.615  17.713  0.00  0.00    +0.000 C 
BRANCH  17  18
ATOM     18  C   UNL     1       9.008  10.254  18.753  0.00  0.00    +0.000 A 
ATOM     19  C   UNL     1       8.850  10.123  20.121  0.00  0.00    +0.000 A 
ATOM     20  N   UNL     1       9.835  10.839  20.742  0.00  0.00    +0.000 N 
ATOM     21  C   UNL     1      10.606  11.496  19.813  0.00  0.00    +0.000 A 
ATOM     22  C   UNL     1      11.693  12.359  19.998  0.00  0.00    +0.000 A 
ATOM     23  C   UNL     1      12.298  12.894  18.859  0.00  0.00    +0.000 A 
ATOM     24  C   UNL     1      11.838  12.567  17.586  0.00  0.00    +0.000 A 
ATOM     25  C   UNL     1      10.754  11.697  17.419  0.00  0.00    +0.000 A 
ATOM     26  C   UNL     1      10.115  11.148  18.553  0.00  0.00    +0.000 A 
ATOM     27  H   UNL     1       9.979  10.894  21.741  0.00  0.00    +0.000 HD
ENDBRANCH  17  18
ENDBRANCH   2  17
TORSDOF 4
ENDMDL
MODEL 3
REMARK VINA RESULT:      -8.6      1.922      3.277
REMARK  Name = 
REMARK  5 active torsions:
REMARK  status: ('A' for Active; 'I' for Inactive)
REMARK    1  A    between atoms: C_1  and  C_2
REMARK    2  A    between atoms: C_2  and  N_3
REMARK    3  A    between atoms: C_2  and  C_16
REMARK    4  A    between atoms: C_4  and  C_6
REMARK    5  A    between atoms: C_6  and  C_7
REMARK                            x       y       z     vdW  Elec       q    Type
REMARK                         _______ _______ _______ _____ _____    ______ ____
ROOT
ATOM      1  N   UNL     1       2.961   4.486  18.870  0.00  0.00    +0.000 N 
ATOM      2  C   UNL     1       3.772   3.373  18.789  0.00  0.00    +0.000 C 
ATOM      3  O   UNL     1       3.910   2.584  19.722  0.00  0.00    +0.000 OA
ATOM      4  H   UNL     1       3.052   5.204  18.161  0.00  0.00    +0.000 HD
ENDROOT
BRANCH   1   6
ATOM      5  C   UNL     1       0.975   3.948  20.243  0.00  0.00    +0.000 C 
ATOM      6  C   UNL     1       2.237   4.803  20.093  0.00  0.00    +0.000 C 
BRANCH   6   7
ATOM      7  C   UNL     1       1.899   6.281  20.133  0.00  0.00    +0.000 A 
ATOM      8  C   UNL     1       1.242   6.846  21.233  0.00  0.00    +0.000 A 
ATOM      9  C   UNL     1       0.894   8.197  21.240  0.00  0.00    +0.000 A 
ATOM     10  C   UNL     1       1.194   9.018  20.141  0.00  0.00    +0.000 A 
ATOM     11  C   UNL     1       0.835  10.373  20.123  0.00  0.00    +0.000 A 
ATOM     12  C   UNL     1       1.136  11.174  19.018  0.00  0.00    +0.000 A 
ATOM     13  C   UNL     1       1.807  10.631  17.928  0.00  0.00    +0.000 A 
ATOM     14  C   UNL     1       2.176   9.285  17.934  0.00  0.00    +0.000 A 
ATOM     15  C   UNL     1       1.876   8.468  19.036  0.00  0.00    +0.000 A 
ATOM     16  C   UNL     1       2.218   7.103  19.042  0.00  0.00    +0.000 A 
ENDBRANCH   6   7
ENDBRANCH   1   6
BRANCH   2  17
ATOM     17  C   UNL     1       4.451   3.160  17.445  0.00  0.00    +0.000 C 
BRANCH  17  18
ATOM     18  C   UNL     1       5.182   4.370  16.957  0.00  0.00    +0.000 A 
ATOM     19  C   UNL     1       5.065   4.925  15.696  0.00  0.00    +0.000 A 
ATOM     20  N   UNL     1       5.876   6.024  15.629  0.00  0.00    +0.000 N 
ATOM     21  C   UNL     1       6.577   6.173  16.802  0.00  0.00    +0.000 A 
ATOM     22  C   UNL     1       7.533   7.130  17.160  0.00  0.00    +0.000 A 
ATOM     23  C   UNL     1       8.095   7.040  18.436  0.00  0.00    +0.000 A 
ATOM     24  C   UNL     1       7.705   6.037  19.319  0.00  0.00    +0.000 A 
ATOM     25  C   UNL     1       6.742   5.091  18.946  0.00  0.00    +0.000 A 
ATOM     26  C   UNL     1       6.163   5.150  17.659  0.00  0.00    +0.000 A 
ATOM     27  H   UNL     1       5.962   6.641  14.833  0.00  0.00    +0.000 HD
ENDBRANCH  17  18
ENDBRANCH   2  17
TORSDOF 4
ENDMDL
MODEL 4
REMARK VINA RESULT:      -8.4      2.016      2.995
REMARK  Name = 
REMARK  5 active torsions:
REMARK  status: ('A' for Active; 'I' for Inactive)
REMARK    1  A    between atoms: C_1  and  C_2
REMARK    2  A    between atoms: C_2  and  N_3
REMARK    3  A    between atoms: C_2  and  C_16
REMARK    4  A    between atoms: C_4  and  C_6
REMARK    5  A    between atoms: C_6  and  C_7
REMARK                            x       y       z     vdW  Elec       q    Type
REMARK                         _______ _______ _______ _____ _____    ______ ____
ROOT
ATOM      1  N   UNL     1       3.012   4.810  19.006  0.00  0.00    +0.000 N 
ATOM      2  C   UNL     1       3.733   3.638  18.922  0.00  0.00    +0.000 C 
ATOM      3  O   UNL     1       3.762   2.810  19.832  0.00  0.00    +0.000 OA
ATOM      4  H   UNL     1       3.195   5.541  18.329  0.00  0.00    +0.000 HD
ENDROOT
BRANCH   1   6
ATOM      5  C   UNL     1       1.052   4.223  20.395  0.00  0.00    +0.000 C 
ATOM      6  C   UNL     1       2.259   5.147  20.206  0.00  0.00    +0.000 C 
BRANCH   6   7
ATOM      7  C   UNL     1       1.826   6.601  20.162  0.00  0.00    +0.000 A 
ATOM      8  C   UNL     1       2.148   7.421  19.074  0.00  0.00    +0.000 A 
ATOM      9  C   UNL     1       1.786   8.769  19.064  0.00  0.00    +0.000 A 
ATOM     10  C   UNL     1       1.093   9.330  20.149  0.00  0.00    +0.000 A 
ATOM     11  C   UNL     1       0.738  10.686  20.165  0.00  0.00    +0.000 A 
ATOM     12  C   UNL     1       0.053  11.230  21.255  0.00  0.00    +0.000 A 
ATOM     13  C   UNL     1      -0.291  10.421  22.333  0.00  0.00    +0.000 A 
ATOM     14  C   UNL     1       0.050   9.068  22.329  0.00  0.00    +0.000 A 
ATOM     15  C   UNL     1       0.742   8.510  21.241  0.00  0.00    +0.000 A 
ATOM     16  C   UNL     1       1.116   7.154  21.238  0.00  0.00    +0.000 A 
ENDBRANCH   6   7
ENDBRANCH   1   6
BRANCH   2  17
ATOM     17  C   UNL     1       4.456   3.412  17.604  0.00  0.00    +0.000 C 
BRANCH  17  18
ATOM     18  C   UNL     1       5.161   4.633  17.104  0.00  0.00    +0.000 A 
ATOM     19  C   UNL     1       4.952   5.235  15.877  0.00  0.00    +0.000 A 
ATOM     20  N   UNL     1       5.767   6.330  15.785  0.00  0.00    +0.000 N 
ATOM     21  C   UNL     1       6.560   6.429  16.904  0.00  0.00    +0.000 A 
ATOM     22  C   UNL     1       7.552   7.364  17.220  0.00  0.00    +0.000 A 
ATOM     23  C   UNL     1       8.211   7.223  18.443  0.00  0.00    +0.000 A 
ATOM     24  C   UNL     1       7.880   6.192  19.317  0.00  0.00    +0.000 A 
ATOM     25  C   UNL     1       6.880   5.268  18.988  0.00  0.00    +0.000 A 
ATOM     26  C   UNL     1       6.203   5.379  17.754  0.00  0.00    +0.000 A 
ATOM     27  H   UNL     1       5.798   6.974  15.008  0.00  0.00    +0.000 HD
ENDBRANCH  17  18
ENDBRANCH   2  17
TORSDOF 4
ENDMDL
MODEL 5
REMARK VINA RESULT:      -8.3      1.697      3.170
REMARK  Name = 
REMARK  5 active torsions:
REMARK  status: ('A' for Active; 'I' for Inactive)
REMARK    1  A    between atoms: C_1  and  C_2
REMARK    2  A    between atoms: C_2  and  N_3
REMARK    3  A    between atoms: C_2  and  C_16
REMARK    4  A    between atoms: C_4  and  C_6
REMARK    5  A    between atoms: C_6  and  C_7
REMARK                            x       y       z     vdW  Elec       q    Type
REMARK                         _______ _______ _______ _____ _____    ______ ____
ROOT
ATOM      1  N   UNL     1       2.767   7.100  19.330  0.00  0.00    +0.000 N 
ATOM      2  C   UNL     1       2.798   5.797  18.877  0.00  0.00    +0.000 C 
ATOM      3  O   UNL     1       2.031   5.378  18.012  0.00  0.00    +0.000 OA
ATOM      4  H   UNL     1       3.267   7.328  20.182  0.00  0.00    +0.000 HD
ENDROOT
BRANCH   1   6
ATOM      5  C   UNL     1       2.427   9.044  17.840  0.00  0.00    +0.000 C 
ATOM      6  C   UNL     1       1.791   8.052  18.820  0.00  0.00    +0.000 C 
BRANCH   6   7
ATOM      7  C   UNL     1       1.119   8.780  19.968  0.00  0.00    +0.000 A 
ATOM      8  C   UNL     1       1.273   8.347  21.291  0.00  0.00    +0.000 A 
ATOM      9  C   UNL     1       0.613   8.996  22.336  0.00  0.00    +0.000 A 
ATOM     10  C   UNL     1      -0.222  10.095  22.079  0.00  0.00    +0.000 A 
ATOM     11  C   UNL     1      -0.908  10.747  23.114  0.00  0.00    +0.000 A 
ATOM     12  C   UNL     1      -1.740  11.836  22.841  0.00  0.00    +0.000 A 
ATOM     13  C   UNL     1      -1.886  12.289  21.534  0.00  0.00    +0.000 A 
ATOM     14  C   UNL     1      -1.204  11.654  20.494  0.00  0.00    +0.000 A 
ATOM     15  C   UNL     1      -0.368  10.556  20.755  0.00  0.00    +0.000 A 
ATOM     16  C   UNL     1       0.301   9.890  19.712  0.00  0.00    +0.000 A 
ENDBRANCH   6   7
ENDBRANCH   1   6
BRANCH   2  17
ATOM     17  C   UNL     1       3.881   4.922  19.488  0.00  0.00    +0.000 C 
BRANCH  17  18
ATOM     18  C   UNL     1       5.194   5.030  18.779  0.00  0.00    +0.000 A 
ATOM     19  C   UNL     1       6.378   5.468  19.344  0.00  0.00    +0.000 A 
ATOM     20  N   UNL     1       7.358   5.414  18.392  0.00  0.00    +0.000 N 
ATOM     21  C   UNL     1       6.833   5.009  17.188  0.00  0.00    +0.000 A 
ATOM     22  C   UNL     1       7.459   4.847  15.946  0.00  0.00    +0.000 A 
ATOM     23  C   UNL     1       6.672   4.419  14.875  0.00  0.00    +0.000 A 
ATOM     24  C   UNL     1       5.316   4.155  15.046  0.00  0.00    +0.000 A 
ATOM     25  C   UNL     1       4.708   4.316  16.297  0.00  0.00    +0.000 A 
ATOM     26  C   UNL     1       5.475   4.757  17.397  0.00  0.00    +0.000 A 
ATOM     27  H   UNL     1       8.331   5.647  18.539  0.00  0.00    +0.000 HD
ENDBRANCH  17  18
ENDBRANCH   2  17
TORSDOF 4
ENDMDL
MODEL 6
REMARK VINA RESULT:      -8.3      5.350      7.361
REMARK  Name = 
REMARK  5 active torsions:
REMARK  status: ('A' for Active; 'I' for Inactive)
REMARK    1  A    between atoms: C_1  and  C_2
REMARK    2  A    between atoms: C_2  and  N_3
REMARK    3  A    between atoms: C_2  and  C_16
REMARK    4  A    between atoms: C_4  and  C_6
REMARK    5  A    between atoms: C_6  and  C_7
REMARK                            x       y       z     vdW  Elec       q    Type
REMARK                         _______ _______ _______ _____ _____    ______ ____
ROOT
ATOM      1  N   UNL     1       7.160   7.810  17.186  0.00  0.00    +0.000 N 
ATOM      2  C   UNL     1       8.045   8.440  18.036  0.00  0.00    +0.000 C 
ATOM      3  O   UNL     1       8.681   7.835  18.898  0.00  0.00    +0.000 OA
ATOM      4  H   UNL     1       6.515   8.379  16.651  0.00  0.00    +0.000 HD
ENDROOT
BRANCH   1   6
ATOM      5  C   UNL     1       7.095   5.677  15.937  0.00  0.00    +0.000 C 
ATOM      6  C   UNL     1       6.908   6.379  17.285  0.00  0.00    +0.000 C 
BRANCH   6   7
ATOM      7  C   UNL     1       5.519   6.129  17.840  0.00  0.00    +0.000 A 
ATOM      8  C   UNL     1       4.445   6.965  17.512  0.00  0.00    +0.000 A 
ATOM      9  C   UNL     1       3.181   6.753  18.065  0.00  0.00    +0.000 A 
ATOM     10  C   UNL     1       2.963   5.697  18.964  0.00  0.00    +0.000 A 
ATOM     11  C   UNL     1       1.704   5.480  19.543  0.00  0.00    +0.000 A 
ATOM     12  C   UNL     1       1.505   4.428  20.440  0.00  0.00    +0.000 A 
ATOM     13  C   UNL     1       2.559   3.577  20.758  0.00  0.00    +0.000 A 
ATOM     14  C   UNL     1       3.815   3.776  20.184  0.00  0.00    +0.000 A 
ATOM     15  C   UNL     1       4.029   4.832  19.284  0.00  0.00    +0.000 A 
ATOM     16  C   UNL     1       5.299   5.060  18.722  0.00  0.00    +0.000 A 
ENDBRANCH   6   7
ENDBRANCH   1   6
BRANCH   2  17
ATOM     17  C   UNL     1       8.219   9.933  17.804  0.00  0.00    +0.000 C 
BRANCH  17  18
ATOM     18  C   UNL     1       9.153  10.575  18.780  0.00  0.00    +0.000 A 
ATOM     19  C   UNL     1       9.136  10.387  20.150  0.00  0.00    +0.000 A 
ATOM     20  N   UNL     1      10.145  11.127  20.702  0.00  0.00    +0.000 N 
ATOM     21  C   UNL     1      10.792  11.852  19.729  0.00  0.00    +0.000 A 
ATOM     22  C   UNL     1      11.853  12.758  19.843  0.00  0.00    +0.000 A 
ATOM     23  C   UNL     1      12.319  13.361  18.672  0.00  0.00    +0.000 A 
ATOM     24  C   UNL     1      11.751  13.059  17.438  0.00  0.00    +0.000 A 
ATOM     25  C   UNL     1      10.694  12.144  17.342  0.00  0.00    +0.000 A 
ATOM     26  C   UNL     1      10.194  11.526  18.509  0.00  0.00    +0.000 A 
ATOM     27  H   UNL     1      10.384  11.153  21.683  0.00  0.00    +0.000 HD
ENDBRANCH  17  18
ENDBRANCH   2  17
TORSDOF 4
ENDMDL
MODEL 7
REMARK VINA RESULT:      -8.1      4.165      8.982
REMARK  Name = 
REMARK  5 active torsions:
REMARK  status: ('A' for Active; 'I' for Inactive)
REMARK    1  A    between atoms: C_1  and  C_2
REMARK    2  A    between atoms: C_2  and  N_3
REMARK    3  A    between atoms: C_2  and  C_16
REMARK    4  A    between atoms: C_4  and  C_6
REMARK    5  A    between atoms: C_6  and  C_7
REMARK                            x       y       z     vdW  Elec       q    Type
REMARK                         _______ _______ _______ _____ _____    ______ ____
ROOT
ATOM      1  N   UNL     1       0.976   9.094  19.904  0.00  0.00    +0.000 N 
ATOM      2  C   UNL     1       0.791  10.460  19.889  0.00  0.00    +0.000 C 
ATOM      3  O   UNL     1       1.486  11.216  19.211  0.00  0.00    +0.000 OA
ATOM      4  H   UNL     1       0.526   8.552  20.632  0.00  0.00    +0.000 HD
ENDROOT
BRANCH   1   6
ATOM      5  C   UNL     1       1.919   8.797  17.637  0.00  0.00    +0.000 C 
ATOM      6  C   UNL     1       2.038   8.468  19.128  0.00  0.00    +0.000 C 
BRANCH   6   7
ATOM      7  C   UNL     1       2.038   6.968  19.354  0.00  0.00    +0.000 A 
ATOM      8  C   UNL     1       1.786   6.425  20.620  0.00  0.00    +0.000 A 
ATOM      9  C   UNL     1       1.834   5.046  20.827  0.00  0.00    +0.000 A 
ATOM     10  C   UNL     1       2.138   4.175  19.769  0.00  0.00    +0.000 A 
ATOM     11  C   UNL     1       2.209   2.788  19.963  0.00  0.00    +0.000 A 
ATOM     12  C   UNL     1       2.520   1.936  18.900  0.00  0.00    +0.000 A 
ATOM     13  C   UNL     1       2.751   2.461  17.633  0.00  0.00    +0.000 A 
ATOM     14  C   UNL     1       2.678   3.838  17.423  0.00  0.00    +0.000 A 
ATOM     15  C   UNL     1       2.371   4.706  18.483  0.00  0.00    +0.000 A 
ATOM     16  C   UNL     1       2.322   6.099  18.291  0.00  0.00    +0.000 A 
ENDBRANCH   6   7
ENDBRANCH   1   6
BRANCH   2  17
ATOM     17  C   UNL     1      -0.366  10.969  20.734  0.00  0.00    +0.000 C 
BRANCH  17  18
ATOM     18  C   UNL     1      -1.517  11.466  19.917  0.00  0.00    +0.000 A 
ATOM     19  C   UNL     1      -2.381  12.481  20.282  0.00  0.00    +0.000 A 
ATOM     20  N   UNL     1      -3.291  12.658  19.277  0.00  0.00    +0.000 N 
ATOM     21  C   UNL     1      -3.086  11.736  18.279  0.00  0.00    +0.000 A 
ATOM     22  C   UNL     1      -3.793  11.530  17.088  0.00  0.00    +0.000 A 
ATOM     23  C   UNL     1      -3.359  10.504  16.246  0.00  0.00    +0.000 A 
ATOM     24  C   UNL     1      -2.255   9.725  16.579  0.00  0.00    +0.000 A 
ATOM     25  C   UNL     1      -1.555   9.949  17.772  0.00  0.00    +0.000 A 
ATOM     26  C   UNL     1      -1.976  10.972  18.649  0.00  0.00    +0.000 A 
ATOM     27  H   UNL     1      -4.022  13.357  19.264  0.00  0.00    +0.000 HD
ENDBRANCH  17  18
ENDBRANCH   2  17
TORSDOF 4
ENDMDL
MODEL 8
REMARK VINA RESULT:      -8.1      1.097      1.670
REMARK  Name = 
REMARK  5 active torsions:
REMARK  status: ('A' for Active; 'I' for Inactive)
REMARK    1  A    between atoms: C_1  and  C_2
REMARK    2  A    between atoms: C_2  and  N_3
REMARK    3  A    between atoms: C_2  and  C_16
REMARK    4  A    between atoms: C_4  and  C_6
REMARK    5  A    between atoms: C_6  and  C_7
REMARK                            x       y       z     vdW  Elec       q    Type
REMARK                         _______ _______ _______ _____ _____    ______ ____
ROOT
ATOM      1  N   UNL     1       4.016   5.925  19.081  0.00  0.00    +0.000 N 
ATOM      2  C   UNL     1       4.770   4.830  19.446  0.00  0.00    +0.000 C 
ATOM      3  O   UNL     1       4.265   3.763  19.793  0.00  0.00    +0.000 OA
ATOM      4  H   UNL     1       4.473   6.827  19.014  0.00  0.00    +0.000 HD
ENDROOT
BRANCH   1   6
ATOM      5  C   UNL     1       1.987   5.137  17.907  0.00  0.00    +0.000 C 
ATOM      6  C   UNL     1       2.561   5.884  19.115  0.00  0.00    +0.000 C 
BRANCH   6   7
ATOM      7  C   UNL     1       1.998   7.290  19.200  0.00  0.00    +0.000 A 
ATOM      8  C   UNL     1       2.035   8.154  18.098  0.00  0.00    +0.000 A 
ATOM      9  C   UNL     1       1.557   9.461  18.200  0.00  0.00    +0.000 A 
ATOM     10  C   UNL     1       1.031   9.937  19.412  0.00  0.00    +0.000 A 
ATOM     11  C   UNL     1       0.565  11.253  19.538  0.00  0.00    +0.000 A 
ATOM     12  C   UNL     1       0.050  11.712  20.753  0.00  0.00    +0.000 A 
ATOM     13  C   UNL     1      -0.011  10.858  21.850  0.00  0.00    +0.000 A 
ATOM     14  C   UNL     1       0.445   9.544  21.738  0.00  0.00    +0.000 A 
ATOM     15  C   UNL     1       0.967   9.071  20.523  0.00  0.00    +0.000 A 
ATOM     16  C   UNL     1       1.456   7.757  20.406  0.00  0.00    +0.000 A 
ENDBRANCH   6   7
ENDBRANCH   1   6
BRANCH   2  17
ATOM     17  C   UNL     1       6.276   5.014  19.345  0.00  0.00    +0.000 C 
BRANCH  17  18
ATOM     18  C   UNL     1       6.728   5.423  17.979  0.00  0.00    +0.000 A 
ATOM     19  C   UNL     1       7.496   6.535  17.688  0.00  0.00    +0.000 A 
ATOM     20  N   UNL     1       7.716   6.569  16.338  0.00  0.00    +0.000 N 
ATOM     21  C   UNL     1       7.055   5.534  15.721  0.00  0.00    +0.000 A 
ATOM     22  C   UNL     1       6.974   5.204  14.363  0.00  0.00    +0.000 A 
ATOM     23  C   UNL     1       6.219   4.083  14.011  0.00  0.00    +0.000 A 
ATOM     24  C   UNL     1       5.581   3.318  14.984  0.00  0.00    +0.000 A 
ATOM     25  C   UNL     1       5.678   3.659  16.339  0.00  0.00    +0.000 A 
ATOM     26  C   UNL     1       6.425   4.793  16.724  0.00  0.00    +0.000 A 
ATOM     27  H   UNL     1       8.275   7.257  15.852  0.00  0.00    +0.000 HD
ENDBRANCH  17  18
ENDBRANCH   2  17
TORSDOF 4
ENDMDL
MODEL 9
REMARK VINA RESULT:      -8.1      3.611      5.921
REMARK  Name = 
REMARK  5 active torsions:
REMARK  status: ('A' for Active; 'I' for Inactive)
REMARK    1  A    between atoms: C_1  and  C_2
REMARK    2  A    between atoms: C_2  and  N_3
REMARK    3  A    between atoms: C_2  and  C_16
REMARK    4  A    between atoms: C_4  and  C_6
REMARK    5  A    between atoms: C_6  and  C_7
REMARK                            x       y       z     vdW  Elec       q    Type
REMARK                         _______ _______ _______ _____ _____    ______ ____
ROOT
ATOM      1  N   UNL     1       1.199   9.599  19.215  0.00  0.00    +0.000 N 
ATOM      2  C   UNL     1       1.931   8.600  18.608  0.00  0.00    +0.000 C 
ATOM      3  O   UNL     1       2.266   8.649  17.426  0.00  0.00    +0.000 OA
ATOM      4  H   UNL     1       0.773   9.409  20.114  0.00  0.00    +0.000 HD
ENDROOT
BRANCH   1   6
ATOM      5  C   UNL     1       1.262  12.069  19.101  0.00  0.00    +0.000 C 
ATOM      6  C   UNL     1       0.756  10.769  18.469  0.00  0.00    +0.000 C 
BRANCH   6   7
ATOM      7  C   UNL     1      -0.756  10.775  18.353  0.00  0.00    +0.000 A 
ATOM      8  C   UNL     1      -1.416   9.966  17.419  0.00  0.00    +0.000 A 
ATOM      9  C   UNL     1      -2.804  10.013  17.288  0.00  0.00    +0.000 A 
ATOM     10  C   UNL     1      -3.568  10.876  18.091  0.00  0.00    +0.000 A 
ATOM     11  C   UNL     1      -4.962  10.951  17.960  0.00  0.00    +0.000 A 
ATOM     12  C   UNL     1      -5.707  11.819  18.763  0.00  0.00    +0.000 A 
ATOM     13  C   UNL     1      -5.066  12.613  19.709  0.00  0.00    +0.000 A 
ATOM     14  C   UNL     1      -3.680  12.545  19.854  0.00  0.00    +0.000 A 
ATOM     15  C   UNL     1      -2.920  11.679  19.052  0.00  0.00    +0.000 A 
ATOM     16  C   UNL     1      -1.519  11.623  19.169  0.00  0.00    +0.000 A 
ENDBRANCH   6   7
ENDBRANCH   1   6
BRANCH   2  17
ATOM     17  C   UNL     1       2.337   7.450  19.514  0.00  0.00    +0.000 C 
BRANCH  17  18
ATOM     18  C   UNL     1       2.655   6.194  18.765  0.00  0.00    +0.000 A 
ATOM     19  C   UNL     1       3.548   6.091  17.715  0.00  0.00    +0.000 A 
ATOM     20  N   UNL     1       3.579   4.788  17.299  0.00  0.00    +0.000 N 
ATOM     21  C   UNL     1       2.676   4.037  18.013  0.00  0.00    +0.000 A 
ATOM     22  C   UNL     1       2.353   2.680  17.903  0.00  0.00    +0.000 A 
ATOM     23  C   UNL     1       1.381   2.172  18.769  0.00  0.00    +0.000 A 
ATOM     24  C   UNL     1       0.768   2.991  19.712  0.00  0.00    +0.000 A 
ATOM     25  C   UNL     1       1.108   4.346  19.813  0.00  0.00    +0.000 A 
ATOM     26  C   UNL     1       2.080   4.890  18.945  0.00  0.00    +0.000 A 
ATOM     27  H   UNL     1       4.170   4.420  16.566  0.00  0.00    +0.000 HD
ENDBRANCH  17  18
ENDBRANCH   2  17
TORSDOF 4
ENDMDL
