MODEL 1
REMARK VINA RESULT:      -7.9      0.000      0.000
REMARK  Name = 
REMARK  2 active torsions:
REMARK  status: ('A' for Active; 'I' for Inactive)
REMARK    1  A    between atoms: C_1  and  C_2
REMARK    2  A    between atoms: C_4  and  N_5
REMARK                            x       y       z     vdW  Elec       q    Type
REMARK                         _______ _______ _______ _____ _____    ______ ____
ROOT
ATOM      1  N   UNL     1       0.858   8.965  19.000  0.00  0.00    +0.000 N 
ATOM      2  C   UNL     1       1.172   8.751  20.428  0.00  0.00    +0.000 C 
ATOM      3  C   UNL     1       1.682   7.335  20.651  0.00  0.00    +0.000 C 
ATOM      4  C   UNL     1       2.948   7.116  19.834  0.00  0.00    +0.000 C 
ATOM      5  C   UNL     1       2.662   7.283  18.325  0.00  0.00    +0.000 C 
ATOM      6  C   UNL     1       3.962   7.149  17.547  0.00  0.00    +0.000 C 
ATOM      7  C   UNL     1       4.401   5.947  17.150  0.00  0.00    +0.000 C 
ATOM      8  C   UNL     1       3.558   4.798  17.474  0.00  0.00    +0.000 A 
ATOM      9  C   UNL     1       4.052   3.494  17.477  0.00  0.00    +0.000 A 
ATOM     10  C   UNL     1       3.204   2.430  17.796  0.00  0.00    +0.000 A 
ATOM     11  C   UNL     1       1.855   2.660  18.079  0.00  0.00    +0.000 A 
ATOM     12  C   UNL     1       1.354   3.960  18.069  0.00  0.00    +0.000 A 
ATOM     13  C   UNL     1       2.213   5.020  17.800  0.00  0.00    +0.000 A 
ATOM     14  O   UNL     1       1.694   6.287  17.895  0.00  0.00    +0.000 OA
ATOM     15  C   UNL     1       2.009   8.673  18.083  0.00  0.00    +0.000 C 
ENDROOT
BRANCH   1  19
ATOM     16  C   UNL     1      -2.970  10.897  16.528  0.00  0.00    +0.000 C 
ATOM     17  C   UNL     1      -1.801  11.106  17.457  0.00  0.00    +0.000 A 
ATOM     18  C   UNL     1      -1.069   9.884  17.901  0.00  0.00    +0.000 A 
ATOM     19  C   UNL     1       0.045  10.065  18.634  0.00  0.00    +0.000 A 
ATOM     20  N   UNL     1       0.400  11.396  18.971  0.00  0.00    +0.000 N 
ATOM     21  N   UNL     1       1.484  11.866  19.659  0.00  0.00    +0.000 NA
ATOM     22  C   UNL     1       1.287  13.181  19.628  0.00  0.00    +0.000 A 
ATOM     23  N   UNL     1       0.175  13.603  18.972  0.00  0.00    +0.000 NA
ATOM     24  C   UNL     1      -0.374  12.487  18.546  0.00  0.00    +0.000 A 
ATOM     25  N   UNL     1      -1.486  12.326  17.771  0.00  0.00    +0.000 NA
ENDBRANCH   1  19
TORSDOF 1
ENDMDL
MODEL 2
REMARK VINA RESULT:      -7.7      2.368      4.611
REMARK  Name = 
REMARK  2 active torsions:
REMARK  status: ('A' for Active; 'I' for Inactive)
REMARK    1  A    between atoms: C_1  and  C_2
REMARK    2  A    between atoms: C_4  and  N_5
REMARK                            x       y       z     vdW  Elec       q    Type
REMARK                         _______ _______ _______ _____ _____    ______ ____
ROOT
ATOM      1  N   UNL     1       0.251  12.637  18.894  0.00  0.00    +0.000 N 
ATOM      2  C   UNL     1      -1.038  12.171  18.341  0.00  0.00    +0.000 C 
ATOM      3  C   UNL     1      -1.027  10.659  18.174  0.00  0.00    +0.000 C 
ATOM      4  C   UNL     1      -0.809  10.000  19.530  0.00  0.00    +0.000 C 
ATOM      5  C   UNL     1       0.551  10.420  20.131  0.00  0.00    +0.000 C 
ATOM      6  C   UNL     1       0.695   9.819  21.521  0.00  0.00    +0.000 C 
ATOM      7  C   UNL     1       1.202   8.589  21.685  0.00  0.00    +0.000 C 
ATOM      8  C   UNL     1       1.630   7.886  20.478  0.00  0.00    +0.000 A 
ATOM      9  C   UNL     1       1.803   6.503  20.447  0.00  0.00    +0.000 A 
ATOM     10  C   UNL     1       2.211   5.878  19.266  0.00  0.00    +0.000 A 
ATOM     11  C   UNL     1       2.481   6.635  18.123  0.00  0.00    +0.000 A 
ATOM     12  C   UNL     1       2.319   8.019  18.149  0.00  0.00    +0.000 A 
ATOM     13  C   UNL     1       1.864   8.629  19.313  0.00  0.00    +0.000 A 
ATOM     14  O   UNL     1       1.630   9.981  19.260  0.00  0.00    +0.000 OA
ATOM     15  C   UNL     1       0.625  11.971  20.185  0.00  0.00    +0.000 C 
ENDROOT
BRANCH   1  19
ATOM     16  C   UNL     1      -1.043  17.403  18.557  0.00  0.00    +0.000 C 
ATOM     17  C   UNL     1       0.052  16.368  18.615  0.00  0.00    +0.000 A 
ATOM     18  C   UNL     1      -0.369  14.956  18.854  0.00  0.00    +0.000 A 
ATOM     19  C   UNL     1       0.585  14.009  18.790  0.00  0.00    +0.000 A 
ATOM     20  N   UNL     1       1.917  14.434  18.557  0.00  0.00    +0.000 N 
ATOM     21  N   UNL     1       3.058  13.696  18.406  0.00  0.00    +0.000 NA
ATOM     22  C   UNL     1       3.972  14.637  18.183  0.00  0.00    +0.000 A 
ATOM     23  N   UNL     1       3.521  15.917  18.167  0.00  0.00    +0.000 NA
ATOM     24  C   UNL     1       2.230  15.792  18.386  0.00  0.00    +0.000 A 
ATOM     25  N   UNL     1       1.271  16.763  18.411  0.00  0.00    +0.000 NA
ENDBRANCH   1  19
TORSDOF 1
ENDMDL
MODEL 3
REMARK VINA RESULT:      -7.5      2.957      7.535
REMARK  Name = 
REMARK  2 active torsions:
REMARK  status: ('A' for Active; 'I' for Inactive)
REMARK    1  A    between atoms: C_1  and  C_2
REMARK    2  A    between atoms: C_4  and  N_5
REMARK                            x       y       z     vdW  Elec       q    Type
REMARK                         _______ _______ _______ _____ _____    ______ ____
ROOT
ATOM      1  N   UNL     1       2.111   7.246  19.160  0.00  0.00    +0.000 N 
ATOM      2  C   UNL     1       2.825   7.959  18.079  0.00  0.00    +0.000 C 
ATOM      3  C   UNL     1       2.025   9.170  17.625  0.00  0.00    +0.000 C 
ATOM      4  C   UNL     1       1.836  10.123  18.798  0.00  0.00    +0.000 C 
ATOM      5  C   UNL     1       1.052   9.438  19.939  0.00  0.00    +0.000 C 
ATOM      6  C   UNL     1       0.961  10.384  21.127  0.00  0.00    +0.000 C 
ATOM      7  C   UNL     1      -0.034  11.277  21.216  0.00  0.00    +0.000 C 
ATOM      8  C   UNL     1      -1.026  11.267  20.144  0.00  0.00    +0.000 A 
ATOM      9  C   UNL     1      -1.866  12.354  19.900  0.00  0.00    +0.000 A 
ATOM     10  C   UNL     1      -2.797  12.295  18.860  0.00  0.00    +0.000 A 
ATOM     11  C   UNL     1      -2.916  11.139  18.083  0.00  0.00    +0.000 A 
ATOM     12  C   UNL     1      -2.087  10.047  18.327  0.00  0.00    +0.000 A 
ATOM     13  C   UNL     1      -1.128  10.130  19.331  0.00  0.00    +0.000 A 
ATOM     14  O   UNL     1      -0.273   9.065  19.470  0.00  0.00    +0.000 OA
ATOM     15  C   UNL     1       1.773   8.119  20.332  0.00  0.00    +0.000 C 
ENDROOT
BRANCH   1  19
ATOM     16  C   UNL     1       1.290   2.918  21.417  0.00  0.00    +0.000 C 
ATOM     17  C   UNL     1       2.181   3.765  20.543  0.00  0.00    +0.000 A 
ATOM     18  C   UNL     1       1.658   5.107  20.151  0.00  0.00    +0.000 A 
ATOM     19  C   UNL     1       2.490   5.918  19.471  0.00  0.00    +0.000 A 
ATOM     20  N   UNL     1       3.771   5.413  19.137  0.00  0.00    +0.000 N 
ATOM     21  N   UNL     1       4.814   6.023  18.498  0.00  0.00    +0.000 NA
ATOM     22  C   UNL     1       5.743   5.071  18.504  0.00  0.00    +0.000 A 
ATOM     23  N   UNL     1       5.395   3.901  19.099  0.00  0.00    +0.000 NA
ATOM     24  C   UNL     1       4.165   4.118  19.510  0.00  0.00    +0.000 A 
ATOM     25  N   UNL     1       3.349   3.294  20.231  0.00  0.00    +0.000 NA
ENDBRANCH   1  19
TORSDOF 1
ENDMDL
MODEL 4
REMARK VINA RESULT:      -7.4      3.718      7.598
REMARK  Name = 
REMARK  2 active torsions:
REMARK  status: ('A' for Active; 'I' for Inactive)
REMARK    1  A    between atoms: C_1  and  C_2
REMARK    2  A    between atoms: C_4  and  N_5
REMARK                            x       y       z     vdW  Elec       q    Type
REMARK                         _______ _______ _______ _____ _____    ______ ____
ROOT
ATOM      1  N   UNL     1       3.927   5.838  17.778  0.00  0.00    +0.000 N 
ATOM      2  C   UNL     1       2.868   4.806  17.775  0.00  0.00    +0.000 C 
ATOM      3  C   UNL     1       1.703   5.241  18.651  0.00  0.00    +0.000 C 
ATOM      4  C   UNL     1       1.121   6.542  18.113  0.00  0.00    +0.000 C 
ATOM      5  C   UNL     1       2.179   7.667  18.139  0.00  0.00    +0.000 C 
ATOM      6  C   UNL     1       1.594   8.924  17.512  0.00  0.00    +0.000 C 
ATOM      7  C   UNL     1       0.901   9.799  18.253  0.00  0.00    +0.000 C 
ATOM      8  C   UNL     1       0.770   9.499  19.676  0.00  0.00    +0.000 A 
ATOM      9  C   UNL     1      -0.217  10.084  20.470  0.00  0.00    +0.000 A 
ATOM     10  C   UNL     1      -0.301   9.762  21.827  0.00  0.00    +0.000 A 
ATOM     11  C   UNL     1       0.620   8.882  22.402  0.00  0.00    +0.000 A 
ATOM     12  C   UNL     1       1.613   8.301  21.618  0.00  0.00    +0.000 A 
ATOM     13  C   UNL     1       1.661   8.587  20.257  0.00  0.00    +0.000 A 
ATOM     14  O   UNL     1       2.597   7.917  19.509  0.00  0.00    +0.000 OA
ATOM     15  C   UNL     1       3.442   7.196  17.366  0.00  0.00    +0.000 C 
ENDROOT
BRANCH   1  19
ATOM     16  C   UNL     1       7.045   4.344  14.235  0.00  0.00    +0.000 C 
ATOM     17  C   UNL     1       6.829   4.754  15.670  0.00  0.00    +0.000 A 
ATOM     18  C   UNL     1       5.463   5.233  16.035  0.00  0.00    +0.000 A 
ATOM     19  C   UNL     1       5.226   5.488  17.335  0.00  0.00    +0.000 A 
ATOM     20  N   UNL     1       6.305   5.336  18.241  0.00  0.00    +0.000 N 
ATOM     21  N   UNL     1       6.335   5.486  19.600  0.00  0.00    +0.000 NA
ATOM     22  C   UNL     1       7.598   5.183  19.887  0.00  0.00    +0.000 A 
ATOM     23  N   UNL     1       8.385   4.841  18.834  0.00  0.00    +0.000 NA
ATOM     24  C   UNL     1       7.573   4.922  17.803  0.00  0.00    +0.000 A 
ATOM     25  N   UNL     1       7.823   4.622  16.495  0.00  0.00    +0.000 NA
ENDBRANCH   1  19
TORSDOF 1
ENDMDL
MODEL 5
REMARK VINA RESULT:      -7.3      2.667      7.543
REMARK  Name = 
REMARK  2 active torsions:
REMARK  status: ('A' for Active; 'I' for Inactive)
REMARK    1  A    between atoms: C_1  and  C_2
REMARK    2  A    between atoms: C_4  and  N_5
REMARK                            x       y       z     vdW  Elec       q    Type
REMARK                         _______ _______ _______ _____ _____    ______ ____
ROOT
ATOM      1  N   UNL     1       1.481   8.354  20.264  0.00  0.00    +0.000 N 
ATOM      2  C   UNL     1       1.165   8.658  21.676  0.00  0.00    +0.000 C 
ATOM      3  C   UNL     1       1.027  10.160  21.876  0.00  0.00    +0.000 C 
ATOM      4  C   UNL     1      -0.100  10.688  20.998  0.00  0.00    +0.000 C 
ATOM      5  C   UNL     1       0.205  10.435  19.505  0.00  0.00    +0.000 C 
ATOM      6  C   UNL     1      -0.979  10.890  18.664  0.00  0.00    +0.000 C 
ATOM      7  C   UNL     1      -1.074  12.160  18.248  0.00  0.00    +0.000 C 
ATOM      8  C   UNL     1       0.020  13.057  18.613  0.00  0.00    +0.000 A 
ATOM      9  C   UNL     1      -0.121  14.444  18.593  0.00  0.00    +0.000 A 
ATOM     10  C   UNL     1       0.956  15.258  18.954  0.00  0.00    +0.000 A 
ATOM     11  C   UNL     1       2.185  14.692  19.302  0.00  0.00    +0.000 A 
ATOM     12  C   UNL     1       2.335  13.307  19.315  0.00  0.00    +0.000 A 
ATOM     13  C   UNL     1       1.245  12.500  19.004  0.00  0.00    +0.000 A 
ATOM     14  O   UNL     1       1.416  11.143  19.123  0.00  0.00    +0.000 OA
ATOM     15  C   UNL     1       0.489   8.922  19.293  0.00  0.00    +0.000 C 
ENDROOT
BRANCH   1  19
ATOM     16  C   UNL     1       2.182   3.563  21.296  0.00  0.00    +0.000 C 
ATOM     17  C   UNL     1       2.402   4.723  20.357  0.00  0.00    +0.000 A 
ATOM     18  C   UNL     1       1.718   6.005  20.701  0.00  0.00    +0.000 A 
ATOM     19  C   UNL     1       1.999   7.077  19.938  0.00  0.00    +0.000 A 
ATOM     20  N   UNL     1       2.876   6.890  18.840  0.00  0.00    +0.000 N 
ATOM     21  N   UNL     1       3.359   7.799  17.940  0.00  0.00    +0.000 NA
ATOM     22  C   UNL     1       4.149   7.046  17.179  0.00  0.00    +0.000 A 
ATOM     23  N   UNL     1       4.227   5.732  17.514  0.00  0.00    +0.000 NA
ATOM     24  C   UNL     1       3.442   5.635  18.564  0.00  0.00    +0.000 A 
ATOM     25  N   UNL     1       3.198   4.544  19.348  0.00  0.00    +0.000 NA
ENDBRANCH   1  19
TORSDOF 1
ENDMDL
MODEL 6
REMARK VINA RESULT:      -7.2      0.969      2.212
REMARK  Name = 
REMARK  2 active torsions:
REMARK  status: ('A' for Active; 'I' for Inactive)
REMARK    1  A    between atoms: C_1  and  C_2
REMARK    2  A    between atoms: C_4  and  N_5
REMARK                            x       y       z     vdW  Elec       q    Type
REMARK                         _______ _______ _______ _____ _____    ______ ____
ROOT
ATOM      1  N   UNL     1       1.129   9.187  19.041  0.00  0.00    +0.000 N 
ATOM      2  C   UNL     1       1.316   8.898  20.479  0.00  0.00    +0.000 C 
ATOM      3  C   UNL     1       1.638   7.426  20.685  0.00  0.00    +0.000 C 
ATOM      4  C   UNL     1       2.922   7.077  19.944  0.00  0.00    +0.000 C 
ATOM      5  C   UNL     1       2.762   7.319  18.427  0.00  0.00    +0.000 C 
ATOM      6  C   UNL     1       4.087   7.050  17.730  0.00  0.00    +0.000 C 
ATOM      7  C   UNL     1       4.406   5.814  17.321  0.00  0.00    +0.000 C 
ATOM      8  C   UNL     1       3.413   4.768  17.548  0.00  0.00    +0.000 A 
ATOM      9  C   UNL     1       3.747   3.413  17.538  0.00  0.00    +0.000 A 
ATOM     10  C   UNL     1       2.760   2.451  17.763  0.00  0.00    +0.000 A 
ATOM     11  C   UNL     1       1.431   2.836  17.966  0.00  0.00    +0.000 A 
ATOM     12  C   UNL     1       1.089   4.186  17.969  0.00  0.00    +0.000 A 
ATOM     13  C   UNL     1       2.085   5.141  17.794  0.00  0.00    +0.000 A 
ATOM     14  O   UNL     1       1.714   6.459  17.900  0.00  0.00    +0.000 OA
ATOM     15  C   UNL     1       2.297   8.783  18.191  0.00  0.00    +0.000 C 
ENDROOT
BRANCH   1  19
ATOM     16  C   UNL     1       0.942  14.128  18.794  0.00  0.00    +0.000 C 
ATOM     17  C   UNL     1       0.292  12.799  18.500  0.00  0.00    +0.000 A 
ATOM     18  C   UNL     1       1.091  11.577  18.809  0.00  0.00    +0.000 A 
ATOM     19  C   UNL     1       0.479  10.387  18.663  0.00  0.00    +0.000 A 
ATOM     20  N   UNL     1      -0.852  10.389  18.175  0.00  0.00    +0.000 N 
ATOM     21  N   UNL     1      -1.712   9.346  17.972  0.00  0.00    +0.000 NA
ATOM     22  C   UNL     1      -2.807   9.966  17.540  0.00  0.00    +0.000 A 
ATOM     23  N   UNL     1      -2.734  11.320  17.455  0.00  0.00    +0.000 NA
ATOM     24  C   UNL     1      -1.514  11.589  17.867  0.00  0.00    +0.000 A 
ATOM     25  N   UNL     1      -0.923  12.806  18.045  0.00  0.00    +0.000 NA
ENDBRANCH   1  19
TORSDOF 1
ENDMDL
MODEL 7
REMARK VINA RESULT:      -7.2      3.793      7.825
REMARK  Name = 
REMARK  2 active torsions:
REMARK  status: ('A' for Active; 'I' for Inactive)
REMARK    1  A    between atoms: C_1  and  C_2
REMARK    2  A    between atoms: C_4  and  N_5
REMARK                            x       y       z     vdW  Elec       q    Type
REMARK                         _______ _______ _______ _____ _____    ______ ____
ROOT
ATOM      1  N   UNL     1       4.007   5.858  18.135  0.00  0.00    +0.000 N 
ATOM      2  C   UNL     1       2.918   4.908  17.825  0.00  0.00    +0.000 C 
ATOM      3  C   UNL     1       1.612   5.379  18.447  0.00  0.00    +0.000 C 
ATOM      4  C   UNL     1       1.245   6.747  17.885  0.00  0.00    +0.000 C 
ATOM      5  C   UNL     1       2.333   7.788  18.225  0.00  0.00    +0.000 C 
ATOM      6  C   UNL     1       1.981   9.117  17.572  0.00  0.00    +0.000 C 
ATOM      7  C   UNL     1       1.191   9.998  18.200  0.00  0.00    +0.000 C 
ATOM      8  C   UNL     1       0.723   9.632  19.534  0.00  0.00    +0.000 A 
ATOM      9  C   UNL     1      -0.382  10.243  20.127  0.00  0.00    +0.000 A 
ATOM     10  C   UNL     1      -0.790   9.854  21.405  0.00  0.00    +0.000 A 
ATOM     11  C   UNL     1      -0.078   8.878  22.108  0.00  0.00    +0.000 A 
ATOM     12  C   UNL     1       1.032   8.270  21.525  0.00  0.00    +0.000 A 
ATOM     13  C   UNL     1       1.404   8.626  20.233  0.00  0.00    +0.000 A 
ATOM     14  O   UNL     1       2.444   7.932  19.668  0.00  0.00    +0.000 OA
ATOM     15  C   UNL     1       3.709   7.269  17.722  0.00  0.00    +0.000 C 
ENDROOT
BRANCH   1  19
ATOM     16  C   UNL     1       8.583   5.160  19.890  0.00  0.00    +0.000 C 
ATOM     17  C   UNL     1       7.620   5.068  18.733  0.00  0.00    +0.000 A 
ATOM     18  C   UNL     1       6.194   5.404  19.016  0.00  0.00    +0.000 A 
ATOM     19  C   UNL     1       5.349   5.439  17.969  0.00  0.00    +0.000 A 
ATOM     20  N   UNL     1       5.870   5.101  16.694  0.00  0.00    +0.000 N 
ATOM     21  N   UNL     1       5.257   5.094  15.472  0.00  0.00    +0.000 NA
ATOM     22  C   UNL     1       6.248   4.726  14.664  0.00  0.00    +0.000 A 
ATOM     23  N   UNL     1       7.451   4.505  15.256  0.00  0.00    +0.000 NA
ATOM     24  C   UNL     1       7.220   4.753  16.526  0.00  0.00    +0.000 A 
ATOM     25  N   UNL     1       8.100   4.748  17.570  0.00  0.00    +0.000 NA
ENDBRANCH   1  19
TORSDOF 1
ENDMDL
MODEL 8
REMARK VINA RESULT:      -7.2      2.524      7.696
REMARK  Name = 
REMARK  2 active torsions:
REMARK  status: ('A' for Active; 'I' for Inactive)
REMARK    1  A    between atoms: C_1  and  C_2
REMARK    2  A    between atoms: C_4  and  N_5
REMARK                            x       y       z     vdW  Elec       q    Type
REMARK                         _______ _______ _______ _____ _____    ______ ____
ROOT
ATOM      1  N   UNL     1       1.840   8.310  19.600  0.00  0.00    +0.000 N 
ATOM      2  C   UNL     1       1.367   8.268  21.000  0.00  0.00    +0.000 C 
ATOM      3  C   UNL     1       1.009   9.667  21.480  0.00  0.00    +0.000 C 
ATOM      4  C   UNL     1      -0.101  10.236  20.605  0.00  0.00    +0.000 C 
ATOM      5  C   UNL     1       0.361  10.343  19.135  0.00  0.00    +0.000 C 
ATOM      6  C   UNL     1      -0.797  10.827  18.276  0.00  0.00    +0.000 C 
ATOM      7  C   UNL     1      -1.029  12.137  18.115  0.00  0.00    +0.000 C 
ATOM      8  C   UNL     1      -0.103  13.056  18.772  0.00  0.00    +0.000 A 
ATOM      9  C   UNL     1      -0.430  14.390  19.015  0.00  0.00    +0.000 A 
ATOM     10  C   UNL     1       0.491  15.227  19.650  0.00  0.00    +0.000 A 
ATOM     11  C   UNL     1       1.752  14.745  20.012  0.00  0.00    +0.000 A 
ATOM     12  C   UNL     1       2.088  13.416  19.764  0.00  0.00    +0.000 A 
ATOM     13  C   UNL     1       1.149  12.574  19.178  0.00  0.00    +0.000 A 
ATOM     14  O   UNL     1       1.493  11.252  19.041  0.00  0.00    +0.000 OA
ATOM     15  C   UNL     1       0.866   8.953  18.657  0.00  0.00    +0.000 C 
ENDROOT
BRANCH   1  19
ATOM     16  C   UNL     1       4.902   6.287  16.278  0.00  0.00    +0.000 C 
ATOM     17  C   UNL     1       4.038   6.118  17.503  0.00  0.00    +0.000 A 
ATOM     18  C   UNL     1       3.419   7.354  18.065  0.00  0.00    +0.000 A 
ATOM     19  C   UNL     1       2.554   7.201  19.085  0.00  0.00    +0.000 A 
ATOM     20  N   UNL     1       2.343   5.889  19.576  0.00  0.00    +0.000 N 
ATOM     21  N   UNL     1       1.503   5.445  20.559  0.00  0.00    +0.000 NA
ATOM     22  C   UNL     1       1.722   4.133  20.545  0.00  0.00    +0.000 A 
ATOM     23  N   UNL     1       2.624   3.688  19.632  0.00  0.00    +0.000 NA
ATOM     24  C   UNL     1       3.004   4.785  19.013  0.00  0.00    +0.000 A 
ATOM     25  N   UNL     1       3.856   4.915  17.955  0.00  0.00    +0.000 NA
ENDBRANCH   1  19
TORSDOF 1
ENDMDL
MODEL 9
REMARK VINA RESULT:      -7.1      2.182      3.824
REMARK  Name = 
REMARK  2 active torsions:
REMARK  status: ('A' for Active; 'I' for Inactive)
REMARK    1  A    between atoms: C_1  and  C_2
REMARK    2  A    between atoms: C_4  and  N_5
REMARK                            x       y       z     vdW  Elec       q    Type
REMARK                         _______ _______ _______ _____ _____    ______ ____
ROOT
ATOM      1  N   UNL     1       2.332   6.819  19.242  0.00  0.00    +0.000 N 
ATOM      2  C   UNL     1       1.579   5.549  19.165  0.00  0.00    +0.000 C 
ATOM      3  C   UNL     1       2.220   4.616  18.149  0.00  0.00    +0.000 C 
ATOM      4  C   UNL     1       3.652   4.312  18.569  0.00  0.00    +0.000 C 
ATOM      5  C   UNL     1       4.494   5.606  18.619  0.00  0.00    +0.000 C 
ATOM      6  C   UNL     1       5.889   5.280  19.129  0.00  0.00    +0.000 C 
ATOM      7  C   UNL     1       6.854   4.895  18.283  0.00  0.00    +0.000 C 
ATOM      8  C   UNL     1       6.504   4.839  16.866  0.00  0.00    +0.000 A 
ATOM      9  C   UNL     1       7.253   4.106  15.945  0.00  0.00    +0.000 A 
ATOM     10  C   UNL     1       6.874   4.083  14.601  0.00  0.00    +0.000 A 
ATOM     11  C   UNL     1       5.768   4.818  14.165  0.00  0.00    +0.000 A 
ATOM     12  C   UNL     1       5.021   5.560  15.078  0.00  0.00    +0.000 A 
ATOM     13  C   UNL     1       5.373   5.538  16.423  0.00  0.00    +0.000 A 
ATOM     14  O   UNL     1       4.551   6.207  17.296  0.00  0.00    +0.000 OA
ATOM     15  C   UNL     1       3.789   6.635  19.546  0.00  0.00    +0.000 C 
ENDROOT
BRANCH   1  19
ATOM     16  C   UNL     1      -0.395   8.878  22.825  0.00  0.00    +0.000 C 
ATOM     17  C   UNL     1       0.386   9.044  21.545  0.00  0.00    +0.000 A 
ATOM     18  C   UNL     1       1.114   7.842  21.041  0.00  0.00    +0.000 A 
ATOM     19  C   UNL     1       1.716   7.945  19.842  0.00  0.00    +0.000 A 
ATOM     20  N   UNL     1       1.656   9.198  19.182  0.00  0.00    +0.000 N 
ATOM     21  N   UNL     1       2.136   9.566  17.956  0.00  0.00    +0.000 NA
ATOM     22  C   UNL     1       1.752  10.837  17.875  0.00  0.00    +0.000 A 
ATOM     23  N   UNL     1       1.058  11.321  18.938  0.00  0.00    +0.000 NA
ATOM     24  C   UNL     1       0.983  10.291  19.752  0.00  0.00    +0.000 A 
ATOM     25  N   UNL     1       0.336  10.196  20.950  0.00  0.00    +0.000 NA
ENDBRANCH   1  19
TORSDOF 1
ENDMDL
