MODEL 1
REMARK VINA RESULT:      -8.9      0.000      0.000
REMARK  Name = 
REMARK  6 active torsions:
REMARK  status: ('A' for Active; 'I' for Inactive)
REMARK    1  A    between atoms: C_1  and  N_2
REMARK    2  A    between atoms: N_2  and  S_3
REMARK    3  A    between atoms: S_3  and  C_6
REMARK    4  A    between atoms: C_9  and  N_10
REMARK    5  A    between atoms: N_10  and  C_11
REMARK    6  A    between atoms: C_13  and  C_14
REMARK                            x       y       z     vdW  Elec       q    Type
REMARK                         _______ _______ _______ _____ _____    ______ ____
ROOT
ATOM      1  C   UNL     1       2.546   6.054  18.958  0.00  0.00    +0.000 A 
ATOM      2  N   UNL     1       1.839   5.013  19.450  0.00  0.00    +0.000 NA
ATOM      3  C   UNL     1       2.053   3.786  18.900  0.00  0.00    +0.000 A 
ATOM      4  N   UNL     1       2.936   3.553  17.907  0.00  0.00    +0.000 NA
ATOM      5  C   UNL     1       3.647   4.571  17.439  0.00  0.00    +0.000 A 
ATOM      6  C   UNL     1       4.580   4.286  16.456  0.00  0.00    +0.000 A 
ATOM      7  C   UNL     1       5.386   5.278  15.923  0.00  0.00    +0.000 A 
ATOM      8  F   UNL     1       6.299   4.964  14.997  0.00  0.00    +0.000 F 
ATOM      9  C   UNL     1       5.259   6.587  16.343  0.00  0.00    +0.000 A 
ATOM     10  C   UNL     1       4.325   6.891  17.332  0.00  0.00    +0.000 A 
ATOM     11  C   UNL     1       3.505   5.878  17.919  0.00  0.00    +0.000 A 
ENDROOT
BRANCH   3  12
ATOM     12  C   UNL     1       1.302   2.544  19.406  0.00  0.00    +0.000 C 
ATOM     13  F   UNL     1       0.852   2.633  20.693  0.00  0.00    +0.000 F 
ATOM     14  F   UNL     1       0.199   2.250  18.653  0.00  0.00    +0.000 F 
ATOM     15  F   UNL     1       2.072   1.415  19.367  0.00  0.00    +0.000 F 
ENDBRANCH   3  12
BRANCH   1  16
ATOM     16  N   UNL     1       2.446   7.358  19.522  0.00  0.00    +0.000 N 
ATOM     17  H   UNL     1       3.328   7.625  19.939  0.00  0.00    +0.000 HD
BRANCH  16  21
ATOM     18  C   UNL     1      -0.028  10.759  19.036  0.00  0.00    +0.000 A 
ATOM     19  C   UNL     1       0.669  10.270  17.925  0.00  0.00    +0.000 A 
ATOM     20  C   UNL     1       1.507   9.144  18.049  0.00  0.00    +0.000 A 
ATOM     21  C   UNL     1       1.688   8.523  19.286  0.00  0.00    +0.000 A 
ATOM     22  C   UNL     1       0.970   9.041  20.388  0.00  0.00    +0.000 A 
ATOM     23  C   UNL     1       0.133  10.150  20.277  0.00  0.00    +0.000 A 
BRANCH  18  24
ATOM     24  S   UNL     1      -1.066  12.196  18.910  0.00  0.00    +0.000 S 
ATOM     25  O   UNL     1      -0.215  13.364  18.965  0.00  0.00    +0.000 OA
ATOM     26  O   UNL     1      -2.192  12.034  19.806  0.00  0.00    +0.000 OA
BRANCH  24  28
ATOM     27  C   UNL     1      -2.779  11.254  17.043  0.00  0.00    +0.000 C 
ATOM     28  N   UNL     1      -1.632  12.110  17.329  0.00  0.00    +0.000 NA
ATOM     29  H   UNL     1      -1.592  13.018  16.867  0.00  0.00    +0.000 HD
ENDBRANCH  24  28
ENDBRANCH  18  24
ENDBRANCH  16  21
ENDBRANCH   1  16
TORSDOF 5
ENDMDL
MODEL 2
REMARK VINA RESULT:      -8.8      0.111      1.180
REMARK  Name = 
REMARK  6 active torsions:
REMARK  status: ('A' for Active; 'I' for Inactive)
REMARK    1  A    between atoms: C_1  and  N_2
REMARK    2  A    between atoms: N_2  and  S_3
REMARK    3  A    between atoms: S_3  and  C_6
REMARK    4  A    between atoms: C_9  and  N_10
REMARK    5  A    between atoms: N_10  and  C_11
REMARK    6  A    between atoms: C_13  and  C_14
REMARK                            x       y       z     vdW  Elec       q    Type
REMARK                         _______ _______ _______ _____ _____    ______ ____
ROOT
ATOM      1  C   UNL     1       2.570   6.050  18.938  0.00  0.00    +0.000 A 
ATOM      2  N   UNL     1       1.856   5.017  19.434  0.00  0.00    +0.000 NA
ATOM      3  C   UNL     1       2.061   3.786  18.889  0.00  0.00    +0.000 A 
ATOM      4  N   UNL     1       2.943   3.543  17.897  0.00  0.00    +0.000 NA
ATOM      5  C   UNL     1       3.660   4.554  17.424  0.00  0.00    +0.000 A 
ATOM      6  C   UNL     1       4.590   4.260  16.442  0.00  0.00    +0.000 A 
ATOM      7  C   UNL     1       5.403   5.243  15.905  0.00  0.00    +0.000 A 
ATOM      8  F   UNL     1       6.314   4.920  14.979  0.00  0.00    +0.000 F 
ATOM      9  C   UNL     1       5.285   6.555  16.320  0.00  0.00    +0.000 A 
ATOM     10  C   UNL     1       4.354   6.869  17.308  0.00  0.00    +0.000 A 
ATOM     11  C   UNL     1       3.527   5.864  17.899  0.00  0.00    +0.000 A 
ENDROOT
BRANCH   3  12
ATOM     12  C   UNL     1       1.302   2.551  19.400  0.00  0.00    +0.000 C 
ATOM     13  F   UNL     1       2.031   1.395  19.408  0.00  0.00    +0.000 F 
ATOM     14  F   UNL     1       0.847   2.704  20.680  0.00  0.00    +0.000 F 
ATOM     15  F   UNL     1       0.189   2.275  18.655  0.00  0.00    +0.000 F 
ENDBRANCH   3  12
BRANCH   1  16
ATOM     16  N   UNL     1       2.479   7.358  19.497  0.00  0.00    +0.000 N 
ATOM     17  H   UNL     1       3.403   7.706  19.720  0.00  0.00    +0.000 HD
BRANCH  16  21
ATOM     18  C   UNL     1       0.003  10.757  19.009  0.00  0.00    +0.000 A 
ATOM     19  C   UNL     1       0.111  10.180  20.279  0.00  0.00    +0.000 A 
ATOM     20  C   UNL     1       0.921   9.043  20.480  0.00  0.00    +0.000 A 
ATOM     21  C   UNL     1       1.594   8.452  19.411  0.00  0.00    +0.000 A 
ATOM     22  C   UNL     1       1.465   9.058  18.140  0.00  0.00    +0.000 A 
ATOM     23  C   UNL     1       0.673  10.186  17.930  0.00  0.00    +0.000 A 
BRANCH  18  24
ATOM     24  S   UNL     1      -1.036  12.170  18.726  0.00  0.00    +0.000 S 
ATOM     25  O   UNL     1      -0.189  13.341  18.685  0.00  0.00    +0.000 OA
ATOM     26  O   UNL     1      -2.178  12.090  19.613  0.00  0.00    +0.000 OA
BRANCH  24  28
ATOM     27  C   UNL     1      -2.801  11.172  16.939  0.00  0.00    +0.000 C 
ATOM     28  N   UNL     1      -1.572  11.930  17.151  0.00  0.00    +0.000 NA
ATOM     29  H   UNL     1      -1.420  12.757  16.574  0.00  0.00    +0.000 HD
ENDBRANCH  24  28
ENDBRANCH  18  24
ENDBRANCH  16  21
ENDBRANCH   1  16
TORSDOF 5
ENDMDL
MODEL 3
REMARK VINA RESULT:      -8.7      1.067      1.315
REMARK  Name = 
REMARK  6 active torsions:
REMARK  status: ('A' for Active; 'I' for Inactive)
REMARK    1  A    between atoms: C_1  and  N_2
REMARK    2  A    between atoms: N_2  and  S_3
REMARK    3  A    between atoms: S_3  and  C_6
REMARK    4  A    between atoms: C_9  and  N_10
REMARK    5  A    between atoms: N_10  and  C_11
REMARK    6  A    between atoms: C_13  and  C_14
REMARK                            x       y       z     vdW  Elec       q    Type
REMARK                         _______ _______ _______ _____ _____    ______ ____
ROOT
ATOM      1  C   UNL     1       2.689   6.213  19.436  0.00  0.00    +0.000 A 
ATOM      2  N   UNL     1       2.204   5.220  20.212  0.00  0.00    +0.000 NA
ATOM      3  C   UNL     1       2.510   3.939  19.866  0.00  0.00    +0.000 A 
ATOM      4  N   UNL     1       3.278   3.612  18.805  0.00  0.00    +0.000 NA
ATOM      5  C   UNL     1       3.772   4.588  18.056  0.00  0.00    +0.000 A 
ATOM      6  C   UNL     1       4.597   4.219  17.007  0.00  0.00    +0.000 A 
ATOM      7  C   UNL     1       5.180   5.167  16.184  0.00  0.00    +0.000 A 
ATOM      8  F   UNL     1       5.997   4.778  15.198  0.00  0.00    +0.000 F 
ATOM      9  C   UNL     1       4.931   6.512  16.376  0.00  0.00    +0.000 A 
ATOM     10  C   UNL     1       4.104   6.901  17.428  0.00  0.00    +0.000 A 
ATOM     11  C   UNL     1       3.517   5.941  18.309  0.00  0.00    +0.000 A 
ENDROOT
BRANCH   3  12
ATOM     12  C   UNL     1       2.011   2.747  20.699  0.00  0.00    +0.000 C 
ATOM     13  F   UNL     1       0.834   2.962  21.358  0.00  0.00    +0.000 F 
ATOM     14  F   UNL     1       1.807   1.625  19.945  0.00  0.00    +0.000 F 
ATOM     15  F   UNL     1       2.905   2.372  21.663  0.00  0.00    +0.000 F 
ENDBRANCH   3  12
BRANCH   1  16
ATOM     16  N   UNL     1       2.486   7.584  19.764  0.00  0.00    +0.000 N 
ATOM     17  H   UNL     1       3.372   8.027  19.970  0.00  0.00    +0.000 HD
BRANCH  16  21
ATOM     18  C   UNL     1      -0.531  10.469  19.059  0.00  0.00    +0.000 A 
ATOM     19  C   UNL     1       0.268  10.056  17.988  0.00  0.00    +0.000 A 
ATOM     20  C   UNL     1       1.287   9.102  18.184  0.00  0.00    +0.000 A 
ATOM     21  C   UNL     1       1.542   8.585  19.455  0.00  0.00    +0.000 A 
ATOM     22  C   UNL     1       0.718   9.022  20.517  0.00  0.00    +0.000 A 
ATOM     23  C   UNL     1      -0.297   9.961  20.334  0.00  0.00    +0.000 A 
BRANCH  18  24
ATOM     24  S   UNL     1      -1.800  11.694  18.841  0.00  0.00    +0.000 S 
ATOM     25  O   UNL     1      -1.997  12.359  20.110  0.00  0.00    +0.000 OA
ATOM     26  O   UNL     1      -2.903  11.094  18.119  0.00  0.00    +0.000 OA
BRANCH  24  28
ATOM     27  C   UNL     1      -0.181  13.819  18.434  0.00  0.00    +0.000 C 
ATOM     28  N   UNL     1      -1.062  12.822  17.836  0.00  0.00    +0.000 NA
ATOM     29  H   UNL     1      -0.772  12.403  16.952  0.00  0.00    +0.000 HD
ENDBRANCH  24  28
ENDBRANCH  18  24
ENDBRANCH  16  21
ENDBRANCH   1  16
TORSDOF 5
ENDMDL
MODEL 4
REMARK VINA RESULT:      -8.7      1.736      2.386
REMARK  Name = 
REMARK  6 active torsions:
REMARK  status: ('A' for Active; 'I' for Inactive)
REMARK    1  A    between atoms: C_1  and  N_2
REMARK    2  A    between atoms: N_2  and  S_3
REMARK    3  A    between atoms: S_3  and  C_6
REMARK    4  A    between atoms: C_9  and  N_10
REMARK    5  A    between atoms: N_10  and  C_11
REMARK    6  A    between atoms: C_13  and  C_14
REMARK                            x       y       z     vdW  Elec       q    Type
REMARK                         _______ _______ _______ _____ _____    ______ ____
ROOT
ATOM      1  C   UNL     1       2.661   6.010  18.275  0.00  0.00    +0.000 A 
ATOM      2  N   UNL     1       1.853   5.130  18.905  0.00  0.00    +0.000 NA
ATOM      3  C   UNL     1       2.065   3.804  18.681  0.00  0.00    +0.000 A 
ATOM      4  N   UNL     1       3.041   3.325  17.881  0.00  0.00    +0.000 NA
ATOM      5  C   UNL     1       3.849   4.189  17.280  0.00  0.00    +0.000 A 
ATOM      6  C   UNL     1       4.870   3.662  16.508  0.00  0.00    +0.000 A 
ATOM      7  C   UNL     1       5.778   4.483  15.862  0.00  0.00    +0.000 A 
ATOM      8  F   UNL     1       6.772   3.941  15.148  0.00  0.00    +0.000 F 
ATOM      9  C   UNL     1       5.671   5.857  15.952  0.00  0.00    +0.000 A 
ATOM     10  C   UNL     1       4.650   6.404  16.726  0.00  0.00    +0.000 A 
ATOM     11  C   UNL     1       3.720   5.575  17.427  0.00  0.00    +0.000 A 
ENDROOT
BRANCH   3  12
ATOM     12  C   UNL     1       1.202   2.731  19.365  0.00  0.00    +0.000 C 
ATOM     13  F   UNL     1       0.164   2.265  18.609  0.00  0.00    +0.000 F 
ATOM     14  F   UNL     1       1.920   1.624  19.721  0.00  0.00    +0.000 F 
ATOM     15  F   UNL     1       0.635   3.178  20.526  0.00  0.00    +0.000 F 
ENDBRANCH   3  12
BRANCH   1  16
ATOM     16  N   UNL     1       2.564   7.412  18.509  0.00  0.00    +0.000 N 
ATOM     17  H   UNL     1       2.809   7.922  17.669  0.00  0.00    +0.000 HD
BRANCH  16  21
ATOM     18  C   UNL     1       0.448  10.211  20.878  0.00  0.00    +0.000 A 
ATOM     19  C   UNL     1       0.895   9.027  21.474  0.00  0.00    +0.000 A 
ATOM     20  C   UNL     1       1.597   8.068  20.716  0.00  0.00    +0.000 A 
ATOM     21  C   UNL     1       1.823   8.264  19.353  0.00  0.00    +0.000 A 
ATOM     22  C   UNL     1       1.360   9.470  18.780  0.00  0.00    +0.000 A 
ATOM     23  C   UNL     1       0.669  10.430  19.521  0.00  0.00    +0.000 A 
BRANCH  18  24
ATOM     24  S   UNL     1      -0.466  11.419  21.806  0.00  0.00    +0.000 S 
ATOM     25  O   UNL     1      -0.450  11.017  23.194  0.00  0.00    +0.000 OA
ATOM     26  O   UNL     1      -1.705  11.697  21.110  0.00  0.00    +0.000 OA
BRANCH  24  28
ATOM     27  C   UNL     1      -0.025  14.062  22.163  0.00  0.00    +0.000 C 
ATOM     28  N   UNL     1       0.512  12.784  21.707  0.00  0.00    +0.000 NA
ATOM     29  H   UNL     1       1.481  12.567  21.938  0.00  0.00    +0.000 HD
ENDBRANCH  24  28
ENDBRANCH  18  24
ENDBRANCH  16  21
ENDBRANCH   1  16
TORSDOF 5
ENDMDL
MODEL 5
REMARK VINA RESULT:      -8.6      0.729      1.130
REMARK  Name = 
REMARK  6 active torsions:
REMARK  status: ('A' for Active; 'I' for Inactive)
REMARK    1  A    between atoms: C_1  and  N_2
REMARK    2  A    between atoms: N_2  and  S_3
REMARK    3  A    between atoms: S_3  and  C_6
REMARK    4  A    between atoms: C_9  and  N_10
REMARK    5  A    between atoms: N_10  and  C_11
REMARK    6  A    between atoms: C_13  and  C_14
REMARK                            x       y       z     vdW  Elec       q    Type
REMARK                         _______ _______ _______ _____ _____    ______ ____
ROOT
ATOM      1  C   UNL     1       2.636   6.233  19.463  0.00  0.00    +0.000 A 
ATOM      2  N   UNL     1       2.137   5.220  20.204  0.00  0.00    +0.000 NA
ATOM      3  C   UNL     1       2.442   3.948  19.825  0.00  0.00    +0.000 A 
ATOM      4  N   UNL     1       3.221   3.648  18.765  0.00  0.00    +0.000 NA
ATOM      5  C   UNL     1       3.728   4.643  18.050  0.00  0.00    +0.000 A 
ATOM      6  C   UNL     1       4.564   4.300  17.000  0.00  0.00    +0.000 A 
ATOM      7  C   UNL     1       5.161   5.268  16.212  0.00  0.00    +0.000 A 
ATOM      8  F   UNL     1       5.988   4.904  15.225  0.00  0.00    +0.000 F 
ATOM      9  C   UNL     1       4.915   6.608  16.439  0.00  0.00    +0.000 A 
ATOM     10  C   UNL     1       4.078   6.971  17.492  0.00  0.00    +0.000 A 
ATOM     11  C   UNL     1       3.476   5.989  18.338  0.00  0.00    +0.000 A 
ENDROOT
BRANCH   3  12
ATOM     12  C   UNL     1       1.928   2.735  20.618  0.00  0.00    +0.000 C 
ATOM     13  F   UNL     1       1.704   1.616  19.868  0.00  0.00    +0.000 F 
ATOM     14  F   UNL     1       2.790   2.346  21.605  0.00  0.00    +0.000 F 
ATOM     15  F   UNL     1       0.745   2.989  21.256  0.00  0.00    +0.000 F 
ENDBRANCH   3  12
BRANCH   1  16
ATOM     16  N   UNL     1       2.434   7.595  19.827  0.00  0.00    +0.000 N 
ATOM     17  H   UNL     1       3.294   7.990  20.186  0.00  0.00    +0.000 HD
BRANCH  16  21
ATOM     18  C   UNL     1      -0.313  10.670  18.869  0.00  0.00    +0.000 A 
ATOM     19  C   UNL     1       0.468  10.123  17.846  0.00  0.00    +0.000 A 
ATOM     20  C   UNL     1       1.399   9.102  18.126  0.00  0.00    +0.000 A 
ATOM     21  C   UNL     1       1.585   8.649  19.433  0.00  0.00    +0.000 A 
ATOM     22  C   UNL     1       0.781   9.221  20.445  0.00  0.00    +0.000 A 
ATOM     23  C   UNL     1      -0.147  10.227  20.179  0.00  0.00    +0.000 A 
BRANCH  18  24
ATOM     24  S   UNL     1      -1.469  11.979  18.544  0.00  0.00    +0.000 S 
ATOM     25  O   UNL     1      -0.772  13.236  18.702  0.00  0.00    +0.000 OA
ATOM     26  O   UNL     1      -2.699  11.698  19.255  0.00  0.00    +0.000 OA
BRANCH  24  28
ATOM     27  C   UNL     1      -2.895  11.005  16.465  0.00  0.00    +0.000 C 
ATOM     28  N   UNL     1      -1.763  11.817  16.896  0.00  0.00    +0.000 NA
ATOM     29  H   UNL     1      -1.588  12.689  16.397  0.00  0.00    +0.000 HD
ENDBRANCH  24  28
ENDBRANCH  18  24
ENDBRANCH  16  21
ENDBRANCH   1  16
TORSDOF 5
ENDMDL
MODEL 6
REMARK VINA RESULT:      -8.6      2.312      4.423
REMARK  Name = 
REMARK  6 active torsions:
REMARK  status: ('A' for Active; 'I' for Inactive)
REMARK    1  A    between atoms: C_1  and  N_2
REMARK    2  A    between atoms: N_2  and  S_3
REMARK    3  A    between atoms: S_3  and  C_6
REMARK    4  A    between atoms: C_9  and  N_10
REMARK    5  A    between atoms: N_10  and  C_11
REMARK    6  A    between atoms: C_13  and  C_14
REMARK                            x       y       z     vdW  Elec       q    Type
REMARK                         _______ _______ _______ _____ _____    ______ ____
ROOT
ATOM      1  C   UNL     1       3.756   6.124  18.143  0.00  0.00    +0.000 A 
ATOM      2  N   UNL     1       5.094   6.294  18.073  0.00  0.00    +0.000 NA
ATOM      3  C   UNL     1       5.885   5.220  18.349  0.00  0.00    +0.000 A 
ATOM      4  N   UNL     1       5.406   4.000  18.671  0.00  0.00    +0.000 NA
ATOM      5  C   UNL     1       4.092   3.827  18.718  0.00  0.00    +0.000 A 
ATOM      6  C   UNL     1       3.636   2.551  19.002  0.00  0.00    +0.000 A 
ATOM      7  C   UNL     1       2.282   2.266  19.049  0.00  0.00    +0.000 A 
ATOM      8  F   UNL     1       1.875   1.016  19.295  0.00  0.00    +0.000 F 
ATOM      9  C   UNL     1       1.348   3.261  18.837  0.00  0.00    +0.000 A 
ATOM     10  C   UNL     1       1.789   4.551  18.549  0.00  0.00    +0.000 A 
ATOM     11  C   UNL     1       3.182   4.860  18.465  0.00  0.00    +0.000 A 
ENDROOT
BRANCH   3  12
ATOM     12  C   UNL     1       7.417   5.319  18.281  0.00  0.00    +0.000 C 
ATOM     13  F   UNL     1       8.038   4.226  17.748  0.00  0.00    +0.000 F 
ATOM     14  F   UNL     1       7.845   6.382  17.535  0.00  0.00    +0.000 F 
ATOM     15  F   UNL     1       7.985   5.496  19.513  0.00  0.00    +0.000 F 
ENDBRANCH   3  12
BRANCH   1  16
ATOM     16  N   UNL     1       2.851   7.168  17.797  0.00  0.00    +0.000 N 
ATOM     17  H   UNL     1       2.255   6.873  17.035  0.00  0.00    +0.000 HD
BRANCH  16  21
ATOM     18  C   UNL     1       0.856  10.226  19.939  0.00  0.00    +0.000 A 
ATOM     19  C   UNL     1       1.227  10.467  18.612  0.00  0.00    +0.000 A 
ATOM     20  C   UNL     1       1.899   9.476  17.868  0.00  0.00    +0.000 A 
ATOM     21  C   UNL     1       2.240   8.256  18.453  0.00  0.00    +0.000 A 
ATOM     22  C   UNL     1       1.851   8.043  19.795  0.00  0.00    +0.000 A 
ATOM     23  C   UNL     1       1.180   9.013  20.540  0.00  0.00    +0.000 A 
BRANCH  18  24
ATOM     24  S   UNL     1       0.036  11.473  20.904  0.00  0.00    +0.000 S 
ATOM     25  O   UNL     1      -1.373  11.428  20.583  0.00  0.00    +0.000 OA
ATOM     26  O   UNL     1       0.796  12.702  20.815  0.00  0.00    +0.000 OA
BRANCH  24  28
ATOM     27  C   UNL     1      -1.041  10.475  23.173  0.00  0.00    +0.000 C 
ATOM     28  N   UNL     1       0.173  10.880  22.472  0.00  0.00    +0.000 NA
ATOM     29  H   UNL     1       1.000  10.293  22.580  0.00  0.00    +0.000 HD
ENDBRANCH  24  28
ENDBRANCH  18  24
ENDBRANCH  16  21
ENDBRANCH   1  16
TORSDOF 5
ENDMDL
MODEL 7
REMARK VINA RESULT:      -8.6      2.319      4.454
REMARK  Name = 
REMARK  6 active torsions:
REMARK  status: ('A' for Active; 'I' for Inactive)
REMARK    1  A    between atoms: C_1  and  N_2
REMARK    2  A    between atoms: N_2  and  S_3
REMARK    3  A    between atoms: S_3  and  C_6
REMARK    4  A    between atoms: C_9  and  N_10
REMARK    5  A    between atoms: N_10  and  C_11
REMARK    6  A    between atoms: C_13  and  C_14
REMARK                            x       y       z     vdW  Elec       q    Type
REMARK                         _______ _______ _______ _____ _____    ______ ____
ROOT
ATOM      1  C   UNL     1       3.875   6.179  18.214  0.00  0.00    +0.000 A 
ATOM      2  N   UNL     1       5.214   6.351  18.160  0.00  0.00    +0.000 NA
ATOM      3  C   UNL     1       6.001   5.273  18.427  0.00  0.00    +0.000 A 
ATOM      4  N   UNL     1       5.520   4.048  18.725  0.00  0.00    +0.000 NA
ATOM      5  C   UNL     1       4.205   3.874  18.756  0.00  0.00    +0.000 A 
ATOM      6  C   UNL     1       3.746   2.594  19.016  0.00  0.00    +0.000 A 
ATOM      7  C   UNL     1       2.392   2.308  19.045  0.00  0.00    +0.000 A 
ATOM      8  F   UNL     1       1.982   1.054  19.268  0.00  0.00    +0.000 F 
ATOM      9  C   UNL     1       1.460   3.306  18.840  0.00  0.00    +0.000 A 
ATOM     10  C   UNL     1       1.904   4.601  18.577  0.00  0.00    +0.000 A 
ATOM     11  C   UNL     1       3.298   4.911  18.511  0.00  0.00    +0.000 A 
ENDROOT
BRANCH   3  12
ATOM     12  C   UNL     1       7.534   5.373  18.376  0.00  0.00    +0.000 C 
ATOM     13  F   UNL     1       8.142   5.472  19.595  0.00  0.00    +0.000 F 
ATOM     14  F   UNL     1       8.114   4.295  17.766  0.00  0.00    +0.000 F 
ATOM     15  F   UNL     1       7.965   6.459  17.665  0.00  0.00    +0.000 F 
ENDBRANCH   3  12
BRANCH   1  16
ATOM     16  N   UNL     1       2.973   7.229  17.876  0.00  0.00    +0.000 N 
ATOM     17  H   UNL     1       2.519   7.027  16.995  0.00  0.00    +0.000 HD
BRANCH  16  21
ATOM     18  C   UNL     1       0.824  10.325  19.805  0.00  0.00    +0.000 A 
ATOM     19  C   UNL     1       1.047   9.129  20.496  0.00  0.00    +0.000 A 
ATOM     20  C   UNL     1       1.753   8.073  19.885  0.00  0.00    +0.000 A 
ATOM     21  C   UNL     1       2.205   8.186  18.570  0.00  0.00    +0.000 A 
ATOM     22  C   UNL     1       1.964   9.406  17.898  0.00  0.00    +0.000 A 
ATOM     23  C   UNL     1       1.273  10.461  18.494  0.00  0.00    +0.000 A 
BRANCH  18  24
ATOM     24  S   UNL     1      -0.090  11.657  20.544  0.00  0.00    +0.000 S 
ATOM     25  O   UNL     1      -1.488  11.464  20.229  0.00  0.00    +0.000 OA
ATOM     26  O   UNL     1       0.589  12.903  20.252  0.00  0.00    +0.000 OA
BRANCH  24  28
ATOM     27  C   UNL     1      -1.134  10.989  22.946  0.00  0.00    +0.000 C 
ATOM     28  N   UNL     1       0.061  11.346  22.189  0.00  0.00    +0.000 NA
ATOM     29  H   UNL     1       0.922  10.840  22.397  0.00  0.00    +0.000 HD
ENDBRANCH  24  28
ENDBRANCH  18  24
ENDBRANCH  16  21
ENDBRANCH   1  16
TORSDOF 5
ENDMDL
MODEL 8
REMARK VINA RESULT:      -8.6      1.067      1.805
REMARK  Name = 
REMARK  6 active torsions:
REMARK  status: ('A' for Active; 'I' for Inactive)
REMARK    1  A    between atoms: C_1  and  N_2
REMARK    2  A    between atoms: N_2  and  S_3
REMARK    3  A    between atoms: S_3  and  C_6
REMARK    4  A    between atoms: C_9  and  N_10
REMARK    5  A    between atoms: N_10  and  C_11
REMARK    6  A    between atoms: C_13  and  C_14
REMARK                            x       y       z     vdW  Elec       q    Type
REMARK                         _______ _______ _______ _____ _____    ______ ____
ROOT
ATOM      1  C   UNL     1       2.633   6.299  19.349  0.00  0.00    +0.000 A 
ATOM      2  N   UNL     1       2.141   5.303  20.117  0.00  0.00    +0.000 NA
ATOM      3  C   UNL     1       2.465   4.025  19.780  0.00  0.00    +0.000 A 
ATOM      4  N   UNL     1       3.256   3.702  18.735  0.00  0.00    +0.000 NA
ATOM      5  C   UNL     1       3.757   4.682  17.994  0.00  0.00    +0.000 A 
ATOM      6  C   UNL     1       4.605   4.317  16.962  0.00  0.00    +0.000 A 
ATOM      7  C   UNL     1       5.196   5.269  16.149  0.00  0.00    +0.000 A 
ATOM      8  F   UNL     1       6.036   4.886  15.179  0.00  0.00    +0.000 F 
ATOM      9  C   UNL     1       4.931   6.612  16.333  0.00  0.00    +0.000 A 
ATOM     10  C   UNL     1       4.081   6.996  17.367  0.00  0.00    +0.000 A 
ATOM     11  C   UNL     1       3.485   6.032  18.238  0.00  0.00    +0.000 A 
ENDROOT
BRANCH   3  12
ATOM     12  C   UNL     1       1.961   2.830  20.605  0.00  0.00    +0.000 C 
ATOM     13  F   UNL     1       1.749   1.687  19.887  0.00  0.00    +0.000 F 
ATOM     14  F   UNL     1       2.824   2.477  21.605  0.00  0.00    +0.000 F 
ATOM     15  F   UNL     1       0.774   3.090  21.233  0.00  0.00    +0.000 F 
ENDBRANCH   3  12
BRANCH   1  16
ATOM     16  N   UNL     1       2.411   7.669  19.670  0.00  0.00    +0.000 N 
ATOM     17  H   UNL     1       3.294   8.162  19.722  0.00  0.00    +0.000 HD
BRANCH  16  21
ATOM     18  C   UNL     1      -0.530  10.608  18.875  0.00  0.00    +0.000 A 
ATOM     19  C   UNL     1      -0.308  10.220  20.201  0.00  0.00    +0.000 A 
ATOM     20  C   UNL     1       0.659   9.240  20.505  0.00  0.00    +0.000 A 
ATOM     21  C   UNL     1       1.379   8.613  19.489  0.00  0.00    +0.000 A 
ATOM     22  C   UNL     1       1.132   9.026  18.160  0.00  0.00    +0.000 A 
ATOM     23  C   UNL     1       0.183   9.999  17.847  0.00  0.00    +0.000 A 
BRANCH  18  24
ATOM     24  S   UNL     1      -1.765  11.819  18.466  0.00  0.00    +0.000 S 
ATOM     25  O   UNL     1      -2.297  12.345  19.703  0.00  0.00    +0.000 OA
ATOM     26  O   UNL     1      -2.628  11.271  17.441  0.00  0.00    +0.000 OA
BRANCH  24  28
ATOM     27  C   UNL     1       0.161  13.709  18.604  0.00  0.00    +0.000 C 
ATOM     28  N   UNL     1      -0.859  13.061  17.786  0.00  0.00    +0.000 NA
ATOM     29  H   UNL     1      -0.633  12.869  16.811  0.00  0.00    +0.000 HD
ENDBRANCH  24  28
ENDBRANCH  18  24
ENDBRANCH  16  21
ENDBRANCH   1  16
TORSDOF 5
ENDMDL
MODEL 9
REMARK VINA RESULT:      -8.6      0.864      1.231
REMARK  Name = 
REMARK  6 active torsions:
REMARK  status: ('A' for Active; 'I' for Inactive)
REMARK    1  A    between atoms: C_1  and  N_2
REMARK    2  A    between atoms: N_2  and  S_3
REMARK    3  A    between atoms: S_3  and  C_6
REMARK    4  A    between atoms: C_9  and  N_10
REMARK    5  A    between atoms: N_10  and  C_11
REMARK    6  A    between atoms: C_13  and  C_14
REMARK                            x       y       z     vdW  Elec       q    Type
REMARK                         _______ _______ _______ _____ _____    ______ ____
ROOT
ATOM      1  C   UNL     1       2.611   5.982  18.847  0.00  0.00    +0.000 A 
ATOM      2  N   UNL     1       1.919   4.941  19.359  0.00  0.00    +0.000 NA
ATOM      3  C   UNL     1       2.136   3.711  18.819  0.00  0.00    +0.000 A 
ATOM      4  N   UNL     1       3.009   3.474  17.817  0.00  0.00    +0.000 NA
ATOM      5  C   UNL     1       3.704   4.493  17.329  0.00  0.00    +0.000 A 
ATOM      6  C   UNL     1       4.626   4.206  16.337  0.00  0.00    +0.000 A 
ATOM      7  C   UNL     1       5.416   5.199  15.783  0.00  0.00    +0.000 A 
ATOM      8  F   UNL     1       6.320   4.883  14.848  0.00  0.00    +0.000 F 
ATOM      9  C   UNL     1       5.284   6.512  16.191  0.00  0.00    +0.000 A 
ATOM     10  C   UNL     1       4.361   6.818  17.189  0.00  0.00    +0.000 A 
ATOM     11  C   UNL     1       3.557   5.804  17.797  0.00  0.00    +0.000 A 
ENDROOT
BRANCH   3  12
ATOM     12  C   UNL     1       1.403   2.467  19.348  0.00  0.00    +0.000 C 
ATOM     13  F   UNL     1       2.129   1.311  19.298  0.00  0.00    +0.000 F 
ATOM     14  F   UNL     1       1.015   2.598  20.652  0.00  0.00    +0.000 F 
ATOM     15  F   UNL     1       0.252   2.204  18.657  0.00  0.00    +0.000 F 
ENDBRANCH   3  12
BRANCH   1  16
ATOM     16  N   UNL     1       2.506   7.292  19.398  0.00  0.00    +0.000 N 
ATOM     17  H   UNL     1       3.420   7.626  19.675  0.00  0.00    +0.000 HD
BRANCH  16  21
ATOM     18  C   UNL     1      -0.263  10.487  19.201  0.00  0.00    +0.000 A 
ATOM     19  C   UNL     1       0.440  10.135  18.045  0.00  0.00    +0.000 A 
ATOM     20  C   UNL     1       1.375   9.080  18.072  0.00  0.00    +0.000 A 
ATOM     21  C   UNL     1       1.645   8.399  19.259  0.00  0.00    +0.000 A 
ATOM     22  C   UNL     1       0.918   8.779  20.411  0.00  0.00    +0.000 A 
ATOM     23  C   UNL     1      -0.015   9.815  20.395  0.00  0.00    +0.000 A 
BRANCH  18  24
ATOM     24  S   UNL     1      -1.424  11.833  19.197  0.00  0.00    +0.000 S 
ATOM     25  O   UNL     1      -1.305  12.525  20.461  0.00  0.00    +0.000 OA
ATOM     26  O   UNL     1      -2.700  11.343  18.718  0.00  0.00    +0.000 OA
BRANCH  24  28
ATOM     27  C   UNL     1      -0.009  14.022  18.483  0.00  0.00    +0.000 C 
ATOM     28  N   UNL     1      -0.788  12.871  18.038  0.00  0.00    +0.000 NA
ATOM     29  H   UNL     1      -0.453  12.360  17.221  0.00  0.00    +0.000 HD
ENDBRANCH  24  28
ENDBRANCH  18  24
ENDBRANCH  16  21
ENDBRANCH   1  16
TORSDOF 5
ENDMDL
