MODEL 1
REMARK VINA RESULT:      -8.1      0.000      0.000
REMARK  Name = 
REMARK  4 active torsions:
REMARK  status: ('A' for Active; 'I' for Inactive)
REMARK    1  A    between atoms: C_2  and  C_3
REMARK    2  A    between atoms: C_7  and  C_8
REMARK    3  A    between atoms: C_18  and  C_19
REMARK    4  A    between atoms: C_22  and  C_23
REMARK                            x       y       z     vdW  Elec       q    Type
REMARK                         _______ _______ _______ _____ _____    ______ ____
ROOT
ATOM      1  O   UNL     1      -1.477  13.053  22.856  0.00  0.00    +0.000 OA
ATOM      2  C   UNL     1      -0.885  12.547  21.905  0.00  0.00    +0.000 C 
ATOM      3  N   UNL     1      -0.547  11.189  21.897  0.00  0.00    +0.000 N 
ATOM      4  C   UNL     1      -0.883  10.353  23.047  0.00  0.00    +0.000 C 
ATOM      5  C   UNL     1       0.252   9.382  23.383  0.00  0.00    +0.000 C 
ATOM      6  C   UNL     1       0.777   8.623  22.158  0.00  0.00    +0.000 C 
ATOM      7  C   UNL     1       1.068   9.579  20.992  0.00  0.00    +0.000 C 
ATOM      8  C   UNL     1      -0.174  10.425  20.706  0.00  0.00    +0.000 C 
ENDROOT
BRANCH   2   9
ATOM      9  C   UNL     1      -0.513  13.352  20.746  0.00  0.00    +0.000 A 
ATOM     10  C   UNL     1       0.426  14.371  20.725  0.00  0.00    +0.000 A 
ATOM     11  N   UNL     1       0.481  14.819  19.446  0.00  0.00    +0.000 N 
ATOM     12  N   UNL     1      -0.420  14.247  18.645  0.00  0.00    +0.000 NA
ATOM     13  C   UNL     1      -1.063  13.351  19.419  0.00  0.00    +0.000 A 
ATOM     14  H   UNL     1       1.101  15.518  19.050  0.00  0.00    +0.000 HD
BRANCH  13  15
ATOM     15  C   UNL     1      -2.138  12.547  18.835  0.00  0.00    +0.000 A 
ATOM     16  C   UNL     1      -3.420  12.463  19.384  0.00  0.00    +0.000 A 
ATOM     17  C   UNL     1      -4.392  11.672  18.767  0.00  0.00    +0.000 A 
ATOM     18  C   UNL     1      -4.049  10.974  17.622  0.00  0.00    +0.000 A 
ATOM     19  N   UNL     1      -2.823  11.010  17.064  0.00  0.00    +0.000 NA
ATOM     20  C   UNL     1      -1.902  11.793  17.685  0.00  0.00    +0.000 A 
ENDBRANCH  13  15
ENDBRANCH   2   9
BRANCH   7  21
ATOM     21  C   UNL     1       1.525   8.869  19.767  0.00  0.00    +0.000 A 
ATOM     22  N   UNL     1       1.521   9.428  18.551  0.00  0.00    +0.000 NA
ATOM     23  N   UNL     1       2.071   8.455  17.810  0.00  0.00    +0.000 N 
ATOM     24  C   UNL     1       2.355   7.344  18.557  0.00  0.00    +0.000 A 
ATOM     25  N   UNL     1       2.051   7.607  19.815  0.00  0.00    +0.000 NA
ATOM     26  H   UNL     1       2.237   8.616  16.824  0.00  0.00    +0.000 HD
BRANCH  24  27
ATOM     27  C   UNL     1       2.919   6.111  18.025  0.00  0.00    +0.000 A 
ATOM     28  C   UNL     1       2.147   4.938  18.038  0.00  0.00    +0.000 A 
ATOM     29  C   UNL     1       2.653   3.747  17.515  0.00  0.00    +0.000 A 
ATOM     30  C   UNL     1       3.932   3.719  16.963  0.00  0.00    +0.000 A 
ATOM     31  C   UNL     1       4.706   4.878  16.938  0.00  0.00    +0.000 A 
ATOM     32  C   UNL     1       4.204   6.067  17.468  0.00  0.00    +0.000 A 
ENDBRANCH  24  27
ENDBRANCH   7  21
TORSDOF 4
ENDMDL
MODEL 2
REMARK VINA RESULT:      -8.0      4.808      8.806
REMARK  Name = 
REMARK  4 active torsions:
REMARK  status: ('A' for Active; 'I' for Inactive)
REMARK    1  A    between atoms: C_2  and  C_3
REMARK    2  A    between atoms: C_7  and  C_8
REMARK    3  A    between atoms: C_18  and  C_19
REMARK    4  A    between atoms: C_22  and  C_23
REMARK                            x       y       z     vdW  Elec       q    Type
REMARK                         _______ _______ _______ _____ _____    ______ ____
ROOT
ATOM      1  O   UNL     1       2.407   3.281  16.750  0.00  0.00    +0.000 OA
ATOM      2  C   UNL     1       3.199   3.926  17.433  0.00  0.00    +0.000 C 
ATOM      3  N   UNL     1       4.295   4.579  16.858  0.00  0.00    +0.000 N 
ATOM      4  C   UNL     1       4.521   4.478  15.418  0.00  0.00    +0.000 C 
ATOM      5  C   UNL     1       6.009   4.302  15.097  0.00  0.00    +0.000 C 
ATOM      6  C   UNL     1       6.905   5.308  15.829  0.00  0.00    +0.000 C 
ATOM      7  C   UNL     1       6.570   5.369  17.327  0.00  0.00    +0.000 C 
ATOM      8  C   UNL     1       5.074   5.636  17.502  0.00  0.00    +0.000 C 
ENDROOT
BRANCH   2   9
ATOM      9  C   UNL     1       3.020   4.033  18.878  0.00  0.00    +0.000 A 
ATOM     10  C   UNL     1       3.144   3.003  19.797  0.00  0.00    +0.000 A 
ATOM     11  N   UNL     1       2.932   3.550  21.021  0.00  0.00    +0.000 N 
ATOM     12  N   UNL     1       2.578   4.835  20.973  0.00  0.00    +0.000 NA
ATOM     13  C   UNL     1       2.602   5.160  19.665  0.00  0.00    +0.000 A 
ATOM     14  H   UNL     1       3.005   3.104  21.930  0.00  0.00    +0.000 HD
BRANCH  13  15
ATOM     15  C   UNL     1       2.247   6.523  19.263  0.00  0.00    +0.000 A 
ATOM     16  C   UNL     1       2.326   6.980  17.946  0.00  0.00    +0.000 A 
ATOM     17  C   UNL     1       1.970   8.296  17.643  0.00  0.00    +0.000 A 
ATOM     18  C   UNL     1       1.557   9.125  18.672  0.00  0.00    +0.000 A 
ATOM     19  N   UNL     1       1.480   8.735  19.960  0.00  0.00    +0.000 NA
ATOM     20  C   UNL     1       1.827   7.447  20.220  0.00  0.00    +0.000 A 
ENDBRANCH  13  15
ENDBRANCH   2   9
BRANCH   7  21
ATOM     21  C   UNL     1       7.382   6.378  18.057  0.00  0.00    +0.000 A 
ATOM     22  N   UNL     1       8.140   6.080  19.119  0.00  0.00    +0.000 NA
ATOM     23  N   UNL     1       8.717   7.264  19.374  0.00  0.00    +0.000 N 
ATOM     24  C   UNL     1       8.285   8.237  18.514  0.00  0.00    +0.000 A 
ATOM     25  N   UNL     1       7.466   7.679  17.642  0.00  0.00    +0.000 NA
ATOM     26  H   UNL     1       9.394   7.335  20.123  0.00  0.00    +0.000 HD
BRANCH  24  27
ATOM     27  C   UNL     1       8.700   9.632  18.568  0.00  0.00    +0.000 A 
ATOM     28  C   UNL     1       9.525  10.066  19.617  0.00  0.00    +0.000 A 
ATOM     29  C   UNL     1       9.957  11.391  19.682  0.00  0.00    +0.000 A 
ATOM     30  C   UNL     1       9.577  12.295  18.692  0.00  0.00    +0.000 A 
ATOM     31  C   UNL     1       8.764  11.876  17.640  0.00  0.00    +0.000 A 
ATOM     32  C   UNL     1       8.326  10.552  17.579  0.00  0.00    +0.000 A 
ENDBRANCH  24  27
ENDBRANCH   7  21
TORSDOF 4
ENDMDL
MODEL 3
REMARK VINA RESULT:      -8.0      0.840      1.143
REMARK  Name = 
REMARK  4 active torsions:
REMARK  status: ('A' for Active; 'I' for Inactive)
REMARK    1  A    between atoms: C_2  and  C_3
REMARK    2  A    between atoms: C_7  and  C_8
REMARK    3  A    between atoms: C_18  and  C_19
REMARK    4  A    between atoms: C_22  and  C_23
REMARK                            x       y       z     vdW  Elec       q    Type
REMARK                         _______ _______ _______ _____ _____    ______ ____
ROOT
ATOM      1  O   UNL     1      -1.431  12.884  22.373  0.00  0.00    +0.000 OA
ATOM      2  C   UNL     1      -0.835  12.276  21.487  0.00  0.00    +0.000 C 
ATOM      3  N   UNL     1      -0.476  10.932  21.640  0.00  0.00    +0.000 N 
ATOM      4  C   UNL     1      -0.793  10.236  22.884  0.00  0.00    +0.000 C 
ATOM      5  C   UNL     1       0.360   9.331  23.328  0.00  0.00    +0.000 C 
ATOM      6  C   UNL     1       0.892   8.438  22.200  0.00  0.00    +0.000 C 
ATOM      7  C   UNL     1       1.163   9.252  20.926  0.00  0.00    +0.000 C 
ATOM      8  C   UNL     1      -0.094  10.037  20.547  0.00  0.00    +0.000 C 
ENDROOT
BRANCH   2   9
ATOM      9  C   UNL     1      -0.481  12.942  20.237  0.00  0.00    +0.000 A 
ATOM     10  C   UNL     1       0.454  13.953  20.086  0.00  0.00    +0.000 A 
ATOM     11  N   UNL     1       0.490  14.250  18.762  0.00  0.00    +0.000 N 
ATOM     12  N   UNL     1      -0.418  13.586  18.045  0.00  0.00    +0.000 NA
ATOM     13  C   UNL     1      -1.048  12.785  18.927  0.00  0.00    +0.000 A 
ATOM     14  H   UNL     1       1.104  14.899  18.280  0.00  0.00    +0.000 HD
BRANCH  13  15
ATOM     15  C   UNL     1      -2.127  11.916  18.454  0.00  0.00    +0.000 A 
ATOM     16  C   UNL     1      -1.934  10.883  17.535  0.00  0.00    +0.000 A 
ATOM     17  C   UNL     1      -3.016  10.096  17.133  0.00  0.00    +0.000 A 
ATOM     18  C   UNL     1      -4.268  10.377  17.652  0.00  0.00    +0.000 A 
ATOM     19  N   UNL     1      -4.507  11.372  18.528  0.00  0.00    +0.000 NA
ATOM     20  C   UNL     1      -3.433  12.115  18.904  0.00  0.00    +0.000 A 
ENDBRANCH  13  15
ENDBRANCH   2   9
BRANCH   7  21
ATOM     21  C   UNL     1       1.626   8.407  19.792  0.00  0.00    +0.000 A 
ATOM     22  N   UNL     1       1.914   8.898  18.582  0.00  0.00    +0.000 NA
ATOM     23  N   UNL     1       2.343   7.798  17.944  0.00  0.00    +0.000 N 
ATOM     24  C   UNL     1       2.274   6.688  18.741  0.00  0.00    +0.000 A 
ATOM     25  N   UNL     1       1.858   7.066  19.936  0.00  0.00    +0.000 NA
ATOM     26  H   UNL     1       2.677   7.875  16.992  0.00  0.00    +0.000 HD
BRANCH  24  27
ATOM     27  C   UNL     1       2.631   5.341  18.317  0.00  0.00    +0.000 A 
ATOM     28  C   UNL     1       1.832   4.258  18.716  0.00  0.00    +0.000 A 
ATOM     29  C   UNL     1       2.137   2.959  18.307  0.00  0.00    +0.000 A 
ATOM     30  C   UNL     1       3.238   2.731  17.483  0.00  0.00    +0.000 A 
ATOM     31  C   UNL     1       4.035   3.798  17.074  0.00  0.00    +0.000 A 
ATOM     32  C   UNL     1       3.735   5.096  17.489  0.00  0.00    +0.000 A 
ENDBRANCH  24  27
ENDBRANCH   7  21
TORSDOF 4
ENDMDL
MODEL 4
REMARK VINA RESULT:      -7.9      1.386      3.310
REMARK  Name = 
REMARK  4 active torsions:
REMARK  status: ('A' for Active; 'I' for Inactive)
REMARK    1  A    between atoms: C_2  and  C_3
REMARK    2  A    between atoms: C_7  and  C_8
REMARK    3  A    between atoms: C_18  and  C_19
REMARK    4  A    between atoms: C_22  and  C_23
REMARK                            x       y       z     vdW  Elec       q    Type
REMARK                         _______ _______ _______ _____ _____    ______ ____
ROOT
ATOM      1  O   UNL     1      -1.892  12.456  21.876  0.00  0.00    +0.000 OA
ATOM      2  C   UNL     1      -1.240  11.844  21.033  0.00  0.00    +0.000 C 
ATOM      3  N   UNL     1      -0.646  10.610  21.325  0.00  0.00    +0.000 N 
ATOM      4  C   UNL     1      -0.783  10.041  22.664  0.00  0.00    +0.000 C 
ATOM      5  C   UNL     1       0.528   9.406  23.137  0.00  0.00    +0.000 C 
ATOM      6  C   UNL     1       1.155   8.473  22.094  0.00  0.00    +0.000 C 
ATOM      7  C   UNL     1       1.224   9.145  20.714  0.00  0.00    +0.000 C 
ATOM      8  C   UNL     1      -0.165   9.655  20.327  0.00  0.00    +0.000 C 
ENDROOT
BRANCH   2   9
ATOM      9  C   UNL     1      -1.062  12.389  19.691  0.00  0.00    +0.000 A 
ATOM     10  C   UNL     1      -1.814  12.070  18.572  0.00  0.00    +0.000 A 
ATOM     11  N   UNL     1      -1.333  12.829  17.555  0.00  0.00    +0.000 N 
ATOM     12  N   UNL     1      -0.259  13.546  17.890  0.00  0.00    +0.000 NA
ATOM     13  C   UNL     1      -0.052  13.282  19.195  0.00  0.00    +0.000 A 
ATOM     14  H   UNL     1      -1.684  12.903  16.605  0.00  0.00    +0.000 HD
BRANCH  13  15
ATOM     15  C   UNL     1       1.077  13.917  19.879  0.00  0.00    +0.000 A 
ATOM     16  C   UNL     1       1.338  15.287  19.822  0.00  0.00    +0.000 A 
ATOM     17  C   UNL     1       2.437  15.817  20.502  0.00  0.00    +0.000 A 
ATOM     18  C   UNL     1       3.256  14.954  21.210  0.00  0.00    +0.000 A 
ATOM     19  N   UNL     1       3.055  13.623  21.282  0.00  0.00    +0.000 NA
ATOM     20  C   UNL     1       1.974  13.141  20.614  0.00  0.00    +0.000 A 
ENDBRANCH  13  15
ENDBRANCH   2   9
BRANCH   7  21
ATOM     21  C   UNL     1       1.775   8.247  19.665  0.00  0.00    +0.000 A 
ATOM     22  N   UNL     1       2.277   8.693  18.507  0.00  0.00    +0.000 NA
ATOM     23  N   UNL     1       2.701   7.552  17.944  0.00  0.00    +0.000 N 
ATOM     24  C   UNL     1       2.425   6.464  18.728  0.00  0.00    +0.000 A 
ATOM     25  N   UNL     1       1.872   6.894  19.847  0.00  0.00    +0.000 NA
ATOM     26  H   UNL     1       3.176   7.585  17.051  0.00  0.00    +0.000 HD
BRANCH  24  27
ATOM     27  C   UNL     1       2.727   5.085  18.366  0.00  0.00    +0.000 A 
ATOM     28  C   UNL     1       1.773   4.084  18.609  0.00  0.00    +0.000 A 
ATOM     29  C   UNL     1       2.025   2.759  18.253  0.00  0.00    +0.000 A 
ATOM     30  C   UNL     1       3.230   2.422  17.639  0.00  0.00    +0.000 A 
ATOM     31  C   UNL     1       4.183   3.408  17.385  0.00  0.00    +0.000 A 
ATOM     32  C   UNL     1       3.933   4.731  17.748  0.00  0.00    +0.000 A 
ENDBRANCH  24  27
ENDBRANCH   7  21
TORSDOF 4
ENDMDL
MODEL 5
REMARK VINA RESULT:      -7.9      5.654      9.148
REMARK  Name = 
REMARK  4 active torsions:
REMARK  status: ('A' for Active; 'I' for Inactive)
REMARK    1  A    between atoms: C_2  and  C_3
REMARK    2  A    between atoms: C_7  and  C_8
REMARK    3  A    between atoms: C_18  and  C_19
REMARK    4  A    between atoms: C_22  and  C_23
REMARK                            x       y       z     vdW  Elec       q    Type
REMARK                         _______ _______ _______ _____ _____    ______ ____
ROOT
ATOM      1  O   UNL     1       3.201   4.115  17.144  0.00  0.00    +0.000 OA
ATOM      2  C   UNL     1       3.719   5.186  17.449  0.00  0.00    +0.000 C 
ATOM      3  N   UNL     1       5.015   5.514  17.033  0.00  0.00    +0.000 N 
ATOM      4  C   UNL     1       5.782   4.559  16.238  0.00  0.00    +0.000 C 
ATOM      5  C   UNL     1       7.248   4.512  16.681  0.00  0.00    +0.000 C 
ATOM      6  C   UNL     1       7.880   5.903  16.815  0.00  0.00    +0.000 C 
ATOM      7  C   UNL     1       6.986   6.845  17.636  0.00  0.00    +0.000 C 
ATOM      8  C   UNL     1       5.580   6.864  17.035  0.00  0.00    +0.000 C 
ENDROOT
BRANCH   2   9
ATOM      9  C   UNL     1       2.994   6.159  18.261  0.00  0.00    +0.000 A 
ATOM     10  C   UNL     1       2.973   7.531  18.068  0.00  0.00    +0.000 A 
ATOM     11  N   UNL     1       2.152   8.042  19.021  0.00  0.00    +0.000 N 
ATOM     12  N   UNL     1       1.712   7.127  19.887  0.00  0.00    +0.000 NA
ATOM     13  C   UNL     1       2.229   5.958  19.460  0.00  0.00    +0.000 A 
ATOM     14  H   UNL     1       1.853   9.004  19.144  0.00  0.00    +0.000 HD
BRANCH  13  15
ATOM     15  C   UNL     1       1.940   4.734  20.210  0.00  0.00    +0.000 A 
ATOM     16  C   UNL     1       0.934   3.834  19.853  0.00  0.00    +0.000 A 
ATOM     17  C   UNL     1       0.719   2.688  20.622  0.00  0.00    +0.000 A 
ATOM     18  C   UNL     1       1.510   2.482  21.739  0.00  0.00    +0.000 A 
ATOM     19  N   UNL     1       2.482   3.328  22.132  0.00  0.00    +0.000 NA
ATOM     20  C   UNL     1       2.669   4.430  21.360  0.00  0.00    +0.000 A 
ENDBRANCH  13  15
ENDBRANCH   2   9
BRANCH   7  21
ATOM     21  C   UNL     1       7.542   8.221  17.738  0.00  0.00    +0.000 A 
ATOM     22  N   UNL     1       7.032   9.268  17.080  0.00  0.00    +0.000 NA
ATOM     23  N   UNL     1       7.801  10.268  17.535  0.00  0.00    +0.000 N 
ATOM     24  C   UNL     1       8.758   9.819  18.405  0.00  0.00    +0.000 A 
ATOM     25  N   UNL     1       8.579   8.523  18.577  0.00  0.00    +0.000 NA
ATOM     26  H   UNL     1       7.615  11.216  17.231  0.00  0.00    +0.000 HD
BRANCH  24  27
ATOM     27  C   UNL     1       9.767  10.663  19.033  0.00  0.00    +0.000 A 
ATOM     28  C   UNL     1      10.863  11.106  18.276  0.00  0.00    +0.000 A 
ATOM     29  C   UNL     1      11.833  11.933  18.844  0.00  0.00    +0.000 A 
ATOM     30  C   UNL     1      11.711  12.334  20.173  0.00  0.00    +0.000 A 
ATOM     31  C   UNL     1      10.624  11.907  20.933  0.00  0.00    +0.000 A 
ATOM     32  C   UNL     1       9.658  11.074  20.367  0.00  0.00    +0.000 A 
ENDBRANCH  24  27
ENDBRANCH   7  21
TORSDOF 4
ENDMDL
MODEL 6
REMARK VINA RESULT:      -7.8      3.681      9.277
REMARK  Name = 
REMARK  4 active torsions:
REMARK  status: ('A' for Active; 'I' for Inactive)
REMARK    1  A    between atoms: C_2  and  C_3
REMARK    2  A    between atoms: C_7  and  C_8
REMARK    3  A    between atoms: C_18  and  C_19
REMARK    4  A    between atoms: C_22  and  C_23
REMARK                            x       y       z     vdW  Elec       q    Type
REMARK                         _______ _______ _______ _____ _____    ______ ____
ROOT
ATOM      1  O   UNL     1       5.413   2.765  19.137  0.00  0.00    +0.000 OA
ATOM      2  C   UNL     1       5.203   3.964  18.972  0.00  0.00    +0.000 C 
ATOM      3  N   UNL     1       3.904   4.485  18.984  0.00  0.00    +0.000 N 
ATOM      4  C   UNL     1       2.768   3.588  19.177  0.00  0.00    +0.000 C 
ATOM      5  C   UNL     1       1.600   3.960  18.259  0.00  0.00    +0.000 C 
ATOM      6  C   UNL     1       1.262   5.456  18.293  0.00  0.00    +0.000 C 
ATOM      7  C   UNL     1       2.522   6.317  18.117  0.00  0.00    +0.000 C 
ATOM      8  C   UNL     1       3.571   5.900  19.150  0.00  0.00    +0.000 C 
ENDROOT
BRANCH   2   9
ATOM      9  C   UNL     1       6.310   4.890  18.754  0.00  0.00    +0.000 A 
ATOM     10  C   UNL     1       6.949   5.645  19.725  0.00  0.00    +0.000 A 
ATOM     11  N   UNL     1       7.934   6.332  19.094  0.00  0.00    +0.000 N 
ATOM     12  N   UNL     1       7.931   6.167  17.770  0.00  0.00    +0.000 NA
ATOM     13  C   UNL     1       6.929   5.300  17.524  0.00  0.00    +0.000 A 
ATOM     14  H   UNL     1       8.640   6.936  19.502  0.00  0.00    +0.000 HD
BRANCH  13  15
ATOM     15  C   UNL     1       6.648   4.910  16.141  0.00  0.00    +0.000 A 
ATOM     16  C   UNL     1       5.589   4.076  15.778  0.00  0.00    +0.000 A 
ATOM     17  C   UNL     1       5.387   3.749  14.435  0.00  0.00    +0.000 A 
ATOM     18  C   UNL     1       6.264   4.255  13.492  0.00  0.00    +0.000 A 
ATOM     19  N   UNL     1       7.309   5.050  13.794  0.00  0.00    +0.000 NA
ATOM     20  C   UNL     1       7.474   5.355  15.108  0.00  0.00    +0.000 A 
ENDBRANCH  13  15
ENDBRANCH   2   9
BRANCH   7  21
ATOM     21  C   UNL     1       2.238   7.774  18.202  0.00  0.00    +0.000 A 
ATOM     22  N   UNL     1       2.541   8.638  17.226  0.00  0.00    +0.000 NA
ATOM     23  N   UNL     1       2.043   9.782  17.720  0.00  0.00    +0.000 N 
ATOM     24  C   UNL     1       1.497   9.605  18.963  0.00  0.00    +0.000 A 
ATOM     25  N   UNL     1       1.577   8.323  19.267  0.00  0.00    +0.000 NA
ATOM     26  H   UNL     1       2.091  10.626  17.163  0.00  0.00    +0.000 HD
BRANCH  24  27
ATOM     27  C   UNL     1       0.915  10.669  19.770  0.00  0.00    +0.000 A 
ATOM     28  C   UNL     1       0.373  10.361  21.028  0.00  0.00    +0.000 A 
ATOM     29  C   UNL     1      -0.171  11.363  21.833  0.00  0.00    +0.000 A 
ATOM     30  C   UNL     1      -0.169  12.685  21.393  0.00  0.00    +0.000 A 
ATOM     31  C   UNL     1       0.373  13.005  20.149  0.00  0.00    +0.000 A 
ATOM     32  C   UNL     1       0.910  12.002  19.341  0.00  0.00    +0.000 A 
ENDBRANCH  24  27
ENDBRANCH   7  21
TORSDOF 4
ENDMDL
MODEL 7
REMARK VINA RESULT:      -7.8      3.476      6.385
REMARK  Name = 
REMARK  4 active torsions:
REMARK  status: ('A' for Active; 'I' for Inactive)
REMARK    1  A    between atoms: C_2  and  C_3
REMARK    2  A    between atoms: C_7  and  C_8
REMARK    3  A    between atoms: C_18  and  C_19
REMARK    4  A    between atoms: C_22  and  C_23
REMARK                            x       y       z     vdW  Elec       q    Type
REMARK                         _______ _______ _______ _____ _____    ______ ____
ROOT
ATOM      1  O   UNL     1       0.648   6.056  20.664  0.00  0.00    +0.000 OA
ATOM      2  C   UNL     1       1.615   6.159  19.913  0.00  0.00    +0.000 C 
ATOM      3  N   UNL     1       2.463   5.073  19.665  0.00  0.00    +0.000 N 
ATOM      4  C   UNL     1       2.212   3.794  20.324  0.00  0.00    +0.000 C 
ATOM      5  C   UNL     1       3.516   3.140  20.791  0.00  0.00    +0.000 C 
ATOM      6  C   UNL     1       4.597   3.111  19.704  0.00  0.00    +0.000 C 
ATOM      7  C   UNL     1       4.765   4.490  19.046  0.00  0.00    +0.000 C 
ATOM      8  C   UNL     1       3.405   4.984  18.549  0.00  0.00    +0.000 C 
ENDROOT
BRANCH   2   9
ATOM      9  C   UNL     1       1.913   7.426  19.253  0.00  0.00    +0.000 A 
ATOM     10  C   UNL     1       2.662   7.591  18.099  0.00  0.00    +0.000 A 
ATOM     11  N   UNL     1       2.655   8.919  17.820  0.00  0.00    +0.000 N 
ATOM     12  N   UNL     1       2.046   9.653  18.754  0.00  0.00    +0.000 NA
ATOM     13  C   UNL     1       1.596   8.766  19.663  0.00  0.00    +0.000 A 
ATOM     14  H   UNL     1       3.050   9.395  17.016  0.00  0.00    +0.000 HD
BRANCH  13  15
ATOM     15  C   UNL     1       0.878   9.256  20.842  0.00  0.00    +0.000 A 
ATOM     16  C   UNL     1      -0.355   9.907  20.774  0.00  0.00    +0.000 A 
ATOM     17  C   UNL     1      -0.977  10.346  21.944  0.00  0.00    +0.000 A 
ATOM     18  C   UNL     1      -0.337  10.134  23.154  0.00  0.00    +0.000 A 
ATOM     19  N   UNL     1       0.859   9.525  23.269  0.00  0.00    +0.000 NA
ATOM     20  C   UNL     1       1.434   9.104  22.112  0.00  0.00    +0.000 A 
ENDBRANCH  13  15
ENDBRANCH   2   9
BRANCH   7  21
ATOM     21  C   UNL     1       5.766   4.484  17.946  0.00  0.00    +0.000 A 
ATOM     22  N   UNL     1       7.087   4.462  18.158  0.00  0.00    +0.000 NA
ATOM     23  N   UNL     1       7.556   4.394  16.903  0.00  0.00    +0.000 N 
ATOM     24  C   UNL     1       6.545   4.413  15.980  0.00  0.00    +0.000 A 
ATOM     25  N   UNL     1       5.396   4.428  16.630  0.00  0.00    +0.000 NA
ATOM     26  H   UNL     1       8.554   4.321  16.749  0.00  0.00    +0.000 HD
BRANCH  24  27
ATOM     27  C   UNL     1       6.742   4.392  14.537  0.00  0.00    +0.000 A 
ATOM     28  C   UNL     1       5.935   3.562  13.743  0.00  0.00    +0.000 A 
ATOM     29  C   UNL     1       6.085   3.539  12.356  0.00  0.00    +0.000 A 
ATOM     30  C   UNL     1       7.038   4.353  11.746  0.00  0.00    +0.000 A 
ATOM     31  C   UNL     1       7.841   5.187  12.523  0.00  0.00    +0.000 A 
ATOM     32  C   UNL     1       7.696   5.205  13.910  0.00  0.00    +0.000 A 
ENDBRANCH  24  27
ENDBRANCH   7  21
TORSDOF 4
ENDMDL
MODEL 8
REMARK VINA RESULT:      -7.6      2.126      3.985
REMARK  Name = 
REMARK  4 active torsions:
REMARK  status: ('A' for Active; 'I' for Inactive)
REMARK    1  A    between atoms: C_2  and  C_3
REMARK    2  A    between atoms: C_7  and  C_8
REMARK    3  A    between atoms: C_18  and  C_19
REMARK    4  A    between atoms: C_22  and  C_23
REMARK                            x       y       z     vdW  Elec       q    Type
REMARK                         _______ _______ _______ _____ _____    ______ ____
ROOT
ATOM      1  O   UNL     1      -0.236  15.140  18.549  0.00  0.00    +0.000 OA
ATOM      2  C   UNL     1       0.327  14.181  19.071  0.00  0.00    +0.000 C 
ATOM      3  N   UNL     1       0.047  12.867  18.676  0.00  0.00    +0.000 N 
ATOM      4  C   UNL     1      -0.948  12.622  17.636  0.00  0.00    +0.000 C 
ATOM      5  C   UNL     1      -1.824  11.412  17.974  0.00  0.00    +0.000 C 
ATOM      6  C   UNL     1      -1.013  10.183  18.402  0.00  0.00    +0.000 C 
ATOM      7  C   UNL     1       0.029  10.546  19.471  0.00  0.00    +0.000 C 
ATOM      8  C   UNL     1       0.889  11.707  18.969  0.00  0.00    +0.000 C 
ENDROOT
BRANCH   2   9
ATOM      9  C   UNL     1       1.312  14.382  20.130  0.00  0.00    +0.000 A 
ATOM     10  C   UNL     1       2.671  14.583  19.955  0.00  0.00    +0.000 A 
ATOM     11  N   UNL     1       3.198  14.760  21.193  0.00  0.00    +0.000 N 
ATOM     12  N   UNL     1       2.311  14.590  22.175  0.00  0.00    +0.000 NA
ATOM     13  C   UNL     1       1.142  14.336  21.556  0.00  0.00    +0.000 A 
ATOM     14  H   UNL     1       4.154  14.992  21.443  0.00  0.00    +0.000 HD
BRANCH  13  15
ATOM     15  C   UNL     1      -0.054  14.089  22.365  0.00  0.00    +0.000 A 
ATOM     16  C   UNL     1      -0.712  12.858  22.406  0.00  0.00    +0.000 A 
ATOM     17  C   UNL     1      -1.848  12.701  23.203  0.00  0.00    +0.000 A 
ATOM     18  C   UNL     1      -2.304  13.790  23.927  0.00  0.00    +0.000 A 
ATOM     19  N   UNL     1      -1.713  15.000  23.907  0.00  0.00    +0.000 NA
ATOM     20  C   UNL     1      -0.607  15.117  23.127  0.00  0.00    +0.000 A 
ENDBRANCH  13  15
ENDBRANCH   2   9
BRANCH   7  21
ATOM     21  C   UNL     1       0.873   9.388  19.867  0.00  0.00    +0.000 A 
ATOM     22  N   UNL     1       1.091   9.041  21.141  0.00  0.00    +0.000 NA
ATOM     23  N   UNL     1       1.827   7.930  20.992  0.00  0.00    +0.000 N 
ATOM     24  C   UNL     1       2.068   7.652  19.673  0.00  0.00    +0.000 A 
ATOM     25  N   UNL     1       1.431   8.548  18.942  0.00  0.00    +0.000 NA
ATOM     26  H   UNL     1       2.114   7.410  21.812  0.00  0.00    +0.000 HD
BRANCH  24  27
ATOM     27  C   UNL     1       2.871   6.534  19.197  0.00  0.00    +0.000 A 
ATOM     28  C   UNL     1       3.599   6.668  18.004  0.00  0.00    +0.000 A 
ATOM     29  C   UNL     1       4.395   5.622  17.534  0.00  0.00    +0.000 A 
ATOM     30  C   UNL     1       4.481   4.435  18.259  0.00  0.00    +0.000 A 
ATOM     31  C   UNL     1       3.768   4.291  19.448  0.00  0.00    +0.000 A 
ATOM     32  C   UNL     1       2.967   5.334  19.914  0.00  0.00    +0.000 A 
ENDBRANCH  24  27
ENDBRANCH   7  21
TORSDOF 4
ENDMDL
MODEL 9
REMARK VINA RESULT:      -7.6      7.895     11.338
REMARK  Name = 
REMARK  4 active torsions:
REMARK  status: ('A' for Active; 'I' for Inactive)
REMARK    1  A    between atoms: C_2  and  C_3
REMARK    2  A    between atoms: C_7  and  C_8
REMARK    3  A    between atoms: C_18  and  C_19
REMARK    4  A    between atoms: C_22  and  C_23
REMARK                            x       y       z     vdW  Elec       q    Type
REMARK                         _______ _______ _______ _____ _____    ______ ____
ROOT
ATOM      1  O   UNL     1      10.880  16.244  21.185  0.00  0.00    +0.000 OA
ATOM      2  C   UNL     1       9.999  16.204  20.330  0.00  0.00    +0.000 C 
ATOM      3  N   UNL     1       8.659  15.989  20.673  0.00  0.00    +0.000 N 
ATOM      4  C   UNL     1       8.295  15.787  22.073  0.00  0.00    +0.000 C 
ATOM      5  C   UNL     1       7.242  14.686  22.224  0.00  0.00    +0.000 C 
ATOM      6  C   UNL     1       6.059  14.849  21.261  0.00  0.00    +0.000 C 
ATOM      7  C   UNL     1       6.541  15.091  19.822  0.00  0.00    +0.000 C 
ATOM      8  C   UNL     1       7.516  16.269  19.804  0.00  0.00    +0.000 C 
ENDROOT
BRANCH   2   9
ATOM      9  C   UNL     1      10.324  16.380  18.917  0.00  0.00    +0.000 A 
ATOM     10  C   UNL     1      10.530  17.586  18.269  0.00  0.00    +0.000 A 
ATOM     11  N   UNL     1      10.841  17.286  16.983  0.00  0.00    +0.000 N 
ATOM     12  N   UNL     1      10.757  15.982  16.708  0.00  0.00    +0.000 NA
ATOM     13  C   UNL     1      10.420  15.397  17.874  0.00  0.00    +0.000 A 
ATOM     14  H   UNL     1      11.113  17.918  16.237  0.00  0.00    +0.000 HD
BRANCH  13  15
ATOM     15  C   UNL     1      10.236  13.944  17.914  0.00  0.00    +0.000 A 
ATOM     16  C   UNL     1       8.986  13.327  17.849  0.00  0.00    +0.000 A 
ATOM     17  C   UNL     1       8.893  11.934  17.894  0.00  0.00    +0.000 A 
ATOM     18  C   UNL     1      10.057  11.196  18.019  0.00  0.00    +0.000 A 
ATOM     19  N   UNL     1      11.285  11.746  18.101  0.00  0.00    +0.000 NA
ATOM     20  C   UNL     1      11.341  13.103  18.049  0.00  0.00    +0.000 A 
ENDBRANCH  13  15
ENDBRANCH   2   9
BRANCH   7  21
ATOM     21  C   UNL     1       5.419  15.312  18.871  0.00  0.00    +0.000 A 
ATOM     22  N   UNL     1       5.294  14.644  17.718  0.00  0.00    +0.000 NA
ATOM     23  N   UNL     1       4.127  15.122  17.260  0.00  0.00    +0.000 N 
ATOM     24  C   UNL     1       3.601  16.068  18.097  0.00  0.00    +0.000 A 
ATOM     25  N   UNL     1       4.391  16.170  19.149  0.00  0.00    +0.000 NA
ATOM     26  H   UNL     1       3.746  14.757  16.396  0.00  0.00    +0.000 HD
BRANCH  24  27
ATOM     27  C   UNL     1       2.364  16.797  17.848  0.00  0.00    +0.000 A 
ATOM     28  C   UNL     1       2.260  17.608  16.706  0.00  0.00    +0.000 A 
ATOM     29  C   UNL     1       1.081  18.301  16.430  0.00  0.00    +0.000 A 
ATOM     30  C   UNL     1      -0.012  18.181  17.286  0.00  0.00    +0.000 A 
ATOM     31  C   UNL     1       0.076  17.374  18.420  0.00  0.00    +0.000 A 
ATOM     32  C   UNL     1       1.258  16.688  18.700  0.00  0.00    +0.000 A 
ENDBRANCH  24  27
ENDBRANCH   7  21
TORSDOF 4
ENDMDL
