MODEL 1
REMARK VINA RESULT:      -8.8      0.000      0.000
REMARK  Name = 
REMARK  4 active torsions:
REMARK  status: ('A' for Active; 'I' for Inactive)
REMARK    1  A    between atoms: C_1  and  C_2
REMARK    2  A    between atoms: N_6  and  C_7
REMARK    3  A    between atoms: C_11  and  N_12
REMARK    4  A    between atoms: C_13  and  C_15
REMARK                            x       y       z     vdW  Elec       q    Type
REMARK                         _______ _______ _______ _____ _____    ______ ____
ROOT
ATOM      1  N   UNL     1       2.184   7.605  18.769  0.00  0.00    +0.000 N 
ATOM      2  C   UNL     1       1.649   7.827  20.040  0.00  0.00    +0.000 C 
ATOM      3  O   UNL     1       1.747   7.039  20.980  0.00  0.00    +0.000 OA
ATOM      4  H   UNL     1       2.212   8.369  18.110  0.00  0.00    +0.000 HD
ENDROOT
BRANCH   2   5
ATOM      5  C   UNL     1       0.896   9.092  20.320  0.00  0.00    +0.000 A 
ATOM      6  C   UNL     1       0.796  10.176  19.443  0.00  0.00    +0.000 A 
ATOM      7  C   UNL     1       0.056  11.323  19.787  0.00  0.00    +0.000 A 
ATOM      8  C   UNL     1      -0.529  11.376  21.060  0.00  0.00    +0.000 A 
ATOM      9  N   UNL     1      -1.242  12.380  21.682  0.00  0.00    +0.000 N 
ATOM     10  C   UNL     1      -1.589  11.997  22.953  0.00  0.00    +0.000 A 
ATOM     11  C   UNL     1      -1.133  10.714  23.147  0.00  0.00    +0.000 A 
ATOM     12  C   UNL     1      -0.447  10.321  21.963  0.00  0.00    +0.000 A 
ATOM     13  C   UNL     1       0.250   9.162  21.575  0.00  0.00    +0.000 A 
ATOM     14  H   UNL     1      -1.447  13.280  21.273  0.00  0.00    +0.000 HD
ENDBRANCH   2   5
BRANCH   1  19
ATOM     15  C   UNL     1       4.637   4.995  17.625  0.00  0.00    +0.000 A 
ATOM     16  C   UNL     1       3.780   3.928  17.344  0.00  0.00    +0.000 A 
ATOM     17  C   UNL     1       2.415   4.067  17.535  0.00  0.00    +0.000 A 
ATOM     18  C   UNL     1       1.898   5.270  18.007  0.00  0.00    +0.000 A 
ATOM     19  C   UNL     1       2.718   6.358  18.317  0.00  0.00    +0.000 A 
ATOM     20  C   UNL     1       4.105   6.211  18.126  0.00  0.00    +0.000 A 
BRANCH  15  26
ATOM     21  C   UNL     1       6.455   4.867  14.937  0.00  0.00    +0.000 C 
ATOM     22  C   UNL     1       6.830   4.610  16.349  0.00  0.00    +0.000 A 
ATOM     23  N   UNL     1       8.038   4.268  16.751  0.00  0.00    +0.000 NA
ATOM     24  N   UNL     1       8.032   4.361  18.114  0.00  0.00    +0.000 NA
ATOM     25  N   UNL     1       6.854   4.764  18.559  0.00  0.00    +0.000 NA
ATOM     26  N   UNL     1       6.039   4.818  17.479  0.00  0.00    +0.000 N 
ENDBRANCH  15  26
ENDBRANCH   1  19
TORSDOF 3
ENDMDL
MODEL 2
REMARK VINA RESULT:      -8.8      2.594      3.354
REMARK  Name = 
REMARK  4 active torsions:
REMARK  status: ('A' for Active; 'I' for Inactive)
REMARK    1  A    between atoms: C_1  and  C_2
REMARK    2  A    between atoms: N_6  and  C_7
REMARK    3  A    between atoms: C_11  and  N_12
REMARK    4  A    between atoms: C_13  and  C_15
REMARK                            x       y       z     vdW  Elec       q    Type
REMARK                         _______ _______ _______ _____ _____    ______ ____
ROOT
ATOM      1  N   UNL     1       1.551   8.546  18.040  0.00  0.00    +0.000 N 
ATOM      2  C   UNL     1       0.927   9.354  18.993  0.00  0.00    +0.000 C 
ATOM      3  O   UNL     1       1.292   9.452  20.164  0.00  0.00    +0.000 OA
ATOM      4  H   UNL     1       1.302   8.654  17.067  0.00  0.00    +0.000 HD
ENDROOT
BRANCH   2   5
ATOM      5  C   UNL     1      -0.269  10.171  18.607  0.00  0.00    +0.000 A 
ATOM      6  C   UNL     1      -0.690  11.332  19.260  0.00  0.00    +0.000 A 
ATOM      7  C   UNL     1      -1.823  12.042  18.818  0.00  0.00    +0.000 A 
ATOM      8  C   UNL     1      -2.556  11.520  17.744  0.00  0.00    +0.000 A 
ATOM      9  N   UNL     1      -3.722  11.957  17.151  0.00  0.00    +0.000 N 
ATOM     10  C   UNL     1      -4.094  11.100  16.147  0.00  0.00    +0.000 A 
ATOM     11  C   UNL     1      -3.137  10.115  16.056  0.00  0.00    +0.000 A 
ATOM     12  C   UNL     1      -2.172  10.363  17.074  0.00  0.00    +0.000 A 
ATOM     13  C   UNL     1      -1.005   9.701  17.496  0.00  0.00    +0.000 A 
ATOM     14  H   UNL     1      -4.245  12.770  17.440  0.00  0.00    +0.000 HD
ENDBRANCH   2   5
BRANCH   1  19
ATOM     15  C   UNL     1       4.641   6.420  17.761  0.00  0.00    +0.000 A 
ATOM     16  C   UNL     1       4.475   5.563  18.852  0.00  0.00    +0.000 A 
ATOM     17  C   UNL     1       3.363   5.690  19.669  0.00  0.00    +0.000 A 
ATOM     18  C   UNL     1       2.412   6.671  19.403  0.00  0.00    +0.000 A 
ATOM     19  C   UNL     1       2.545   7.561  18.334  0.00  0.00    +0.000 A 
ATOM     20  C   UNL     1       3.678   7.431  17.508  0.00  0.00    +0.000 A 
BRANCH  15  26
ATOM     21  C   UNL     1       5.333   4.394  15.319  0.00  0.00    +0.000 C 
ATOM     22  C   UNL     1       6.204   5.371  16.017  0.00  0.00    +0.000 A 
ATOM     23  N   UNL     1       7.475   5.576  15.732  0.00  0.00    +0.000 NA
ATOM     24  N   UNL     1       7.847   6.698  16.416  0.00  0.00    +0.000 NA
ATOM     25  N   UNL     1       6.833   7.196  17.104  0.00  0.00    +0.000 NA
ATOM     26  N   UNL     1       5.814   6.315  16.966  0.00  0.00    +0.000 N 
ENDBRANCH  15  26
ENDBRANCH   1  19
TORSDOF 3
ENDMDL
MODEL 3
REMARK VINA RESULT:      -8.6      1.431      1.441
REMARK  Name = 
REMARK  4 active torsions:
REMARK  status: ('A' for Active; 'I' for Inactive)
REMARK    1  A    between atoms: C_1  and  C_2
REMARK    2  A    between atoms: N_6  and  C_7
REMARK    3  A    between atoms: C_11  and  N_12
REMARK    4  A    between atoms: C_13  and  C_15
REMARK                            x       y       z     vdW  Elec       q    Type
REMARK                         _______ _______ _______ _____ _____    ______ ____
ROOT
ATOM      1  N   UNL     1       2.202   6.470  20.242  0.00  0.00    +0.000 N 
ATOM      2  C   UNL     1       1.977   7.537  19.369  0.00  0.00    +0.000 C 
ATOM      3  O   UNL     1       2.285   7.533  18.177  0.00  0.00    +0.000 OA
ATOM      4  H   UNL     1       1.765   6.483  21.153  0.00  0.00    +0.000 HD
ENDROOT
BRANCH   2   5
ATOM      5  C   UNL     1       1.324   8.787  19.874  0.00  0.00    +0.000 A 
ATOM      6  C   UNL     1       1.330  10.018  19.214  0.00  0.00    +0.000 A 
ATOM      7  C   UNL     1       0.678  11.140  19.761  0.00  0.00    +0.000 A 
ATOM      8  C   UNL     1       0.074  11.006  21.019  0.00  0.00    +0.000 A 
ATOM      9  N   UNL     1      -0.569  11.933  21.813  0.00  0.00    +0.000 N 
ATOM     10  C   UNL     1      -0.971  11.353  22.988  0.00  0.00    +0.000 A 
ATOM     11  C   UNL     1      -0.625  10.022  22.944  0.00  0.00    +0.000 A 
ATOM     12  C   UNL     1       0.052   9.799  21.710  0.00  0.00    +0.000 A 
ATOM     13  C   UNL     1       0.661   8.678  21.118  0.00  0.00    +0.000 A 
ATOM     14  H   UNL     1      -0.691  12.907  21.577  0.00  0.00    +0.000 HD
ENDBRANCH   2   5
BRANCH   1  19
ATOM     15  C   UNL     1       4.933   4.331  18.792  0.00  0.00    +0.000 A 
ATOM     16  C   UNL     1       4.566   3.069  19.268  0.00  0.00    +0.000 A 
ATOM     17  C   UNL     1       3.439   2.930  20.061  0.00  0.00    +0.000 A 
ATOM     18  C   UNL     1       2.671   4.046  20.382  0.00  0.00    +0.000 A 
ATOM     19  C   UNL     1       3.009   5.329  19.942  0.00  0.00    +0.000 A 
ATOM     20  C   UNL     1       4.158   5.467  19.140  0.00  0.00    +0.000 A 
BRANCH  15  26
ATOM     21  C   UNL     1       5.324   4.837  15.608  0.00  0.00    +0.000 C 
ATOM     22  C   UNL     1       6.334   4.535  16.651  0.00  0.00    +0.000 A 
ATOM     23  N   UNL     1       7.628   4.418  16.428  0.00  0.00    +0.000 NA
ATOM     24  N   UNL     1       8.230   4.381  17.653  0.00  0.00    +0.000 NA
ATOM     25  N   UNL     1       7.339   4.485  18.625  0.00  0.00    +0.000 NA
ATOM     26  N   UNL     1       6.124   4.466  18.028  0.00  0.00    +0.000 N 
ENDBRANCH  15  26
ENDBRANCH   1  19
TORSDOF 3
ENDMDL
MODEL 4
REMARK VINA RESULT:      -8.6      1.078      1.155
REMARK  Name = 
REMARK  4 active torsions:
REMARK  status: ('A' for Active; 'I' for Inactive)
REMARK    1  A    between atoms: C_1  and  C_2
REMARK    2  A    between atoms: N_6  and  C_7
REMARK    3  A    between atoms: C_11  and  N_12
REMARK    4  A    between atoms: C_13  and  C_15
REMARK                            x       y       z     vdW  Elec       q    Type
REMARK                         _______ _______ _______ _____ _____    ______ ____
ROOT
ATOM      1  N   UNL     1       1.772   6.896  18.832  0.00  0.00    +0.000 N 
ATOM      2  C   UNL     1       1.899   8.205  18.362  0.00  0.00    +0.000 C 
ATOM      3  O   UNL     1       2.472   8.514  17.318  0.00  0.00    +0.000 OA
ATOM      4  H   UNL     1       1.142   6.710  19.599  0.00  0.00    +0.000 HD
ENDROOT
BRANCH   2   5
ATOM      5  C   UNL     1       1.316   9.338  19.151  0.00  0.00    +0.000 A 
ATOM      6  C   UNL     1       1.359  10.683  18.773  0.00  0.00    +0.000 A 
ATOM      7  C   UNL     1       0.772  11.681  19.575  0.00  0.00    +0.000 A 
ATOM      8  C   UNL     1       0.198  11.299  20.795  0.00  0.00    +0.000 A 
ATOM      9  N   UNL     1      -0.381  12.053  21.794  0.00  0.00    +0.000 N 
ATOM     10  C   UNL     1      -0.776  11.245  22.829  0.00  0.00    +0.000 A 
ATOM     11  C   UNL     1      -0.491   9.944  22.484  0.00  0.00    +0.000 A 
ATOM     12  C   UNL     1       0.141   9.971  21.208  0.00  0.00    +0.000 A 
ATOM     13  C   UNL     1       0.683   8.985  20.364  0.00  0.00    +0.000 A 
ATOM     14  H   UNL     1      -0.467  13.059  21.780  0.00  0.00    +0.000 HD
ENDBRANCH   2   5
BRANCH   1  19
ATOM     15  C   UNL     1       4.571   4.692  17.628  0.00  0.00    +0.000 A 
ATOM     16  C   UNL     1       3.858   3.584  17.164  0.00  0.00    +0.000 A 
ATOM     17  C   UNL     1       2.476   3.563  17.254  0.00  0.00    +0.000 A 
ATOM     18  C   UNL     1       1.798   4.646  17.805  0.00  0.00    +0.000 A 
ATOM     19  C   UNL     1       2.470   5.768  18.297  0.00  0.00    +0.000 A 
ATOM     20  C   UNL     1       3.875   5.784  18.209  0.00  0.00    +0.000 A 
BRANCH  15  26
ATOM     21  C   UNL     1       6.577   4.637  15.074  0.00  0.00    +0.000 C 
ATOM     22  C   UNL     1       6.878   4.501  16.520  0.00  0.00    +0.000 A 
ATOM     23  N   UNL     1       8.086   4.326  17.019  0.00  0.00    +0.000 NA
ATOM     24  N   UNL     1       7.974   4.490  18.369  0.00  0.00    +0.000 NA
ATOM     25  N   UNL     1       6.728   4.775  18.714  0.00  0.00    +0.000 NA
ATOM     26  N   UNL     1       5.991   4.674  17.582  0.00  0.00    +0.000 N 
ENDBRANCH  15  26
ENDBRANCH   1  19
TORSDOF 3
ENDMDL
MODEL 5
REMARK VINA RESULT:      -8.6      2.629      3.466
REMARK  Name = 
REMARK  4 active torsions:
REMARK  status: ('A' for Active; 'I' for Inactive)
REMARK    1  A    between atoms: C_1  and  C_2
REMARK    2  A    between atoms: N_6  and  C_7
REMARK    3  A    between atoms: C_11  and  N_12
REMARK    4  A    between atoms: C_13  and  C_15
REMARK                            x       y       z     vdW  Elec       q    Type
REMARK                         _______ _______ _______ _____ _____    ______ ____
ROOT
ATOM      1  N   UNL     1       1.570   8.397  18.058  0.00  0.00    +0.000 N 
ATOM      2  C   UNL     1       1.008   9.283  18.981  0.00  0.00    +0.000 C 
ATOM      3  O   UNL     1       1.425   9.447  20.126  0.00  0.00    +0.000 OA
ATOM      4  H   UNL     1       1.282   8.449  17.092  0.00  0.00    +0.000 HD
ENDROOT
BRANCH   2   5
ATOM      5  C   UNL     1      -0.184  10.105  18.591  0.00  0.00    +0.000 A 
ATOM      6  C   UNL     1      -0.583  11.286  19.222  0.00  0.00    +0.000 A 
ATOM      7  C   UNL     1      -1.713  11.999  18.778  0.00  0.00    +0.000 A 
ATOM      8  C   UNL     1      -2.466  11.461  17.726  0.00  0.00    +0.000 A 
ATOM      9  N   UNL     1      -3.635  11.898  17.138  0.00  0.00    +0.000 N 
ATOM     10  C   UNL     1      -4.029  11.023  16.159  0.00  0.00    +0.000 A 
ATOM     11  C   UNL     1      -3.086  10.025  16.078  0.00  0.00    +0.000 A 
ATOM     12  C   UNL     1      -2.104  10.284  17.078  0.00  0.00    +0.000 A 
ATOM     13  C   UNL     1      -0.939   9.619  17.500  0.00  0.00    +0.000 A 
ATOM     14  H   UNL     1      -4.144  12.725  17.415  0.00  0.00    +0.000 HD
ENDBRANCH   2   5
BRANCH   1  19
ATOM     15  C   UNL     1       4.557   6.132  17.766  0.00  0.00    +0.000 A 
ATOM     16  C   UNL     1       4.450   5.394  18.948  0.00  0.00    +0.000 A 
ATOM     17  C   UNL     1       3.411   5.647  19.829  0.00  0.00    +0.000 A 
ATOM     18  C   UNL     1       2.474   6.633  19.537  0.00  0.00    +0.000 A 
ATOM     19  C   UNL     1       2.551   7.407  18.375  0.00  0.00    +0.000 A 
ATOM     20  C   UNL     1       3.611   7.151  17.485  0.00  0.00    +0.000 A 
BRANCH  15  26
ATOM     21  C   UNL     1       7.715   6.758  18.195  0.00  0.00    +0.000 C 
ATOM     22  C   UNL     1       6.997   6.288  16.985  0.00  0.00    +0.000 A 
ATOM     23  N   UNL     1       7.571   6.038  15.825  0.00  0.00    +0.000 NA
ATOM     24  N   UNL     1       6.633   5.409  15.058  0.00  0.00    +0.000 NA
ATOM     25  N   UNL     1       5.500   5.254  15.722  0.00  0.00    +0.000 NA
ATOM     26  N   UNL     1       5.660   5.902  16.900  0.00  0.00    +0.000 N 
ENDBRANCH  15  26
ENDBRANCH   1  19
TORSDOF 3
ENDMDL
MODEL 6
REMARK VINA RESULT:      -8.5      1.071      1.461
REMARK  Name = 
REMARK  4 active torsions:
REMARK  status: ('A' for Active; 'I' for Inactive)
REMARK    1  A    between atoms: C_1  and  C_2
REMARK    2  A    between atoms: N_6  and  C_7
REMARK    3  A    between atoms: C_11  and  N_12
REMARK    4  A    between atoms: C_13  and  C_15
REMARK                            x       y       z     vdW  Elec       q    Type
REMARK                         _______ _______ _______ _____ _____    ______ ____
ROOT
ATOM      1  N   UNL     1       2.292   7.462  18.642  0.00  0.00    +0.000 N 
ATOM      2  C   UNL     1       1.792   7.652  19.933  0.00  0.00    +0.000 C 
ATOM      3  O   UNL     1       1.914   6.840  20.849  0.00  0.00    +0.000 OA
ATOM      4  H   UNL     1       2.304   8.244  18.003  0.00  0.00    +0.000 HD
ENDROOT
BRANCH   2   5
ATOM      5  C   UNL     1       1.051   8.911  20.266  0.00  0.00    +0.000 A 
ATOM      6  C   UNL     1       0.959  10.031  19.435  0.00  0.00    +0.000 A 
ATOM      7  C   UNL     1       0.229  11.169  19.828  0.00  0.00    +0.000 A 
ATOM      8  C   UNL     1      -0.353  11.175  21.103  0.00  0.00    +0.000 A 
ATOM      9  N   UNL     1      -1.057  12.158  21.768  0.00  0.00    +0.000 N 
ATOM     10  C   UNL     1      -1.405  11.725  23.022  0.00  0.00    +0.000 A 
ATOM     11  C   UNL     1      -0.960  10.431  23.162  0.00  0.00    +0.000 A 
ATOM     12  C   UNL     1      -0.279  10.082  21.961  0.00  0.00    +0.000 A 
ATOM     13  C   UNL     1       0.408   8.935  21.525  0.00  0.00    +0.000 A 
ATOM     14  H   UNL     1      -1.254  13.075  21.396  0.00  0.00    +0.000 HD
ENDBRANCH   2   5
BRANCH   1  19
ATOM     15  C   UNL     1       4.453   5.002  16.794  0.00  0.00    +0.000 A 
ATOM     16  C   UNL     1       3.796   3.802  17.080  0.00  0.00    +0.000 A 
ATOM     17  C   UNL     1       2.663   3.806  17.877  0.00  0.00    +0.000 A 
ATOM     18  C   UNL     1       2.177   5.005  18.390  0.00  0.00    +0.000 A 
ATOM     19  C   UNL     1       2.810   6.227  18.144  0.00  0.00    +0.000 A 
ATOM     20  C   UNL     1       3.964   6.218  17.338  0.00  0.00    +0.000 A 
BRANCH  15  26
ATOM     21  C   UNL     1       7.547   4.745  17.747  0.00  0.00    +0.000 C 
ATOM     22  C   UNL     1       6.988   5.016  16.400  0.00  0.00    +0.000 A 
ATOM     23  N   UNL     1       7.713   5.206  15.315  0.00  0.00    +0.000 NA
ATOM     24  N   UNL     1       6.844   5.181  14.262  0.00  0.00    +0.000 NA
ATOM     25  N   UNL     1       5.604   4.967  14.670  0.00  0.00    +0.000 NA
ATOM     26  N   UNL     1       5.646   4.975  16.024  0.00  0.00    +0.000 N 
ENDBRANCH  15  26
ENDBRANCH   1  19
TORSDOF 3
ENDMDL
MODEL 7
REMARK VINA RESULT:      -8.5      0.607      1.471
REMARK  Name = 
REMARK  4 active torsions:
REMARK  status: ('A' for Active; 'I' for Inactive)
REMARK    1  A    between atoms: C_1  and  C_2
REMARK    2  A    between atoms: N_6  and  C_7
REMARK    3  A    between atoms: C_11  and  N_12
REMARK    4  A    between atoms: C_13  and  C_15
REMARK                            x       y       z     vdW  Elec       q    Type
REMARK                         _______ _______ _______ _____ _____    ______ ____
ROOT
ATOM      1  N   UNL     1       2.215   7.475  19.131  0.00  0.00    +0.000 N 
ATOM      2  C   UNL     1       1.583   7.528  20.376  0.00  0.00    +0.000 C 
ATOM      3  O   UNL     1       1.563   6.599  21.182  0.00  0.00    +0.000 OA
ATOM      4  H   UNL     1       2.337   8.329  18.607  0.00  0.00    +0.000 HD
ENDROOT
BRANCH   2   5
ATOM      5  C   UNL     1       0.870   8.778  20.795  0.00  0.00    +0.000 A 
ATOM      6  C   UNL     1       0.484   9.080  22.103  0.00  0.00    +0.000 A 
ATOM      7  C   UNL     1      -0.174  10.288  22.405  0.00  0.00    +0.000 A 
ATOM      8  C   UNL     1      -0.488  11.154  21.349  0.00  0.00    +0.000 A 
ATOM      9  N   UNL     1      -1.172  12.351  21.339  0.00  0.00    +0.000 N 
ATOM     10  C   UNL     1      -1.271  12.830  20.058  0.00  0.00    +0.000 A 
ATOM     11  C   UNL     1      -0.608  11.956  19.227  0.00  0.00    +0.000 A 
ATOM     12  C   UNL     1      -0.126  10.885  20.033  0.00  0.00    +0.000 A 
ATOM     13  C   UNL     1       0.581   9.699  19.762  0.00  0.00    +0.000 A 
ATOM     14  H   UNL     1      -1.574  12.792  22.154  0.00  0.00    +0.000 HD
ENDBRANCH   2   5
BRANCH   1  19
ATOM     15  C   UNL     1       4.614   4.997  17.632  0.00  0.00    +0.000 A 
ATOM     16  C   UNL     1       3.741   3.970  17.261  0.00  0.00    +0.000 A 
ATOM     17  C   UNL     1       2.384   4.093  17.510  0.00  0.00    +0.000 A 
ATOM     18  C   UNL     1       1.889   5.238  18.127  0.00  0.00    +0.000 A 
ATOM     19  C   UNL     1       2.726   6.283  18.529  0.00  0.00    +0.000 A 
ATOM     20  C   UNL     1       4.106   6.153  18.279  0.00  0.00    +0.000 A 
BRANCH  15  26
ATOM     21  C   UNL     1       6.311   4.882  14.865  0.00  0.00    +0.000 C 
ATOM     22  C   UNL     1       6.751   4.630  16.259  0.00  0.00    +0.000 A 
ATOM     23  N   UNL     1       7.979   4.299  16.607  0.00  0.00    +0.000 NA
ATOM     24  N   UNL     1       8.033   4.394  17.968  0.00  0.00    +0.000 NA
ATOM     25  N   UNL     1       6.872   4.788  18.466  0.00  0.00    +0.000 NA
ATOM     26  N   UNL     1       6.010   4.833  17.422  0.00  0.00    +0.000 N 
ENDBRANCH  15  26
ENDBRANCH   1  19
TORSDOF 3
ENDMDL
MODEL 8
REMARK VINA RESULT:      -8.4      2.007      2.266
REMARK  Name = 
REMARK  4 active torsions:
REMARK  status: ('A' for Active; 'I' for Inactive)
REMARK    1  A    between atoms: C_1  and  C_2
REMARK    2  A    between atoms: N_6  and  C_7
REMARK    3  A    between atoms: C_11  and  N_12
REMARK    4  A    between atoms: C_13  and  C_15
REMARK                            x       y       z     vdW  Elec       q    Type
REMARK                         _______ _______ _______ _____ _____    ______ ____
ROOT
ATOM      1  N   UNL     1       2.153   8.051  17.914  0.00  0.00    +0.000 N 
ATOM      2  C   UNL     1       1.590   8.683  19.026  0.00  0.00    +0.000 C 
ATOM      3  O   UNL     1       1.659   8.252  20.176  0.00  0.00    +0.000 OA
ATOM      4  H   UNL     1       2.204   8.553  17.040  0.00  0.00    +0.000 HD
ENDROOT
BRANCH   2   5
ATOM      5  C   UNL     1       0.842   9.969  18.850  0.00  0.00    +0.000 A 
ATOM      6  C   UNL     1      -0.482  10.074  18.413  0.00  0.00    +0.000 A 
ATOM      7  C   UNL     1      -1.108  11.329  18.289  0.00  0.00    +0.000 A 
ATOM      8  C   UNL     1      -0.350  12.477  18.554  0.00  0.00    +0.000 A 
ATOM      9  N   UNL     1      -0.675  13.814  18.454  0.00  0.00    +0.000 N 
ATOM     10  C   UNL     1       0.406  14.590  18.784  0.00  0.00    +0.000 A 
ATOM     11  C   UNL     1       1.436  13.752  19.144  0.00  0.00    +0.000 A 
ATOM     12  C   UNL     1       0.971  12.414  18.984  0.00  0.00    +0.000 A 
ATOM     13  C   UNL     1       1.559  11.148  19.156  0.00  0.00    +0.000 A 
ATOM     14  H   UNL     1      -1.569  14.168  18.146  0.00  0.00    +0.000 HD
ENDBRANCH   2   5
BRANCH   1  19
ATOM     15  C   UNL     1       4.611   5.209  17.768  0.00  0.00    +0.000 A 
ATOM     16  C   UNL     1       3.751   4.109  17.833  0.00  0.00    +0.000 A 
ATOM     17  C   UNL     1       2.383   4.304  17.931  0.00  0.00    +0.000 A 
ATOM     18  C   UNL     1       1.865   5.595  17.963  0.00  0.00    +0.000 A 
ATOM     19  C   UNL     1       2.687   6.725  17.917  0.00  0.00    +0.000 A 
ATOM     20  C   UNL     1       4.077   6.522  17.822  0.00  0.00    +0.000 A 
BRANCH  15  26
ATOM     21  C   UNL     1       6.559   4.635  15.234  0.00  0.00    +0.000 C 
ATOM     22  C   UNL     1       6.857   4.599  16.686  0.00  0.00    +0.000 A 
ATOM     23  N   UNL     1       8.036   4.309  17.201  0.00  0.00    +0.000 NA
ATOM     24  N   UNL     1       7.962   4.616  18.530  0.00  0.00    +0.000 NA
ATOM     25  N   UNL     1       6.772   5.100  18.843  0.00  0.00    +0.000 NA
ATOM     26  N   UNL     1       6.014   4.993  17.725  0.00  0.00    +0.000 N 
ENDBRANCH  15  26
ENDBRANCH   1  19
TORSDOF 3
ENDMDL
MODEL 9
REMARK VINA RESULT:      -8.3      1.551      1.968
REMARK  Name = 
REMARK  4 active torsions:
REMARK  status: ('A' for Active; 'I' for Inactive)
REMARK    1  A    between atoms: C_1  and  C_2
REMARK    2  A    between atoms: N_6  and  C_7
REMARK    3  A    between atoms: C_11  and  N_12
REMARK    4  A    between atoms: C_13  and  C_15
REMARK                            x       y       z     vdW  Elec       q    Type
REMARK                         _______ _______ _______ _____ _____    ______ ____
ROOT
ATOM      1  N   UNL     1       1.663   6.289  20.793  0.00  0.00    +0.000 N 
ATOM      2  C   UNL     1       1.630   7.572  20.242  0.00  0.00    +0.000 C 
ATOM      3  O   UNL     1       2.170   7.884  19.182  0.00  0.00    +0.000 OA
ATOM      4  H   UNL     1       1.054   6.073  21.569  0.00  0.00    +0.000 HD
ENDROOT
BRANCH   2   5
ATOM      5  C   UNL     1       0.902   8.669  20.957  0.00  0.00    +0.000 A 
ATOM      6  C   UNL     1       0.817   8.803  22.346  0.00  0.00    +0.000 A 
ATOM      7  C   UNL     1       0.119   9.876  22.930  0.00  0.00    +0.000 A 
ATOM      8  C   UNL     1      -0.543  10.777  22.084  0.00  0.00    +0.000 A 
ATOM      9  N   UNL     1      -1.342  11.863  22.372  0.00  0.00    +0.000 N 
ATOM     10  C   UNL     1      -1.806  12.430  21.213  0.00  0.00    +0.000 A 
ATOM     11  C   UNL     1      -1.271  11.732  20.155  0.00  0.00    +0.000 A 
ATOM     12  C   UNL     1      -0.486  10.674  20.698  0.00  0.00    +0.000 A 
ATOM     13  C   UNL     1       0.264   9.626  20.134  0.00  0.00    +0.000 A 
ATOM     14  H   UNL     1      -1.579  12.173  23.303  0.00  0.00    +0.000 HD
ENDBRANCH   2   5
BRANCH   1  19
ATOM     15  C   UNL     1       4.587   4.468  19.284  0.00  0.00    +0.000 A 
ATOM     16  C   UNL     1       4.135   3.147  19.336  0.00  0.00    +0.000 A 
ATOM     17  C   UNL     1       2.887   2.863  19.867  0.00  0.00    +0.000 A 
ATOM     18  C   UNL     1       2.084   3.893  20.348  0.00  0.00    +0.000 A 
ATOM     19  C   UNL     1       2.501   5.226  20.332  0.00  0.00    +0.000 A 
ATOM     20  C   UNL     1       3.772   5.511  19.796  0.00  0.00    +0.000 A 
BRANCH  15  26
ATOM     21  C   UNL     1       5.718   4.420  16.240  0.00  0.00    +0.000 C 
ATOM     22  C   UNL     1       6.448   4.584  17.521  0.00  0.00    +0.000 A 
ATOM     23  N   UNL     1       7.753   4.745  17.622  0.00  0.00    +0.000 NA
ATOM     24  N   UNL     1       7.998   5.097  18.918  0.00  0.00    +0.000 NA
ATOM     25  N   UNL     1       6.876   5.169  19.615  0.00  0.00    +0.000 NA
ATOM     26  N   UNL     1       5.892   4.738  18.790  0.00  0.00    +0.000 N 
ENDBRANCH  15  26
ENDBRANCH   1  19
TORSDOF 3
ENDMDL
