MODEL 1
REMARK VINA RESULT:      -8.8      0.000      0.000
REMARK  Name = 
REMARK  5 active torsions:
REMARK  status: ('A' for Active; 'I' for Inactive)
REMARK    1  A    between atoms: C_2  and  C_3
REMARK    2  A    between atoms: C_3  and  N_4
REMARK    3  A    between atoms: N_14  and  C_15
REMARK    4  A    between atoms: C_18  and  S_19
REMARK    5  A    between atoms: S_19  and  N_22
REMARK                            x       y       z     vdW  Elec       q    Type
REMARK                         _______ _______ _______ _____ _____    ______ ____
ROOT
ATOM      1  C   UNL     1       1.983   7.767  19.789  0.00  0.00    +0.000 A 
ATOM      2  C   UNL     1       1.280   8.233  20.903  0.00  0.00    +0.000 A 
ATOM      3  C   UNL     1       0.476   9.373  20.821  0.00  0.00    +0.000 A 
ATOM      4  C   UNL     1       0.380  10.064  19.617  0.00  0.00    +0.000 A 
ATOM      5  C   UNL     1       1.084   9.622  18.492  0.00  0.00    +0.000 A 
ATOM      6  C   UNL     1       1.900   8.487  18.588  0.00  0.00    +0.000 A 
ENDROOT
BRANCH   1   9
ATOM      7  O   UNL     1       1.215   5.014  20.529  0.00  0.00    +0.000 OA
ATOM      8  C   UNL     1       2.353   5.331  20.186  0.00  0.00    +0.000 C 
ATOM      9  N   UNL     1       2.777   6.598  19.812  0.00  0.00    +0.000 N 
ATOM     10  H   UNL     1       3.738   6.697  19.494  0.00  0.00    +0.000 HD
BRANCH   8  11
ATOM     11  C   UNL     1       3.461   4.286  20.230  0.00  0.00    +0.000 C 
BRANCH  11  12
ATOM     12  N   UNL     1       4.087   4.248  18.921  0.00  0.00    +0.000 N 
ATOM     13  C   UNL     1       3.390   3.742  17.835  0.00  0.00    +0.000 A 
ATOM     14  N   UNL     1       3.854   3.629  16.631  0.00  0.00    +0.000 NA
ATOM     15  C   UNL     1       5.140   4.039  16.488  0.00  0.00    +0.000 A 
ATOM     16  S   UNL     1       5.947   3.967  14.986  0.00  0.00    +0.000 S 
ATOM     17  C   UNL     1       7.389   4.604  15.657  0.00  0.00    +0.000 A 
ATOM     18  C   UNL     1       7.257   4.873  17.003  0.00  0.00    +0.000 A 
ATOM     19  C   UNL     1       5.955   4.539  17.480  0.00  0.00    +0.000 A 
ATOM     20  C   UNL     1       5.414   4.649  18.818  0.00  0.00    +0.000 A 
ATOM     21  O   UNL     1       6.074   5.046  19.776  0.00  0.00    +0.000 OA
ENDBRANCH  11  12
ENDBRANCH   8  11
ENDBRANCH   1   9
BRANCH   4  22
ATOM     22  S   UNL     1      -0.772  11.412  19.484  0.00  0.00    +0.000 S 
ATOM     23  O   UNL     1      -0.898  11.980  20.813  0.00  0.00    +0.000 OA
ATOM     24  O   UNL     1      -0.378  12.249  18.372  0.00  0.00    +0.000 OA
BRANCH  22  25
ATOM     25  N   UNL     1      -2.233  10.669  19.180  0.00  0.00    +0.000 N 
ATOM     26  C   UNL     1      -2.657  10.713  17.857  0.00  0.00    +0.000 A 
ATOM     27  N   UNL     1      -2.134   9.838  16.996  0.00  0.00    +0.000 NA
ATOM     28  C   UNL     1      -2.718   9.822  15.781  0.00  0.00    +0.000 A 
ATOM     29  C   UNL     1      -3.759  10.652  15.423  0.00  0.00    +0.000 A 
ATOM     30  C   UNL     1      -4.187  11.524  16.397  0.00  0.00    +0.000 A 
ATOM     31  N   UNL     1      -3.669  11.558  17.638  0.00  0.00    +0.000 NA
ATOM     32  H   UNL     1      -2.940  11.054  19.797  0.00  0.00    +0.000 HD
ENDBRANCH  22  25
ENDBRANCH   4  22
TORSDOF 5
ENDMDL
MODEL 2
REMARK VINA RESULT:      -8.5      1.117      1.479
REMARK  Name = 
REMARK  5 active torsions:
REMARK  status: ('A' for Active; 'I' for Inactive)
REMARK    1  A    between atoms: C_2  and  C_3
REMARK    2  A    between atoms: C_3  and  N_4
REMARK    3  A    between atoms: N_14  and  C_15
REMARK    4  A    between atoms: C_18  and  S_19
REMARK    5  A    between atoms: S_19  and  N_22
REMARK                            x       y       z     vdW  Elec       q    Type
REMARK                         _______ _______ _______ _____ _____    ______ ____
ROOT
ATOM      1  C   UNL     1       2.208   7.379  19.728  0.00  0.00    +0.000 A 
ATOM      2  C   UNL     1       1.515   7.837  20.852  0.00  0.00    +0.000 A 
ATOM      3  C   UNL     1       0.757   9.009  20.801  0.00  0.00    +0.000 A 
ATOM      4  C   UNL     1       0.699   9.743  19.619  0.00  0.00    +0.000 A 
ATOM      5  C   UNL     1       1.394   9.309  18.485  0.00  0.00    +0.000 A 
ATOM      6  C   UNL     1       2.163   8.140  18.551  0.00  0.00    +0.000 A 
ENDROOT
BRANCH   1   9
ATOM      7  O   UNL     1       1.250   4.594  19.929  0.00  0.00    +0.000 OA
ATOM      8  C   UNL     1       2.439   4.896  19.831  0.00  0.00    +0.000 C 
ATOM      9  N   UNL     1       2.955   6.179  19.719  0.00  0.00    +0.000 N 
ATOM     10  H   UNL     1       3.959   6.272  19.585  0.00  0.00    +0.000 HD
BRANCH   8  11
ATOM     11  C   UNL     1       3.494   3.800  19.914  0.00  0.00    +0.000 C 
BRANCH  11  12
ATOM     12  N   UNL     1       4.480   4.056  18.880  0.00  0.00    +0.000 N 
ATOM     13  C   UNL     1       5.702   4.619  19.212  0.00  0.00    +0.000 A 
ATOM     14  N   UNL     1       6.643   4.921  18.375  0.00  0.00    +0.000 NA
ATOM     15  C   UNL     1       6.341   4.658  17.078  0.00  0.00    +0.000 A 
ATOM     16  S   UNL     1       7.439   4.988  15.813  0.00  0.00    +0.000 S 
ATOM     17  C   UNL     1       6.342   4.416  14.627  0.00  0.00    +0.000 A 
ATOM     18  C   UNL     1       5.161   3.975  15.185  0.00  0.00    +0.000 A 
ATOM     19  C   UNL     1       5.164   4.122  16.603  0.00  0.00    +0.000 A 
ATOM     20  C   UNL     1       4.126   3.800  17.559  0.00  0.00    +0.000 A 
ATOM     21  O   UNL     1       3.028   3.355  17.231  0.00  0.00    +0.000 OA
ENDBRANCH  11  12
ENDBRANCH   8  11
ENDBRANCH   1   9
BRANCH   4  22
ATOM     22  S   UNL     1      -0.398  11.139  19.522  0.00  0.00    +0.000 S 
ATOM     23  O   UNL     1      -0.467  11.703  20.857  0.00  0.00    +0.000 OA
ATOM     24  O   UNL     1       0.005  11.966  18.406  0.00  0.00    +0.000 OA
BRANCH  22  25
ATOM     25  N   UNL     1      -1.896  10.461  19.250  0.00  0.00    +0.000 N 
ATOM     26  C   UNL     1      -2.390  10.613  17.960  0.00  0.00    +0.000 A 
ATOM     27  N   UNL     1      -1.943   9.790  17.009  0.00  0.00    +0.000 NA
ATOM     28  C   UNL     1      -2.594   9.879  15.832  0.00  0.00    +0.000 A 
ATOM     29  C   UNL     1      -3.627  10.761  15.595  0.00  0.00    +0.000 A 
ATOM     30  C   UNL     1      -3.972  11.571  16.651  0.00  0.00    +0.000 A 
ATOM     31  N   UNL     1      -3.386  11.499  17.860  0.00  0.00    +0.000 NA
ATOM     32  H   UNL     1      -2.555  10.818  19.932  0.00  0.00    +0.000 HD
ENDBRANCH  22  25
ENDBRANCH   4  22
TORSDOF 5
ENDMDL
MODEL 3
REMARK VINA RESULT:      -8.4      0.764      1.165
REMARK  Name = 
REMARK  5 active torsions:
REMARK  status: ('A' for Active; 'I' for Inactive)
REMARK    1  A    between atoms: C_2  and  C_3
REMARK    2  A    between atoms: C_3  and  N_4
REMARK    3  A    between atoms: N_14  and  C_15
REMARK    4  A    between atoms: C_18  and  S_19
REMARK    5  A    between atoms: S_19  and  N_22
REMARK                            x       y       z     vdW  Elec       q    Type
REMARK                         _______ _______ _______ _____ _____    ______ ____
ROOT
ATOM      1  C   UNL     1       2.152   7.528  19.828  0.00  0.00    +0.000 A 
ATOM      2  C   UNL     1       1.558   8.022  20.992  0.00  0.00    +0.000 A 
ATOM      3  C   UNL     1       0.886   9.247  20.993  0.00  0.00    +0.000 A 
ATOM      4  C   UNL     1       0.817   9.997  19.821  0.00  0.00    +0.000 A 
ATOM      5  C   UNL     1       1.414   9.526  18.647  0.00  0.00    +0.000 A 
ATOM      6  C   UNL     1       2.098   8.304  18.661  0.00  0.00    +0.000 A 
ENDROOT
BRANCH   1   9
ATOM      7  O   UNL     1       1.160   4.871  20.646  0.00  0.00    +0.000 OA
ATOM      8  C   UNL     1       2.284   5.061  20.185  0.00  0.00    +0.000 C 
ATOM      9  N   UNL     1       2.807   6.277  19.768  0.00  0.00    +0.000 N 
ATOM     10  H   UNL     1       3.734   6.271  19.351  0.00  0.00    +0.000 HD
BRANCH   8  11
ATOM     11  C   UNL     1       3.266   3.898  20.113  0.00  0.00    +0.000 C 
BRANCH  11  12
ATOM     12  N   UNL     1       3.947   3.971  18.834  0.00  0.00    +0.000 N 
ATOM     13  C   UNL     1       3.331   3.484  17.693  0.00  0.00    +0.000 A 
ATOM     14  N   UNL     1       3.851   3.467  16.506  0.00  0.00    +0.000 NA
ATOM     15  C   UNL     1       5.113   3.964  16.444  0.00  0.00    +0.000 A 
ATOM     16  S   UNL     1       5.985   4.026  14.978  0.00  0.00    +0.000 S 
ATOM     17  C   UNL     1       7.353   4.714  15.747  0.00  0.00    +0.000 A 
ATOM     18  C   UNL     1       7.148   4.899  17.097  0.00  0.00    +0.000 A 
ATOM     19  C   UNL     1       5.852   4.459  17.496  0.00  0.00    +0.000 A 
ATOM     20  C   UNL     1       5.249   4.460  18.812  0.00  0.00    +0.000 A 
ATOM     21  O   UNL     1       5.840   4.845  19.819  0.00  0.00    +0.000 OA
ENDBRANCH  11  12
ENDBRANCH   8  11
ENDBRANCH   1   9
BRANCH   4  22
ATOM     22  S   UNL     1      -0.178  11.470  19.796  0.00  0.00    +0.000 S 
ATOM     23  O   UNL     1      -1.438  11.129  20.429  0.00  0.00    +0.000 OA
ATOM     24  O   UNL     1       0.613  12.570  20.302  0.00  0.00    +0.000 OA
BRANCH  22  25
ATOM     25  N   UNL     1      -0.538  11.689  18.184  0.00  0.00    +0.000 N 
ATOM     26  C   UNL     1      -1.786  11.223  17.786  0.00  0.00    +0.000 A 
ATOM     27  N   UNL     1      -2.855  11.982  18.036  0.00  0.00    +0.000 NA
ATOM     28  C   UNL     1      -3.999  11.552  17.468  0.00  0.00    +0.000 A 
ATOM     29  C   UNL     1      -4.091  10.409  16.704  0.00  0.00    +0.000 A 
ATOM     30  C   UNL     1      -2.920   9.704  16.545  0.00  0.00    +0.000 A 
ATOM     31  N   UNL     1      -1.741  10.105  17.054  0.00  0.00    +0.000 NA
ATOM     32  H   UNL     1       0.195  11.279  17.617  0.00  0.00    +0.000 HD
ENDBRANCH  22  25
ENDBRANCH   4  22
TORSDOF 5
ENDMDL
MODEL 4
REMARK VINA RESULT:      -8.4      2.320      3.120
REMARK  Name = 
REMARK  5 active torsions:
REMARK  status: ('A' for Active; 'I' for Inactive)
REMARK    1  A    between atoms: C_2  and  C_3
REMARK    2  A    between atoms: C_3  and  N_4
REMARK    3  A    between atoms: N_14  and  C_15
REMARK    4  A    between atoms: C_18  and  S_19
REMARK    5  A    between atoms: S_19  and  N_22
REMARK                            x       y       z     vdW  Elec       q    Type
REMARK                         _______ _______ _______ _____ _____    ______ ____
ROOT
ATOM      1  C   UNL     1       1.980   7.785  19.754  0.00  0.00    +0.000 A 
ATOM      2  C   UNL     1       1.323   8.295  20.875  0.00  0.00    +0.000 A 
ATOM      3  C   UNL     1       0.535   9.446  20.786  0.00  0.00    +0.000 A 
ATOM      4  C   UNL     1       0.411  10.104  19.565  0.00  0.00    +0.000 A 
ATOM      5  C   UNL     1       1.069   9.617  18.432  0.00  0.00    +0.000 A 
ATOM      6  C   UNL     1       1.869   8.471  18.535  0.00  0.00    +0.000 A 
ENDROOT
BRANCH   1   9
ATOM      7  O   UNL     1       1.173   5.055  20.536  0.00  0.00    +0.000 OA
ATOM      8  C   UNL     1       2.313   5.348  20.179  0.00  0.00    +0.000 C 
ATOM      9  N   UNL     1       2.755   6.603  19.785  0.00  0.00    +0.000 N 
ATOM     10  H   UNL     1       3.715   6.682  19.457  0.00  0.00    +0.000 HD
BRANCH   8  11
ATOM     11  C   UNL     1       3.404   4.286  20.227  0.00  0.00    +0.000 C 
BRANCH  11  12
ATOM     12  N   UNL     1       4.037   4.240  18.922  0.00  0.00    +0.000 N 
ATOM     13  C   UNL     1       3.412   3.588  17.872  0.00  0.00    +0.000 A 
ATOM     14  N   UNL     1       3.892   3.456  16.676  0.00  0.00    +0.000 NA
ATOM     15  C   UNL     1       5.121   4.006  16.505  0.00  0.00    +0.000 A 
ATOM     16  S   UNL     1       5.939   3.937  15.008  0.00  0.00    +0.000 S 
ATOM     17  C   UNL     1       7.290   4.783  15.635  0.00  0.00    +0.000 A 
ATOM     18  C   UNL     1       7.120   5.118  16.961  0.00  0.00    +0.000 A 
ATOM     19  C   UNL     1       5.865   4.662  17.461  0.00  0.00    +0.000 A 
ATOM     20  C   UNL     1       5.308   4.790  18.791  0.00  0.00    +0.000 A 
ATOM     21  O   UNL     1       5.910   5.323  19.721  0.00  0.00    +0.000 OA
ENDBRANCH  11  12
ENDBRANCH   8  11
ENDBRANCH   1   9
BRANCH   4  22
ATOM     22  S   UNL     1      -0.722  11.467  19.431  0.00  0.00    +0.000 S 
ATOM     23  O   UNL     1      -1.933  10.941  18.831  0.00  0.00    +0.000 OA
ATOM     24  O   UNL     1      -0.782  12.147  20.707  0.00  0.00    +0.000 OA
BRANCH  22  25
ATOM     25  N   UNL     1      -0.042  12.447  18.267  0.00  0.00    +0.000 N 
ATOM     26  C   UNL     1       0.802  13.441  18.748  0.00  0.00    +0.000 A 
ATOM     27  N   UNL     1       2.054  13.107  19.070  0.00  0.00    +0.000 NA
ATOM     28  C   UNL     1       2.861  14.147  19.358  0.00  0.00    +0.000 A 
ATOM     29  C   UNL     1       2.445  15.461  19.351  0.00  0.00    +0.000 A 
ATOM     30  C   UNL     1       1.125  15.666  19.025  0.00  0.00    +0.000 A 
ATOM     31  N   UNL     1       0.283  14.671  18.691  0.00  0.00    +0.000 NA
ATOM     32  H   UNL     1      -0.777  12.847  17.693  0.00  0.00    +0.000 HD
ENDBRANCH  22  25
ENDBRANCH   4  22
TORSDOF 5
ENDMDL
MODEL 5
REMARK VINA RESULT:      -8.3      6.416      9.726
REMARK  Name = 
REMARK  5 active torsions:
REMARK  status: ('A' for Active; 'I' for Inactive)
REMARK    1  A    between atoms: C_2  and  C_3
REMARK    2  A    between atoms: C_3  and  N_4
REMARK    3  A    between atoms: N_14  and  C_15
REMARK    4  A    between atoms: C_18  and  S_19
REMARK    5  A    between atoms: S_19  and  N_22
REMARK                            x       y       z     vdW  Elec       q    Type
REMARK                         _______ _______ _______ _____ _____    ______ ____
ROOT
ATOM      1  C   UNL     1       8.156   7.630  18.542  0.00  0.00    +0.000 A 
ATOM      2  C   UNL     1       7.411   7.849  17.381  0.00  0.00    +0.000 A 
ATOM      3  C   UNL     1       6.600   6.844  16.847  0.00  0.00    +0.000 A 
ATOM      4  C   UNL     1       6.540   5.601  17.471  0.00  0.00    +0.000 A 
ATOM      5  C   UNL     1       7.287   5.357  18.628  0.00  0.00    +0.000 A 
ATOM      6  C   UNL     1       8.109   6.365  19.147  0.00  0.00    +0.000 A 
ENDROOT
BRANCH   1   9
ATOM      7  O   UNL     1       8.368  10.497  17.872  0.00  0.00    +0.000 OA
ATOM      8  C   UNL     1       9.021   9.961  18.765  0.00  0.00    +0.000 C 
ATOM      9  N   UNL     1       8.959   8.627  19.141  0.00  0.00    +0.000 N 
ATOM     10  H   UNL     1       9.517   8.338  19.941  0.00  0.00    +0.000 HD
BRANCH   8  11
ATOM     11  C   UNL     1      10.068  10.776  19.514  0.00  0.00    +0.000 C 
BRANCH  11  12
ATOM     12  N   UNL     1       9.929  12.161  19.103  0.00  0.00    +0.000 N 
ATOM     13  C   UNL     1       8.866  12.918  19.570  0.00  0.00    +0.000 A 
ATOM     14  N   UNL     1       8.621  14.149  19.249  0.00  0.00    +0.000 NA
ATOM     15  C   UNL     1       9.503  14.680  18.364  0.00  0.00    +0.000 A 
ATOM     16  S   UNL     1       9.359  16.285  17.802  0.00  0.00    +0.000 S 
ATOM     17  C   UNL     1      10.744  16.129  16.806  0.00  0.00    +0.000 A 
ATOM     18  C   UNL     1      11.312  14.877  16.904  0.00  0.00    +0.000 A 
ATOM     19  C   UNL     1      10.587  14.040  17.803  0.00  0.00    +0.000 A 
ATOM     20  C   UNL     1      10.834  12.663  18.174  0.00  0.00    +0.000 A 
ATOM     21  O   UNL     1      11.751  11.996  17.699  0.00  0.00    +0.000 OA
ENDBRANCH  11  12
ENDBRANCH   8  11
ENDBRANCH   1   9
BRANCH   4  22
ATOM     22  S   UNL     1       5.382   4.391  16.876  0.00  0.00    +0.000 S 
ATOM     23  O   UNL     1       4.114   5.077  16.712  0.00  0.00    +0.000 OA
ATOM     24  O   UNL     1       5.977   3.691  15.758  0.00  0.00    +0.000 OA
BRANCH  22  25
ATOM     25  N   UNL     1       5.164   3.365  18.172  0.00  0.00    +0.000 N 
ATOM     26  C   UNL     1       3.850   3.222  18.600  0.00  0.00    +0.000 A 
ATOM     27  N   UNL     1       3.050   2.394  17.925  0.00  0.00    +0.000 NA
ATOM     28  C   UNL     1       1.852   2.170  18.499  0.00  0.00    +0.000 A 
ATOM     29  C   UNL     1       1.448   2.758  19.679  0.00  0.00    +0.000 A 
ATOM     30  C   UNL     1       2.358   3.610  20.260  0.00  0.00    +0.000 A 
ATOM     31  N   UNL     1       3.583   3.841  19.755  0.00  0.00    +0.000 NA
ATOM     32  H   UNL     1       5.761   3.659  18.937  0.00  0.00    +0.000 HD
ENDBRANCH  22  25
ENDBRANCH   4  22
TORSDOF 5
ENDMDL
MODEL 6
REMARK VINA RESULT:      -8.3      1.452      1.950
REMARK  Name = 
REMARK  5 active torsions:
REMARK  status: ('A' for Active; 'I' for Inactive)
REMARK    1  A    between atoms: C_2  and  C_3
REMARK    2  A    between atoms: C_3  and  N_4
REMARK    3  A    between atoms: N_14  and  C_15
REMARK    4  A    between atoms: C_18  and  S_19
REMARK    5  A    between atoms: S_19  and  N_22
REMARK                            x       y       z     vdW  Elec       q    Type
REMARK                         _______ _______ _______ _____ _____    ______ ____
ROOT
ATOM      1  C   UNL     1       2.148   7.174  19.696  0.00  0.00    +0.000 A 
ATOM      2  C   UNL     1       1.613   7.659  20.892  0.00  0.00    +0.000 A 
ATOM      3  C   UNL     1       1.063   8.942  20.966  0.00  0.00    +0.000 A 
ATOM      4  C   UNL     1       1.057   9.756  19.836  0.00  0.00    +0.000 A 
ATOM      5  C   UNL     1       1.597   9.294  18.632  0.00  0.00    +0.000 A 
ATOM      6  C   UNL     1       2.160   8.013  18.572  0.00  0.00    +0.000 A 
ENDROOT
BRANCH   1   9
ATOM      7  O   UNL     1       0.860   4.577  20.252  0.00  0.00    +0.000 OA
ATOM      8  C   UNL     1       2.019   4.687  19.856  0.00  0.00    +0.000 C 
ATOM      9  N   UNL     1       2.679   5.871  19.562  0.00  0.00    +0.000 N 
ATOM     10  H   UNL     1       3.621   5.803  19.185  0.00  0.00    +0.000 HD
BRANCH   8  11
ATOM     11  C   UNL     1       2.884   3.438  19.730  0.00  0.00    +0.000 C 
BRANCH  11  12
ATOM     12  N   UNL     1       3.997   3.757  18.857  0.00  0.00    +0.000 N 
ATOM     13  C   UNL     1       5.198   4.191  19.396  0.00  0.00    +0.000 A 
ATOM     14  N   UNL     1       6.247   4.533  18.717  0.00  0.00    +0.000 NA
ATOM     15  C   UNL     1       6.089   4.456  17.371  0.00  0.00    +0.000 A 
ATOM     16  S   UNL     1       7.346   4.870  16.291  0.00  0.00    +0.000 S 
ATOM     17  C   UNL     1       6.370   4.528  14.925  0.00  0.00    +0.000 A 
ATOM     18  C   UNL     1       5.110   4.099  15.283  0.00  0.00    +0.000 A 
ATOM     19  C   UNL     1       4.951   4.064  16.700  0.00  0.00    +0.000 A 
ATOM     20  C   UNL     1       3.791   3.694  17.483  0.00  0.00    +0.000 A 
ATOM     21  O   UNL     1       2.719   3.368  16.977  0.00  0.00    +0.000 OA
ENDBRANCH  11  12
ENDBRANCH   8  11
ENDBRANCH   1   9
BRANCH   4  22
ATOM     22  S   UNL     1       0.209  11.317  19.902  0.00  0.00    +0.000 S 
ATOM     23  O   UNL     1      -0.975  11.110  20.714  0.00  0.00    +0.000 OA
ATOM     24  O   UNL     1       1.161  12.346  20.258  0.00  0.00    +0.000 OA
BRANCH  22  25
ATOM     25  N   UNL     1      -0.354  11.539  18.349  0.00  0.00    +0.000 N 
ATOM     26  C   UNL     1      -1.671  11.149  18.134  0.00  0.00    +0.000 A 
ATOM     27  N   UNL     1      -2.646  11.978  18.511  0.00  0.00    +0.000 NA
ATOM     28  C   UNL     1      -3.882  11.615  18.112  0.00  0.00    +0.000 A 
ATOM     29  C   UNL     1      -4.147  10.471  17.392  0.00  0.00    +0.000 A 
ATOM     30  C   UNL     1      -3.055   9.691  17.089  0.00  0.00    +0.000 A 
ATOM     31  N   UNL     1      -1.795  10.021  17.426  0.00  0.00    +0.000 NA
ATOM     32  H   UNL     1       0.269  11.076  17.697  0.00  0.00    +0.000 HD
ENDBRANCH  22  25
ENDBRANCH   4  22
TORSDOF 5
ENDMDL
MODEL 7
REMARK VINA RESULT:      -8.3      6.511      9.749
REMARK  Name = 
REMARK  5 active torsions:
REMARK  status: ('A' for Active; 'I' for Inactive)
REMARK    1  A    between atoms: C_2  and  C_3
REMARK    2  A    between atoms: C_3  and  N_4
REMARK    3  A    between atoms: N_14  and  C_15
REMARK    4  A    between atoms: C_18  and  S_19
REMARK    5  A    between atoms: S_19  and  N_22
REMARK                            x       y       z     vdW  Elec       q    Type
REMARK                         _______ _______ _______ _____ _____    ______ ____
ROOT
ATOM      1  C   UNL     1       8.140   7.626  18.519  0.00  0.00    +0.000 A 
ATOM      2  C   UNL     1       7.342   7.868  17.398  0.00  0.00    +0.000 A 
ATOM      3  C   UNL     1       6.540   6.860  16.856  0.00  0.00    +0.000 A 
ATOM      4  C   UNL     1       6.543   5.592  17.430  0.00  0.00    +0.000 A 
ATOM      5  C   UNL     1       7.343   5.325  18.546  0.00  0.00    +0.000 A 
ATOM      6  C   UNL     1       8.155   6.337  19.073  0.00  0.00    +0.000 A 
ENDROOT
BRANCH   1   9
ATOM      7  O   UNL     1       8.341  10.498  17.867  0.00  0.00    +0.000 OA
ATOM      8  C   UNL     1       8.994   9.959  18.760  0.00  0.00    +0.000 C 
ATOM      9  N   UNL     1       8.937   8.623  19.127  0.00  0.00    +0.000 N 
ATOM     10  H   UNL     1       9.494   8.331  19.927  0.00  0.00    +0.000 HD
BRANCH   8  11
ATOM     11  C   UNL     1      10.035  10.775  19.516  0.00  0.00    +0.000 C 
BRANCH  11  12
ATOM     12  N   UNL     1      10.202  12.036  18.818  0.00  0.00    +0.000 N 
ATOM     13  C   UNL     1      11.082  12.126  17.751  0.00  0.00    +0.000 A 
ATOM     14  N   UNL     1      11.337  13.201  17.075  0.00  0.00    +0.000 NA
ATOM     15  C   UNL     1      10.670  14.302  17.507  0.00  0.00    +0.000 A 
ATOM     16  S   UNL     1      10.867  15.825  16.761  0.00  0.00    +0.000 S 
ATOM     17  C   UNL     1       9.773  16.570  17.849  0.00  0.00    +0.000 A 
ATOM     18  C   UNL     1       9.260  15.674  18.762  0.00  0.00    +0.000 A 
ATOM     19  C   UNL     1       9.786  14.364  18.563  0.00  0.00    +0.000 A 
ATOM     20  C   UNL     1       9.525  13.149  19.305  0.00  0.00    +0.000 A 
ATOM     21  O   UNL     1       8.784  13.110  20.285  0.00  0.00    +0.000 OA
ENDBRANCH  11  12
ENDBRANCH   8  11
ENDBRANCH   1   9
BRANCH   4  22
ATOM     22  S   UNL     1       5.397   4.371  16.832  0.00  0.00    +0.000 S 
ATOM     23  O   UNL     1       4.132   5.052  16.635  0.00  0.00    +0.000 OA
ATOM     24  O   UNL     1       6.014   3.656  15.736  0.00  0.00    +0.000 OA
BRANCH  22  25
ATOM     25  N   UNL     1       5.158   3.364  18.139  0.00  0.00    +0.000 N 
ATOM     26  C   UNL     1       3.839   3.239  18.558  0.00  0.00    +0.000 A 
ATOM     27  N   UNL     1       3.036   2.411  17.886  0.00  0.00    +0.000 NA
ATOM     28  C   UNL     1       1.831   2.208  18.453  0.00  0.00    +0.000 A 
ATOM     29  C   UNL     1       1.424   2.814  19.622  0.00  0.00    +0.000 A 
ATOM     30  C   UNL     1       2.337   3.664  20.201  0.00  0.00    +0.000 A 
ATOM     31  N   UNL     1       3.569   3.876  19.702  0.00  0.00    +0.000 NA
ATOM     32  H   UNL     1       5.752   3.661  18.905  0.00  0.00    +0.000 HD
ENDBRANCH  22  25
ENDBRANCH   4  22
TORSDOF 5
ENDMDL
MODEL 8
REMARK VINA RESULT:      -8.2      2.435      3.322
REMARK  Name = 
REMARK  5 active torsions:
REMARK  status: ('A' for Active; 'I' for Inactive)
REMARK    1  A    between atoms: C_2  and  C_3
REMARK    2  A    between atoms: C_3  and  N_4
REMARK    3  A    between atoms: N_14  and  C_15
REMARK    4  A    between atoms: C_18  and  S_19
REMARK    5  A    between atoms: S_19  and  N_22
REMARK                            x       y       z     vdW  Elec       q    Type
REMARK                         _______ _______ _______ _____ _____    ______ ____
ROOT
ATOM      1  C   UNL     1       2.025   7.663  19.950  0.00  0.00    +0.000 A 
ATOM      2  C   UNL     1       1.834   8.504  18.851  0.00  0.00    +0.000 A 
ATOM      3  C   UNL     1       1.162   9.722  18.984  0.00  0.00    +0.000 A 
ATOM      4  C   UNL     1       0.663  10.102  20.227  0.00  0.00    +0.000 A 
ATOM      5  C   UNL     1       0.832   9.271  21.339  0.00  0.00    +0.000 A 
ATOM      6  C   UNL     1       1.494   8.045  21.192  0.00  0.00    +0.000 A 
ENDROOT
BRANCH   1   9
ATOM      7  O   UNL     1       1.117   4.945  20.656  0.00  0.00    +0.000 OA
ATOM      8  C   UNL     1       2.246   5.194  20.238  0.00  0.00    +0.000 C 
ATOM      9  N   UNL     1       2.732   6.442  19.874  0.00  0.00    +0.000 N 
ATOM     10  H   UNL     1       3.671   6.486  19.487  0.00  0.00    +0.000 HD
BRANCH   8  11
ATOM     11  C   UNL     1       3.276   4.074  20.163  0.00  0.00    +0.000 C 
BRANCH  11  12
ATOM     12  N   UNL     1       3.914   4.144  18.861  0.00  0.00    +0.000 N 
ATOM     13  C   UNL     1       3.204   3.796  17.723  0.00  0.00    +0.000 A 
ATOM     14  N   UNL     1       3.675   3.789  16.516  0.00  0.00    +0.000 NA
ATOM     15  C   UNL     1       4.982   4.143  16.426  0.00  0.00    +0.000 A 
ATOM     16  S   UNL     1       5.801   4.191  14.928  0.00  0.00    +0.000 S 
ATOM     17  C   UNL     1       7.266   4.675  15.673  0.00  0.00    +0.000 A 
ATOM     18  C   UNL     1       7.133   4.805  17.039  0.00  0.00    +0.000 A 
ATOM     19  C   UNL     1       5.811   4.491  17.470  0.00  0.00    +0.000 A 
ATOM     20  C   UNL     1       5.261   4.484  18.809  0.00  0.00    +0.000 A 
ATOM     21  O   UNL     1       5.930   4.741  19.808  0.00  0.00    +0.000 OA
ENDBRANCH  11  12
ENDBRANCH   8  11
ENDBRANCH   1   9
BRANCH   4  22
ATOM     22  S   UNL     1      -0.043  11.723  20.415  0.00  0.00    +0.000 S 
ATOM     23  O   UNL     1      -1.478  11.539  20.518  0.00  0.00    +0.000 OA
ATOM     24  O   UNL     1       0.675  12.421  21.458  0.00  0.00    +0.000 OA
BRANCH  22  25
ATOM     25  N   UNL     1       0.205  12.448  18.935  0.00  0.00    +0.000 N 
ATOM     26  C   UNL     1       1.143  13.473  18.927  0.00  0.00    +0.000 A 
ATOM     27  N   UNL     1       2.437  13.148  18.884  0.00  0.00    +0.000 NA
ATOM     28  C   UNL     1       3.276  14.186  18.700  0.00  0.00    +0.000 A 
ATOM     29  C   UNL     1       2.859  15.495  18.586  0.00  0.00    +0.000 A 
ATOM     30  C   UNL     1       1.501  15.696  18.672  0.00  0.00    +0.000 A 
ATOM     31  N   UNL     1       0.613  14.695  18.816  0.00  0.00    +0.000 NA
ATOM     32  H   UNL     1      -0.682  12.770  18.566  0.00  0.00    +0.000 HD
ENDBRANCH  22  25
ENDBRANCH   4  22
TORSDOF 5
ENDMDL
MODEL 9
REMARK VINA RESULT:      -8.2      2.618      3.612
REMARK  Name = 
REMARK  5 active torsions:
REMARK  status: ('A' for Active; 'I' for Inactive)
REMARK    1  A    between atoms: C_2  and  C_3
REMARK    2  A    between atoms: C_3  and  N_4
REMARK    3  A    between atoms: N_14  and  C_15
REMARK    4  A    between atoms: C_18  and  S_19
REMARK    5  A    between atoms: S_19  and  N_22
REMARK                            x       y       z     vdW  Elec       q    Type
REMARK                         _______ _______ _______ _____ _____    ______ ____
ROOT
ATOM      1  C   UNL     1       1.963   7.596  20.065  0.00  0.00    +0.000 A 
ATOM      2  C   UNL     1       1.763   8.469  18.993  0.00  0.00    +0.000 A 
ATOM      3  C   UNL     1       1.000   9.630  19.143  0.00  0.00    +0.000 A 
ATOM      4  C   UNL     1       0.419   9.920  20.374  0.00  0.00    +0.000 A 
ATOM      5  C   UNL     1       0.597   9.055  21.459  0.00  0.00    +0.000 A 
ATOM      6  C   UNL     1       1.350   7.885  21.294  0.00  0.00    +0.000 A 
ENDROOT
BRANCH   1   9
ATOM      7  O   UNL     1       1.198   4.785  20.539  0.00  0.00    +0.000 OA
ATOM      8  C   UNL     1       2.335   5.134  20.225  0.00  0.00    +0.000 C 
ATOM      9  N   UNL     1       2.758   6.431  19.974  0.00  0.00    +0.000 N 
ATOM     10  H   UNL     1       3.718   6.562  19.665  0.00  0.00    +0.000 HD
BRANCH   8  11
ATOM     11  C   UNL     1       3.444   4.091  20.167  0.00  0.00    +0.000 C 
BRANCH  11  12
ATOM     12  N   UNL     1       4.044   4.155  18.847  0.00  0.00    +0.000 N 
ATOM     13  C   UNL     1       3.325   3.737  17.738  0.00  0.00    +0.000 A 
ATOM     14  N   UNL     1       3.765   3.719  16.520  0.00  0.00    +0.000 NA
ATOM     15  C   UNL     1       5.048   4.138  16.384  0.00  0.00    +0.000 A 
ATOM     16  S   UNL     1       5.825   4.184  14.865  0.00  0.00    +0.000 S 
ATOM     17  C   UNL     1       7.281   4.766  15.556  0.00  0.00    +0.000 A 
ATOM     18  C   UNL     1       7.177   4.929  16.920  0.00  0.00    +0.000 A 
ATOM     19  C   UNL     1       5.884   4.559  17.396  0.00  0.00    +0.000 A 
ATOM     20  C   UNL     1       5.370   4.563  18.749  0.00  0.00    +0.000 A 
ATOM     21  O   UNL     1       6.049   4.884  19.722  0.00  0.00    +0.000 OA
ENDBRANCH  11  12
ENDBRANCH   8  11
ENDBRANCH   1   9
BRANCH   4  22
ATOM     22  S   UNL     1      -0.408  11.479  20.594  0.00  0.00    +0.000 S 
ATOM     23  O   UNL     1       0.600  12.509  20.424  0.00  0.00    +0.000 OA
ATOM     24  O   UNL     1      -1.600  11.489  19.774  0.00  0.00    +0.000 OA
BRANCH  22  25
ATOM     25  N   UNL     1      -0.799  11.506  22.213  0.00  0.00    +0.000 N 
ATOM     26  C   UNL     1      -1.420  12.670  22.653  0.00  0.00    +0.000 A 
ATOM     27  N   UNL     1      -2.727  12.814  22.426  0.00  0.00    +0.000 NA
ATOM     28  C   UNL     1      -3.293  13.877  23.033  0.00  0.00    +0.000 A 
ATOM     29  C   UNL     1      -2.594  14.773  23.813  0.00  0.00    +0.000 A 
ATOM     30  C   UNL     1      -1.248  14.523  23.946  0.00  0.00    +0.000 A 
ATOM     31  N   UNL     1      -0.636  13.457  23.397  0.00  0.00    +0.000 NA
ATOM     32  H   UNL     1       0.030  11.312  22.763  0.00  0.00    +0.000 HD
ENDBRANCH  22  25
ENDBRANCH   4  22
TORSDOF 5
ENDMDL
