MODEL 1
REMARK VINA RESULT:      -8.0      0.000      0.000
REMARK  Name = 
REMARK  3 active torsions:
REMARK  status: ('A' for Active; 'I' for Inactive)
REMARK    1  A    between atoms: C_4  and  N_5
REMARK    2  A    between atoms: N_10  and  C_11
REMARK    3  A    between atoms: C_11  and  C_12
REMARK                            x       y       z     vdW  Elec       q    Type
REMARK                         _______ _______ _______ _____ _____    ______ ____
ROOT
ATOM      1  N   UNL     1       1.398   8.757  19.759  0.00  0.00    +0.000 N 
ATOM      2  C   UNL     1       1.724   9.369  18.562  0.00  0.00    +0.000 A 
ATOM      3  N   UNL     1       2.503   8.636  17.798  0.00  0.00    +0.000 NA
ATOM      4  C   UNL     1       2.655   7.460  18.500  0.00  0.00    +0.000 A 
ATOM      5  C   UNL     1       3.366   6.287  18.188  0.00  0.00    +0.000 A 
ATOM      6  N   UNL     1       4.187   6.230  17.073  0.00  0.00    +0.000 N 
ATOM      7  N   UNL     1       3.261   5.237  19.041  0.00  0.00    +0.000 NA
ATOM      8  C   UNL     1       2.522   5.387  20.161  0.00  0.00    +0.000 A 
ATOM      9  N   UNL     1       1.856   6.476  20.583  0.00  0.00    +0.000 NA
ATOM     10  C   UNL     1       1.968   7.488  19.703  0.00  0.00    +0.000 A 
ATOM     11  H   UNL     1       4.049   7.013  16.441  0.00  0.00    +0.000 HD
ENDROOT
BRANCH   1  15
ATOM     12  C   UNL     1      -0.777  10.539  22.910  0.00  0.00    +0.000 A 
ATOM     13  C   UNL     1      -0.936  10.999  21.609  0.00  0.00    +0.000 A 
ATOM     14  C   UNL     1      -0.215  10.414  20.564  0.00  0.00    +0.000 A 
ATOM     15  C   UNL     1       0.655   9.344  20.818  0.00  0.00    +0.000 A 
ATOM     16  C   UNL     1       0.803   8.881  22.135  0.00  0.00    +0.000 A 
ATOM     17  C   UNL     1       0.098   9.489  23.177  0.00  0.00    +0.000 A 
ENDBRANCH   1  15
BRANCH   6  18
ATOM     18  C   UNL     1       4.446   4.951  16.451  0.00  0.00    +0.000 C 
BRANCH  18  19
ATOM     19  C   UNL     1       5.682   4.943  15.611  0.00  0.00    +0.000 A 
ATOM     20  C   UNL     1       6.933   5.558  15.849  0.00  0.00    +0.000 A 
ATOM     21  N   UNL     1       7.790   5.392  14.835  0.00  0.00    +0.000 NA
ATOM     22  N   UNL     1       7.084   4.670  13.946  0.00  0.00    +0.000 N 
ATOM     23  C   UNL     1       5.855   4.306  14.396  0.00  0.00    +0.000 A 
ATOM     24  C   UNL     1       4.986   3.392  13.626  0.00  0.00    +0.000 C 
ATOM     25  C   UNL     1       5.173   3.554  12.125  0.00  0.00    +0.000 C 
ATOM     26  C   UNL     1       6.614   3.770  11.646  0.00  0.00    +0.000 C 
ATOM     27  C   UNL     1       7.610   4.399  12.630  0.00  0.00    +0.000 C 
ENDBRANCH  18  19
ENDBRANCH   6  18
TORSDOF 3
ENDMDL
MODEL 2
REMARK VINA RESULT:      -7.9      3.232      5.722
REMARK  Name = 
REMARK  3 active torsions:
REMARK  status: ('A' for Active; 'I' for Inactive)
REMARK    1  A    between atoms: C_4  and  N_5
REMARK    2  A    between atoms: N_10  and  C_11
REMARK    3  A    between atoms: C_11  and  C_12
REMARK                            x       y       z     vdW  Elec       q    Type
REMARK                         _______ _______ _______ _____ _____    ______ ____
ROOT
ATOM      1  N   UNL     1      -0.831  11.243  22.435  0.00  0.00    +0.000 N 
ATOM      2  C   UNL     1      -0.322  10.107  23.038  0.00  0.00    +0.000 A 
ATOM      3  N   UNL     1       0.306   9.311  22.202  0.00  0.00    +0.000 NA
ATOM      4  C   UNL     1       0.256   9.979  20.997  0.00  0.00    +0.000 A 
ATOM      5  C   UNL     1       0.767   9.638  19.732  0.00  0.00    +0.000 A 
ATOM      6  N   UNL     1       1.329   8.391  19.508  0.00  0.00    +0.000 N 
ATOM      7  N   UNL     1       0.643  10.546  18.732  0.00  0.00    +0.000 NA
ATOM      8  C   UNL     1      -0.001  11.705  18.989  0.00  0.00    +0.000 A 
ATOM      9  N   UNL     1      -0.576  12.104  20.137  0.00  0.00    +0.000 NA
ATOM     10  C   UNL     1      -0.417  11.186  21.108  0.00  0.00    +0.000 A 
ATOM     11  H   UNL     1       1.506   7.877  20.366  0.00  0.00    +0.000 HD
ENDROOT
BRANCH   1  15
ATOM     12  C   UNL     1      -3.196  14.168  24.357  0.00  0.00    +0.000 A 
ATOM     13  C   UNL     1      -1.903  14.476  23.952  0.00  0.00    +0.000 A 
ATOM     14  C   UNL     1      -1.116  13.509  23.320  0.00  0.00    +0.000 A 
ATOM     15  C   UNL     1      -1.634  12.231  23.068  0.00  0.00    +0.000 A 
ATOM     16  C   UNL     1      -2.944  11.932  23.472  0.00  0.00    +0.000 A 
ATOM     17  C   UNL     1      -3.714  12.896  24.127  0.00  0.00    +0.000 A 
ENDBRANCH   1  15
BRANCH   6  18
ATOM     18  C   UNL     1       2.317   8.239  18.462  0.00  0.00    +0.000 C 
BRANCH  18  19
ATOM     19  C   UNL     1       3.004   6.912  18.489  0.00  0.00    +0.000 A 
ATOM     20  C   UNL     1       4.070   6.437  17.690  0.00  0.00    +0.000 A 
ATOM     21  N   UNL     1       4.382   5.163  17.952  0.00  0.00    +0.000 NA
ATOM     22  N   UNL     1       3.512   4.822  18.919  0.00  0.00    +0.000 N 
ATOM     23  C   UNL     1       2.727   5.852  19.332  0.00  0.00    +0.000 A 
ATOM     24  C   UNL     1       1.809   5.716  20.482  0.00  0.00    +0.000 C 
ATOM     25  C   UNL     1       1.251   4.306  20.604  0.00  0.00    +0.000 C 
ATOM     26  C   UNL     1       2.235   3.166  20.315  0.00  0.00    +0.000 C 
ATOM     27  C   UNL     1       3.420   3.459  19.384  0.00  0.00    +0.000 C 
ENDBRANCH  18  19
ENDBRANCH   6  18
TORSDOF 3
ENDMDL
MODEL 3
REMARK VINA RESULT:      -7.9      2.407      4.849
REMARK  Name = 
REMARK  3 active torsions:
REMARK  status: ('A' for Active; 'I' for Inactive)
REMARK    1  A    between atoms: C_4  and  N_5
REMARK    2  A    between atoms: N_10  and  C_11
REMARK    3  A    between atoms: C_11  and  C_12
REMARK                            x       y       z     vdW  Elec       q    Type
REMARK                         _______ _______ _______ _____ _____    ______ ____
ROOT
ATOM      1  N   UNL     1      -0.668  11.139  22.378  0.00  0.00    +0.000 N 
ATOM      2  C   UNL     1      -0.216   9.997  23.014  0.00  0.00    +0.000 A 
ATOM      3  N   UNL     1       0.419   9.172  22.212  0.00  0.00    +0.000 NA
ATOM      4  C   UNL     1       0.435   9.825  20.998  0.00  0.00    +0.000 A 
ATOM      5  C   UNL     1       0.984   9.452  19.758  0.00  0.00    +0.000 A 
ATOM      6  N   UNL     1       1.517   8.186  19.571  0.00  0.00    +0.000 N 
ATOM      7  N   UNL     1       0.926  10.350  18.743  0.00  0.00    +0.000 NA
ATOM      8  C   UNL     1       0.307  11.530  18.961  0.00  0.00    +0.000 A 
ATOM      9  N   UNL     1      -0.299  11.961  20.080  0.00  0.00    +0.000 NA
ATOM     10  C   UNL     1      -0.205  11.053  21.068  0.00  0.00    +0.000 A 
ATOM     11  H   UNL     1       1.646   7.679  20.441  0.00  0.00    +0.000 HD
ENDROOT
BRANCH   1  15
ATOM     12  C   UNL     1      -3.055  14.177  24.083  0.00  0.00    +0.000 A 
ATOM     13  C   UNL     1      -3.580  12.904  23.897  0.00  0.00    +0.000 A 
ATOM     14  C   UNL     1      -2.794  11.897  23.330  0.00  0.00    +0.000 A 
ATOM     15  C   UNL     1      -1.464  12.158  22.966  0.00  0.00    +0.000 A 
ATOM     16  C   UNL     1      -0.942  13.446  23.166  0.00  0.00    +0.000 A 
ATOM     17  C   UNL     1      -1.742  14.453  23.709  0.00  0.00    +0.000 A 
ENDBRANCH   1  15
BRANCH   6  18
ATOM     18  C   UNL     1       2.539   7.991  18.567  0.00  0.00    +0.000 C 
BRANCH  18  19
ATOM     19  C   UNL     1       2.848   6.551  18.311  0.00  0.00    +0.000 A 
ATOM     20  C   UNL     1       2.242   5.393  18.852  0.00  0.00    +0.000 A 
ATOM     21  N   UNL     1       2.831   4.264  18.441  0.00  0.00    +0.000 NA
ATOM     22  N   UNL     1       3.817   4.702  17.638  0.00  0.00    +0.000 N 
ATOM     23  C   UNL     1       3.815   6.049  17.461  0.00  0.00    +0.000 A 
ATOM     24  C   UNL     1       4.728   6.707  16.502  0.00  0.00    +0.000 C 
ATOM     25  C   UNL     1       6.058   5.978  16.386  0.00  0.00    +0.000 C 
ATOM     26  C   UNL     1       5.987   4.446  16.395  0.00  0.00    +0.000 C 
ATOM     27  C   UNL     1       4.794   3.787  17.100  0.00  0.00    +0.000 C 
ENDBRANCH  18  19
ENDBRANCH   6  18
TORSDOF 3
ENDMDL
MODEL 4
REMARK VINA RESULT:      -7.8      3.824      9.074
REMARK  Name = 
REMARK  3 active torsions:
REMARK  status: ('A' for Active; 'I' for Inactive)
REMARK    1  A    between atoms: C_4  and  N_5
REMARK    2  A    between atoms: N_10  and  C_11
REMARK    3  A    between atoms: C_11  and  C_12
REMARK                            x       y       z     vdW  Elec       q    Type
REMARK                         _______ _______ _______ _____ _____    ______ ____
ROOT
ATOM      1  N   UNL     1       2.783   6.991  18.517  0.00  0.00    +0.000 N 
ATOM      2  C   UNL     1       2.972   7.766  17.387  0.00  0.00    +0.000 A 
ATOM      3  N   UNL     1       2.328   8.910  17.428  0.00  0.00    +0.000 NA
ATOM      4  C   UNL     1       1.727   8.916  18.668  0.00  0.00    +0.000 A 
ATOM      5  C   UNL     1       0.915   9.880  19.294  0.00  0.00    +0.000 A 
ATOM      6  N   UNL     1       0.479  10.997  18.601  0.00  0.00    +0.000 N 
ATOM      7  N   UNL     1       0.533   9.650  20.575  0.00  0.00    +0.000 NA
ATOM      8  C   UNL     1       0.911   8.496  21.165  0.00  0.00    +0.000 A 
ATOM      9  N   UNL     1       1.630   7.487  20.641  0.00  0.00    +0.000 NA
ATOM     10  C   UNL     1       2.005   7.759  19.378  0.00  0.00    +0.000 A 
ATOM     11  H   UNL     1       0.963  11.129  17.718  0.00  0.00    +0.000 HD
ENDROOT
BRANCH   1  15
ATOM     12  C   UNL     1       4.266   3.072  19.053  0.00  0.00    +0.000 A 
ATOM     13  C   UNL     1       5.075   4.166  19.337  0.00  0.00    +0.000 A 
ATOM     14  C   UNL     1       4.589   5.464  19.157  0.00  0.00    +0.000 A 
ATOM     15  C   UNL     1       3.275   5.672  18.712  0.00  0.00    +0.000 A 
ATOM     16  C   UNL     1       2.463   4.560  18.437  0.00  0.00    +0.000 A 
ATOM     17  C   UNL     1       2.966   3.267  18.594  0.00  0.00    +0.000 A 
ENDBRANCH   1  15
BRANCH   6  18
ATOM     18  C   UNL     1       0.159  12.203  19.334  0.00  0.00    +0.000 C 
BRANCH  18  19
ATOM     19  C   UNL     1      -1.307  12.384  19.561  0.00  0.00    +0.000 A 
ATOM     20  C   UNL     1      -1.980  12.976  20.655  0.00  0.00    +0.000 A 
ATOM     21  N   UNL     1      -3.311  12.898  20.545  0.00  0.00    +0.000 NA
ATOM     22  N   UNL     1      -3.489  12.252  19.378  0.00  0.00    +0.000 N 
ATOM     23  C   UNL     1      -2.331  12.000  18.715  0.00  0.00    +0.000 A 
ATOM     24  C   UNL     1      -2.326  11.429  17.351  0.00  0.00    +0.000 C 
ATOM     25  C   UNL     1      -3.495  10.482  17.124  0.00  0.00    +0.000 C 
ATOM     26  C   UNL     1      -4.835  10.911  17.732  0.00  0.00    +0.000 C 
ATOM     27  C   UNL     1      -4.805  11.833  18.958  0.00  0.00    +0.000 C 
ENDBRANCH  18  19
ENDBRANCH   6  18
TORSDOF 3
ENDMDL
MODEL 5
REMARK VINA RESULT:      -7.8      3.031      4.121
REMARK  Name = 
REMARK  3 active torsions:
REMARK  status: ('A' for Active; 'I' for Inactive)
REMARK    1  A    between atoms: C_4  and  N_5
REMARK    2  A    between atoms: N_10  and  C_11
REMARK    3  A    between atoms: C_11  and  C_12
REMARK                            x       y       z     vdW  Elec       q    Type
REMARK                         _______ _______ _______ _____ _____    ______ ____
ROOT
ATOM      1  N   UNL     1       0.716   9.933  21.156  0.00  0.00    +0.000 N 
ATOM      2  C   UNL     1       0.875   8.780  21.904  0.00  0.00    +0.000 A 
ATOM      3  N   UNL     1       1.310   7.759  21.199  0.00  0.00    +0.000 NA
ATOM      4  C   UNL     1       1.499   8.276  19.936  0.00  0.00    +0.000 A 
ATOM      5  C   UNL     1       1.965   7.672  18.754  0.00  0.00    +0.000 A 
ATOM      6  N   UNL     1       2.186   6.306  18.695  0.00  0.00    +0.000 N 
ATOM      7  N   UNL     1       2.137   8.462  17.665  0.00  0.00    +0.000 NA
ATOM      8  C   UNL     1       1.811   9.770  17.757  0.00  0.00    +0.000 A 
ATOM      9  N   UNL     1       1.306  10.431  18.813  0.00  0.00    +0.000 NA
ATOM     10  C   UNL     1       1.167   9.620  19.877  0.00  0.00    +0.000 A 
ATOM     11  H   UNL     1       2.177   5.864  19.610  0.00  0.00    +0.000 HD
ENDROOT
BRANCH   1  15
ATOM     12  C   UNL     1      -0.859  13.582  22.584  0.00  0.00    +0.000 A 
ATOM     13  C   UNL     1       0.168  13.588  21.648  0.00  0.00    +0.000 A 
ATOM     14  C   UNL     1       0.695  12.382  21.176  0.00  0.00    +0.000 A 
ATOM     15  C   UNL     1       0.174  11.160  21.626  0.00  0.00    +0.000 A 
ATOM     16  C   UNL     1      -0.870  11.165  22.564  0.00  0.00    +0.000 A 
ATOM     17  C   UNL     1      -1.372  12.374  23.050  0.00  0.00    +0.000 A 
ENDBRANCH   1  15
BRANCH   6  18
ATOM     18  C   UNL     1       3.149   5.786  17.750  0.00  0.00    +0.000 C 
BRANCH  18  19
ATOM     19  C   UNL     1       4.462   5.441  18.375  0.00  0.00    +0.000 A 
ATOM     20  C   UNL     1       4.761   4.470  19.358  0.00  0.00    +0.000 A 
ATOM     21  N   UNL     1       6.046   4.492  19.730  0.00  0.00    +0.000 NA
ATOM     22  N   UNL     1       6.569   5.480  18.982  0.00  0.00    +0.000 N 
ATOM     23  C   UNL     1       5.687   6.019  18.100  0.00  0.00    +0.000 A 
ATOM     24  C   UNL     1       6.108   7.016  17.093  0.00  0.00    +0.000 C 
ATOM     25  C   UNL     1       7.233   7.903  17.603  0.00  0.00    +0.000 C 
ATOM     26  C   UNL     1       8.314   7.205  18.437  0.00  0.00    +0.000 C 
ATOM     27  C   UNL     1       7.925   5.927  19.192  0.00  0.00    +0.000 C 
ENDBRANCH  18  19
ENDBRANCH   6  18
TORSDOF 3
ENDMDL
MODEL 6
REMARK VINA RESULT:      -7.8      3.658      4.836
REMARK  Name = 
REMARK  3 active torsions:
REMARK  status: ('A' for Active; 'I' for Inactive)
REMARK    1  A    between atoms: C_4  and  N_5
REMARK    2  A    between atoms: N_10  and  C_11
REMARK    3  A    between atoms: C_11  and  C_12
REMARK                            x       y       z     vdW  Elec       q    Type
REMARK                         _______ _______ _______ _____ _____    ______ ____
ROOT
ATOM      1  N   UNL     1      -0.200  10.680  21.767  0.00  0.00    +0.000 N 
ATOM      2  C   UNL     1       0.379   9.790  22.654  0.00  0.00    +0.000 A 
ATOM      3  N   UNL     1       1.079   8.848  22.063  0.00  0.00    +0.000 NA
ATOM      4  C   UNL     1       1.003   9.161  20.723  0.00  0.00    +0.000 A 
ATOM      5  C   UNL     1       1.563   8.531  19.597  0.00  0.00    +0.000 A 
ATOM      6  N   UNL     1       2.218   7.316  19.717  0.00  0.00    +0.000 N 
ATOM      7  N   UNL     1       1.392   9.124  18.389  0.00  0.00    +0.000 NA
ATOM      8  C   UNL     1       0.660  10.257  18.323  0.00  0.00    +0.000 A 
ATOM      9  N   UNL     1       0.035  10.906  19.321  0.00  0.00    +0.000 NA
ATOM     10  C   UNL     1       0.243  10.299  20.504  0.00  0.00    +0.000 A 
ATOM     11  H   UNL     1       2.416   7.067  20.682  0.00  0.00    +0.000 HD
ENDROOT
BRANCH   1  15
ATOM     12  C   UNL     1      -2.795  13.844  22.813  0.00  0.00    +0.000 A 
ATOM     13  C   UNL     1      -1.880  14.008  21.780  0.00  0.00    +0.000 A 
ATOM     14  C   UNL     1      -1.017  12.965  21.434  0.00  0.00    +0.000 A 
ATOM     15  C   UNL     1      -1.085  11.738  22.110  0.00  0.00    +0.000 A 
ATOM     16  C   UNL     1      -2.018  11.579  23.146  0.00  0.00    +0.000 A 
ATOM     17  C   UNL     1      -2.859  12.636  23.503  0.00  0.00    +0.000 A 
ENDBRANCH   1  15
BRANCH   6  18
ATOM     18  C   UNL     1       3.234   6.962  18.750  0.00  0.00    +0.000 C 
BRANCH  18  19
ATOM     19  C   UNL     1       3.824   5.609  18.982  0.00  0.00    +0.000 A 
ATOM     20  C   UNL     1       5.174   5.241  19.188  0.00  0.00    +0.000 A 
ATOM     21  N   UNL     1       5.337   3.917  19.294  0.00  0.00    +0.000 NA
ATOM     22  N   UNL     1       4.088   3.438  19.153  0.00  0.00    +0.000 N 
ATOM     23  C   UNL     1       3.142   4.408  19.050  0.00  0.00    +0.000 A 
ATOM     24  C   UNL     1       1.699   4.087  19.032  0.00  0.00    +0.000 C 
ATOM     25  C   UNL     1       1.420   2.750  18.364  0.00  0.00    +0.000 C 
ATOM     26  C   UNL     1       2.415   1.624  18.670  0.00  0.00    +0.000 C 
ATOM     27  C   UNL     1       3.847   2.018  19.058  0.00  0.00    +0.000 C 
ENDBRANCH  18  19
ENDBRANCH   6  18
TORSDOF 3
ENDMDL
MODEL 7
REMARK VINA RESULT:      -7.8      3.780      9.239
REMARK  Name = 
REMARK  3 active torsions:
REMARK  status: ('A' for Active; 'I' for Inactive)
REMARK    1  A    between atoms: C_4  and  N_5
REMARK    2  A    between atoms: N_10  and  C_11
REMARK    3  A    between atoms: C_11  and  C_12
REMARK                            x       y       z     vdW  Elec       q    Type
REMARK                         _______ _______ _______ _____ _____    ______ ____
ROOT
ATOM      1  N   UNL     1       2.643   7.132  18.548  0.00  0.00    +0.000 N 
ATOM      2  C   UNL     1       2.757   7.995  17.474  0.00  0.00    +0.000 A 
ATOM      3  N   UNL     1       2.072   9.106  17.624  0.00  0.00    +0.000 NA
ATOM      4  C   UNL     1       1.520   8.996  18.882  0.00  0.00    +0.000 A 
ATOM      5  C   UNL     1       0.698   9.878  19.607  0.00  0.00    +0.000 A 
ATOM      6  N   UNL     1       0.193  11.024  19.016  0.00  0.00    +0.000 N 
ATOM      7  N   UNL     1       0.376   9.539  20.881  0.00  0.00    +0.000 NA
ATOM      8  C   UNL     1       0.820   8.361  21.368  0.00  0.00    +0.000 A 
ATOM      9  N   UNL     1       1.556   7.424  20.745  0.00  0.00    +0.000 NA
ATOM     10  C   UNL     1       1.870   7.803  19.493  0.00  0.00    +0.000 A 
ATOM     11  H   UNL     1       0.636  11.240  18.129  0.00  0.00    +0.000 HD
ENDROOT
BRANCH   1  15
ATOM     12  C   UNL     1       4.251   3.236  18.822  0.00  0.00    +0.000 A 
ATOM     13  C   UNL     1       2.970   3.425  18.317  0.00  0.00    +0.000 A 
ATOM     14  C   UNL     1       2.433   4.713  18.229  0.00  0.00    +0.000 A 
ATOM     15  C   UNL     1       3.192   5.824  18.626  0.00  0.00    +0.000 A 
ATOM     16  C   UNL     1       4.487   5.623  19.126  0.00  0.00    +0.000 A 
ATOM     17  C   UNL     1       5.006   4.331  19.236  0.00  0.00    +0.000 A 
ENDBRANCH   1  15
BRANCH   6  18
ATOM     18  C   UNL     1      -0.144  12.159  19.848  0.00  0.00    +0.000 C 
BRANCH  18  19
ATOM     19  C   UNL     1      -1.616  12.381  19.975  0.00  0.00    +0.000 A 
ATOM     20  C   UNL     1      -2.350  12.948  21.043  0.00  0.00    +0.000 A 
ATOM     21  N   UNL     1      -3.671  12.923  20.831  0.00  0.00    +0.000 NA
ATOM     22  N   UNL     1      -3.781  12.337  19.625  0.00  0.00    +0.000 N 
ATOM     23  C   UNL     1      -2.585  12.073  19.038  0.00  0.00    +0.000 A 
ATOM     24  C   UNL     1      -2.495  11.564  17.653  0.00  0.00    +0.000 C 
ATOM     25  C   UNL     1      -3.674  10.671  17.295  0.00  0.00    +0.000 C 
ATOM     26  C   UNL     1      -5.042  11.120  17.822  0.00  0.00    +0.000 C 
ATOM     27  C   UNL     1      -5.074  11.985  19.090  0.00  0.00    +0.000 C 
ENDBRANCH  18  19
ENDBRANCH   6  18
TORSDOF 3
ENDMDL
MODEL 8
REMARK VINA RESULT:      -7.7      3.611      5.954
REMARK  Name = 
REMARK  3 active torsions:
REMARK  status: ('A' for Active; 'I' for Inactive)
REMARK    1  A    between atoms: C_4  and  N_5
REMARK    2  A    between atoms: N_10  and  C_11
REMARK    3  A    between atoms: C_11  and  C_12
REMARK                            x       y       z     vdW  Elec       q    Type
REMARK                         _______ _______ _______ _____ _____    ______ ____
ROOT
ATOM      1  N   UNL     1      -1.734  12.044  20.255  0.00  0.00    +0.000 N 
ATOM      2  C   UNL     1      -1.371  11.624  18.989  0.00  0.00    +0.000 A 
ATOM      3  N   UNL     1      -0.498  10.643  18.996  0.00  0.00    +0.000 NA
ATOM      4  C   UNL     1      -0.315  10.363  20.333  0.00  0.00    +0.000 A 
ATOM      5  C   UNL     1       0.490   9.402  20.972  0.00  0.00    +0.000 A 
ATOM      6  N   UNL     1       1.385   8.632  20.246  0.00  0.00    +0.000 N 
ATOM      7  N   UNL     1       0.398   9.294  22.320  0.00  0.00    +0.000 NA
ATOM      8  C   UNL     1      -0.421  10.140  22.982  0.00  0.00    +0.000 A 
ATOM      9  N   UNL     1      -1.183  11.127  22.479  0.00  0.00    +0.000 NA
ATOM     10  C   UNL     1      -1.080  11.190  21.140  0.00  0.00    +0.000 A 
ATOM     11  H   UNL     1       1.238   8.694  19.243  0.00  0.00    +0.000 HD
ENDROOT
BRANCH   1  15
ATOM     12  C   UNL     1      -4.250  15.303  21.197  0.00  0.00    +0.000 A 
ATOM     13  C   UNL     1      -2.869  15.458  21.232  0.00  0.00    +0.000 A 
ATOM     14  C   UNL     1      -2.034  14.381  20.925  0.00  0.00    +0.000 A 
ATOM     15  C   UNL     1      -2.582  13.144  20.556  0.00  0.00    +0.000 A 
ATOM     16  C   UNL     1      -3.978  13.000  20.515  0.00  0.00    +0.000 A 
ATOM     17  C   UNL     1      -4.805  14.075  20.849  0.00  0.00    +0.000 A 
ENDBRANCH   1  15
BRANCH   6  18
ATOM     18  C   UNL     1       1.768   7.331  20.750  0.00  0.00    +0.000 C 
BRANCH  18  19
ATOM     19  C   UNL     1       2.263   6.408  19.684  0.00  0.00    +0.000 A 
ATOM     20  C   UNL     1       3.040   6.694  18.538  0.00  0.00    +0.000 A 
ATOM     21  N   UNL     1       3.236   5.619  17.766  0.00  0.00    +0.000 NA
ATOM     22  N   UNL     1       2.580   4.643  18.420  0.00  0.00    +0.000 N 
ATOM     23  C   UNL     1       2.056   5.043  19.608  0.00  0.00    +0.000 A 
ATOM     24  C   UNL     1       1.424   4.085  20.540  0.00  0.00    +0.000 C 
ATOM     25  C   UNL     1       0.732   2.947  19.805  0.00  0.00    +0.000 C 
ATOM     26  C   UNL     1       1.463   2.396  18.575  0.00  0.00    +0.000 C 
ATOM     27  C   UNL     1       2.423   3.335  17.831  0.00  0.00    +0.000 C 
ENDBRANCH  18  19
ENDBRANCH   6  18
TORSDOF 3
ENDMDL
MODEL 9
REMARK VINA RESULT:      -7.7      4.031      6.984
REMARK  Name = 
REMARK  3 active torsions:
REMARK  status: ('A' for Active; 'I' for Inactive)
REMARK    1  A    between atoms: C_4  and  N_5
REMARK    2  A    between atoms: N_10  and  C_11
REMARK    3  A    between atoms: C_11  and  C_12
REMARK                            x       y       z     vdW  Elec       q    Type
REMARK                         _______ _______ _______ _____ _____    ______ ____
ROOT
ATOM      1  N   UNL     1      -3.828  11.178  18.105  0.00  0.00    +0.000 N 
ATOM      2  C   UNL     1      -3.573  10.070  17.318  0.00  0.00    +0.000 A 
ATOM      3  N   UNL     1      -2.296   9.767  17.244  0.00  0.00    +0.000 NA
ATOM      4  C   UNL     1      -1.682  10.687  18.066  0.00  0.00    +0.000 A 
ATOM      5  C   UNL     1      -0.328  10.861  18.403  0.00  0.00    +0.000 A 
ATOM      6  N   UNL     1       0.661  10.122  17.773  0.00  0.00    +0.000 N 
ATOM      7  N   UNL     1      -0.021  11.810  19.323  0.00  0.00    +0.000 NA
ATOM      8  C   UNL     1      -1.020  12.564  19.830  0.00  0.00    +0.000 A 
ATOM      9  N   UNL     1      -2.331  12.522  19.534  0.00  0.00    +0.000 NA
ATOM     10  C   UNL     1      -2.597  11.559  18.634  0.00  0.00    +0.000 A 
ATOM     11  H   UNL     1       0.290   9.345  17.234  0.00  0.00    +0.000 HD
ENDROOT
BRANCH   1  15
ATOM     12  C   UNL     1      -7.617  12.959  18.657  0.00  0.00    +0.000 A 
ATOM     13  C   UNL     1      -6.921  12.456  19.749  0.00  0.00    +0.000 A 
ATOM     14  C   UNL     1      -5.668  11.862  19.569  0.00  0.00    +0.000 A 
ATOM     15  C   UNL     1      -5.096  11.792  18.291  0.00  0.00    +0.000 A 
ATOM     16  C   UNL     1      -5.803  12.312  17.196  0.00  0.00    +0.000 A 
ATOM     17  C   UNL     1      -7.066  12.880  17.380  0.00  0.00    +0.000 A 
ENDBRANCH   1  15
BRANCH   6  18
ATOM     18  C   UNL     1       1.908   9.877  18.463  0.00  0.00    +0.000 C 
BRANCH  18  19
ATOM     19  C   UNL     1       1.947   8.557  19.161  0.00  0.00    +0.000 A 
ATOM     20  C   UNL     1       1.319   8.159  20.365  0.00  0.00    +0.000 A 
ATOM     21  N   UNL     1       1.638   6.910  20.724  0.00  0.00    +0.000 NA
ATOM     22  N   UNL     1       2.472   6.510  19.748  0.00  0.00    +0.000 N 
ATOM     23  C   UNL     1       2.621   7.422  18.752  0.00  0.00    +0.000 A 
ATOM     24  C   UNL     1       3.381   7.112  17.522  0.00  0.00    +0.000 C 
ATOM     25  C   UNL     1       4.535   6.158  17.790  0.00  0.00    +0.000 C 
ATOM     26  C   UNL     1       4.254   5.022  18.781  0.00  0.00    +0.000 C 
ATOM     27  C   UNL     1       3.166   5.248  19.840  0.00  0.00    +0.000 C 
ENDBRANCH  18  19
ENDBRANCH   6  18
TORSDOF 3
ENDMDL
