MODEL 1
REMARK VINA RESULT:      -8.6      0.000      0.000
REMARK  Name = 
REMARK  4 active torsions:
REMARK  status: ('A' for Active; 'I' for Inactive)
REMARK    1  A    between atoms: C_2  and  C_3
REMARK    2  A    between atoms: C_3  and  N_4
REMARK    3  A    between atoms: N_16  and  C_17
REMARK    4  A    between atoms: C_17  and  C_18
REMARK                            x       y       z     vdW  Elec       q    Type
REMARK                         _______ _______ _______ _____ _____    ______ ____
ROOT
ATOM      1  O   UNL     1       1.221   3.473  20.597  0.00  0.00    +0.000 OA
ATOM      2  C   UNL     1       2.357   3.781  20.273  0.00  0.00    +0.000 C 
ATOM      3  N   UNL     1       2.796   5.081  20.387  0.00  0.00    +0.000 N 
ATOM      4  H   UNL     1       3.797   5.235  20.398  0.00  0.00    +0.000 HD
ENDROOT
BRANCH   2   5
ATOM      5  C   UNL     1       3.410   2.785  19.766  0.00  0.00    +0.000 C 
BRANCH   5   6
ATOM      6  N   UNL     1       4.314   3.402  18.806  0.00  0.00    +0.000 N 
ATOM      7  N   UNL     1       5.545   3.813  19.322  0.00  0.00    +0.000 N 
ATOM      8  C   UNL     1       6.491   4.446  18.558  0.00  0.00    +0.000 A 
ATOM      9  O   UNL     1       7.487   4.957  19.061  0.00  0.00    +0.000 OA
ATOM     10  C   UNL     1       6.249   4.496  17.107  0.00  0.00    +0.000 A 
ATOM     11  C   UNL     1       7.268   4.928  16.251  0.00  0.00    +0.000 A 
ATOM     12  C   UNL     1       7.065   4.918  14.871  0.00  0.00    +0.000 A 
ATOM     13  C   UNL     1       5.836   4.518  14.347  0.00  0.00    +0.000 A 
ATOM     14  C   UNL     1       4.807   4.122  15.203  0.00  0.00    +0.000 A 
ATOM     15  C   UNL     1       5.022   4.092  16.587  0.00  0.00    +0.000 A 
ATOM     16  C   UNL     1       3.965   3.571  17.479  0.00  0.00    +0.000 A 
ATOM     17  O   UNL     1       2.857   3.290  17.026  0.00  0.00    +0.000 OA
ATOM     18  H   UNL     1       5.632   3.945  20.324  0.00  0.00    +0.000 HD
ENDBRANCH   5   6
ENDBRANCH   2   5
BRANCH   3  19
ATOM     19  C   UNL     1       1.944   6.179  20.813  0.00  0.00    +0.000 C 
BRANCH  19  20
ATOM     20  C   UNL     1       2.041   7.258  19.794  0.00  0.00    +0.000 A 
ATOM     21  N   UNL     1       2.727   7.183  18.671  0.00  0.00    +0.000 NA
ATOM     22  N   UNL     1       2.524   8.334  17.967  0.00  0.00    +0.000 NA
ATOM     23  C   UNL     1       1.717   9.110  18.661  0.00  0.00    +0.000 A 
ATOM     24  N   UNL     1       1.411   8.481  19.847  0.00  0.00    +0.000 N 
ATOM     25  C   UNL     1       0.584   8.987  20.924  0.00  0.00    +0.000 C 
ATOM     26  C   UNL     1       0.798  10.473  21.200  0.00  0.00    +0.000 C 
ATOM     27  C   UNL     1       0.026  11.387  20.246  0.00  0.00    +0.000 C 
ATOM     28  C   UNL     1      -0.091  10.879  18.807  0.00  0.00    +0.000 C 
ATOM     29  C   UNL     1       1.249  10.454  18.218  0.00  0.00    +0.000 C 
ENDBRANCH  19  20
ENDBRANCH   3  19
TORSDOF 4
ENDMDL
MODEL 2
REMARK VINA RESULT:      -8.6      5.699      7.279
REMARK  Name = 
REMARK  4 active torsions:
REMARK  status: ('A' for Active; 'I' for Inactive)
REMARK    1  A    between atoms: C_2  and  C_3
REMARK    2  A    between atoms: C_3  and  N_4
REMARK    3  A    between atoms: N_16  and  C_17
REMARK    4  A    between atoms: C_17  and  C_18
REMARK                            x       y       z     vdW  Elec       q    Type
REMARK                         _______ _______ _______ _____ _____    ______ ____
ROOT
ATOM      1  O   UNL     1       7.900   6.698  18.600  0.00  0.00    +0.000 OA
ATOM      2  C   UNL     1       7.510   7.408  17.686  0.00  0.00    +0.000 C 
ATOM      3  N   UNL     1       7.915   8.719  17.588  0.00  0.00    +0.000 N 
ATOM      4  H   UNL     1       7.820   9.170  16.686  0.00  0.00    +0.000 HD
ENDROOT
BRANCH   2   5
ATOM      5  C   UNL     1       6.596   6.926  16.549  0.00  0.00    +0.000 C 
BRANCH   5   6
ATOM      6  N   UNL     1       5.413   6.249  17.063  0.00  0.00    +0.000 N 
ATOM      7  N   UNL     1       4.373   7.087  17.470  0.00  0.00    +0.000 N 
ATOM      8  C   UNL     1       3.209   6.609  18.012  0.00  0.00    +0.000 A 
ATOM      9  O   UNL     1       2.383   7.357  18.525  0.00  0.00    +0.000 OA
ATOM     10  C   UNL     1       3.002   5.152  17.962  0.00  0.00    +0.000 A 
ATOM     11  C   UNL     1       1.751   4.619  18.295  0.00  0.00    +0.000 A 
ATOM     12  C   UNL     1       1.531   3.246  18.188  0.00  0.00    +0.000 A 
ATOM     13  C   UNL     1       2.567   2.401  17.791  0.00  0.00    +0.000 A 
ATOM     14  C   UNL     1       3.825   2.927  17.495  0.00  0.00    +0.000 A 
ATOM     15  C   UNL     1       4.037   4.311  17.561  0.00  0.00    +0.000 A 
ATOM     16  C   UNL     1       5.339   4.870  17.144  0.00  0.00    +0.000 A 
ATOM     17  O   UNL     1       6.274   4.122  16.867  0.00  0.00    +0.000 OA
ATOM     18  H   UNL     1       4.583   8.058  17.673  0.00  0.00    +0.000 HD
ENDBRANCH   5   6
ENDBRANCH   2   5
BRANCH   3  19
ATOM     19  C   UNL     1       8.750   9.375  18.581  0.00  0.00    +0.000 C 
BRANCH  19  20
ATOM     20  C   UNL     1       8.851  10.814  18.220  0.00  0.00    +0.000 A 
ATOM     21  N   UNL     1       7.997  11.468  17.459  0.00  0.00    +0.000 NA
ATOM     22  N   UNL     1       8.381  12.776  17.410  0.00  0.00    +0.000 NA
ATOM     23  C   UNL     1       9.468  12.919  18.139  0.00  0.00    +0.000 A 
ATOM     24  N   UNL     1       9.824  11.690  18.647  0.00  0.00    +0.000 N 
ATOM     25  C   UNL     1      10.973  11.378  19.474  0.00  0.00    +0.000 C 
ATOM     26  C   UNL     1      12.238  12.117  19.049  0.00  0.00    +0.000 C 
ATOM     27  C   UNL     1      12.312  13.552  19.575  0.00  0.00    +0.000 C 
ATOM     28  C   UNL     1      10.975  14.291  19.644  0.00  0.00    +0.000 C 
ATOM     29  C   UNL     1      10.185  14.210  18.343  0.00  0.00    +0.000 C 
ENDBRANCH  19  20
ENDBRANCH   3  19
TORSDOF 4
ENDMDL
MODEL 3
REMARK VINA RESULT:      -8.4      3.725      9.126
REMARK  Name = 
REMARK  4 active torsions:
REMARK  status: ('A' for Active; 'I' for Inactive)
REMARK    1  A    between atoms: C_2  and  C_3
REMARK    2  A    between atoms: C_3  and  N_4
REMARK    3  A    between atoms: N_16  and  C_17
REMARK    4  A    between atoms: C_17  and  C_18
REMARK                            x       y       z     vdW  Elec       q    Type
REMARK                         _______ _______ _______ _____ _____    ______ ____
ROOT
ATOM      1  O   UNL     1       2.029   9.957  17.402  0.00  0.00    +0.000 OA
ATOM      2  C   UNL     1       1.566   9.724  18.507  0.00  0.00    +0.000 C 
ATOM      3  N   UNL     1       1.774   8.508  19.118  0.00  0.00    +0.000 N 
ATOM      4  H   UNL     1       1.640   8.462  20.122  0.00  0.00    +0.000 HD
ENDROOT
BRANCH   2   5
ATOM      5  C   UNL     1       0.769  10.739  19.340  0.00  0.00    +0.000 C 
BRANCH   5   6
ATOM      6  N   UNL     1      -0.577  10.923  18.816  0.00  0.00    +0.000 N 
ATOM      7  N   UNL     1      -0.859  10.233  17.635  0.00  0.00    +0.000 N 
ATOM      8  C   UNL     1      -2.066  10.331  16.992  0.00  0.00    +0.000 A 
ATOM      9  O   UNL     1      -2.237   9.864  15.871  0.00  0.00    +0.000 OA
ATOM     10  C   UNL     1      -3.143  11.035  17.707  0.00  0.00    +0.000 A 
ATOM     11  C   UNL     1      -4.451  10.982  17.211  0.00  0.00    +0.000 A 
ATOM     12  C   UNL     1      -5.486  11.594  17.918  0.00  0.00    +0.000 A 
ATOM     13  C   UNL     1      -5.212  12.293  19.094  0.00  0.00    +0.000 A 
ATOM     14  C   UNL     1      -3.903  12.377  19.569  0.00  0.00    +0.000 A 
ATOM     15  C   UNL     1      -2.868  11.729  18.883  0.00  0.00    +0.000 A 
ATOM     16  C   UNL     1      -1.503  11.732  19.449  0.00  0.00    +0.000 A 
ATOM     17  O   UNL     1      -1.246  12.410  20.443  0.00  0.00    +0.000 OA
ATOM     18  H   UNL     1      -0.084   9.912  17.064  0.00  0.00    +0.000 HD
ENDBRANCH   5   6
ENDBRANCH   2   5
BRANCH   3  19
ATOM     19  C   UNL     1       2.472   7.402  18.483  0.00  0.00    +0.000 C 
BRANCH  19  20
ATOM     20  C   UNL     1       2.301   6.198  19.338  0.00  0.00    +0.000 A 
ATOM     21  N   UNL     1       1.892   6.208  20.592  0.00  0.00    +0.000 NA
ATOM     22  N   UNL     1       1.795   4.917  21.021  0.00  0.00    +0.000 NA
ATOM     23  C   UNL     1       2.145   4.121  20.032  0.00  0.00    +0.000 A 
ATOM     24  N   UNL     1       2.508   4.893  18.952  0.00  0.00    +0.000 N 
ATOM     25  C   UNL     1       2.992   4.434  17.664  0.00  0.00    +0.000 C 
ATOM     26  C   UNL     1       3.955   3.256  17.769  0.00  0.00    +0.000 C 
ATOM     27  C   UNL     1       3.253   1.907  17.929  0.00  0.00    +0.000 C 
ATOM     28  C   UNL     1       1.973   1.933  18.768  0.00  0.00    +0.000 C 
ATOM     29  C   UNL     1       2.158   2.632  20.108  0.00  0.00    +0.000 C 
ENDBRANCH  19  20
ENDBRANCH   3  19
TORSDOF 4
ENDMDL
MODEL 4
REMARK VINA RESULT:      -8.3      3.639      8.575
REMARK  Name = 
REMARK  4 active torsions:
REMARK  status: ('A' for Active; 'I' for Inactive)
REMARK    1  A    between atoms: C_2  and  C_3
REMARK    2  A    between atoms: C_3  and  N_4
REMARK    3  A    between atoms: N_16  and  C_17
REMARK    4  A    between atoms: C_17  and  C_18
REMARK                            x       y       z     vdW  Elec       q    Type
REMARK                         _______ _______ _______ _____ _____    ______ ____
ROOT
ATOM      1  O   UNL     1       0.891  10.001  22.282  0.00  0.00    +0.000 OA
ATOM      2  C   UNL     1       0.983  10.089  21.068  0.00  0.00    +0.000 C 
ATOM      3  N   UNL     1       1.289   8.987  20.301  0.00  0.00    +0.000 N 
ATOM      4  H   UNL     1       1.065   9.029  19.315  0.00  0.00    +0.000 HD
ENDROOT
BRANCH   2   5
ATOM      5  C   UNL     1       0.727  11.378  20.274  0.00  0.00    +0.000 C 
BRANCH   5   6
ATOM      6  N   UNL     1      -0.566  11.347  19.604  0.00  0.00    +0.000 N 
ATOM      7  N   UNL     1      -1.576  12.094  20.216  0.00  0.00    +0.000 N 
ATOM      8  C   UNL     1      -2.858  12.137  19.735  0.00  0.00    +0.000 A 
ATOM      9  O   UNL     1      -3.769  12.649  20.376  0.00  0.00    +0.000 OA
ATOM     10  C   UNL     1      -3.092  11.527  18.415  0.00  0.00    +0.000 A 
ATOM     11  C   UNL     1      -4.318  11.727  17.770  0.00  0.00    +0.000 A 
ATOM     12  C   UNL     1      -4.523  11.204  16.493  0.00  0.00    +0.000 A 
ATOM     13  C   UNL     1      -3.524  10.449  15.878  0.00  0.00    +0.000 A 
ATOM     14  C   UNL     1      -2.315  10.219  16.537  0.00  0.00    +0.000 A 
ATOM     15  C   UNL     1      -2.092  10.777  17.802  0.00  0.00    +0.000 A 
ATOM     16  C   UNL     1      -0.772  10.619  18.447  0.00  0.00    +0.000 A 
ATOM     17  O   UNL     1       0.081   9.892  17.941  0.00  0.00    +0.000 OA
ATOM     18  H   UNL     1      -1.466  12.350  21.192  0.00  0.00    +0.000 HD
ENDBRANCH   5   6
ENDBRANCH   2   5
BRANCH   3  19
ATOM     19  C   UNL     1       1.602   7.683  20.864  0.00  0.00    +0.000 C 
BRANCH  19  20
ATOM     20  C   UNL     1       2.150   6.832  19.775  0.00  0.00    +0.000 A 
ATOM     21  N   UNL     1       2.761   7.279  18.696  0.00  0.00    +0.000 NA
ATOM     22  N   UNL     1       3.181   6.206  17.965  0.00  0.00    +0.000 NA
ATOM     23  C   UNL     1       2.825   5.107  18.597  0.00  0.00    +0.000 A 
ATOM     24  N   UNL     1       2.136   5.456  19.737  0.00  0.00    +0.000 N 
ATOM     25  C   UNL     1       1.533   4.566  20.709  0.00  0.00    +0.000 C 
ATOM     26  C   UNL     1       0.850   3.357  20.076  0.00  0.00    +0.000 C 
ATOM     27  C   UNL     1       1.818   2.228  19.718  0.00  0.00    +0.000 C 
ATOM     28  C   UNL     1       3.194   2.680  19.226  0.00  0.00    +0.000 C 
ATOM     29  C   UNL     1       3.114   3.724  18.119  0.00  0.00    +0.000 C 
ENDBRANCH  19  20
ENDBRANCH   3  19
TORSDOF 4
ENDMDL
MODEL 5
REMARK VINA RESULT:      -8.2      3.906      9.129
REMARK  Name = 
REMARK  4 active torsions:
REMARK  status: ('A' for Active; 'I' for Inactive)
REMARK    1  A    between atoms: C_2  and  C_3
REMARK    2  A    between atoms: C_3  and  N_4
REMARK    3  A    between atoms: N_16  and  C_17
REMARK    4  A    between atoms: C_17  and  C_18
REMARK                            x       y       z     vdW  Elec       q    Type
REMARK                         _______ _______ _______ _____ _____    ______ ____
ROOT
ATOM      1  O   UNL     1      -0.353   9.288  20.849  0.00  0.00    +0.000 OA
ATOM      2  C   UNL     1       0.466   9.650  20.019  0.00  0.00    +0.000 C 
ATOM      3  N   UNL     1       1.543   8.856  19.697  0.00  0.00    +0.000 N 
ATOM      4  H   UNL     1       2.014   9.043  18.819  0.00  0.00    +0.000 HD
ENDROOT
BRANCH   2   5
ATOM      5  C   UNL     1       0.367  10.961  19.225  0.00  0.00    +0.000 C 
BRANCH   5   6
ATOM      6  N   UNL     1      -0.970  11.161  18.685  0.00  0.00    +0.000 N 
ATOM      7  N   UNL     1      -1.187  10.628  17.412  0.00  0.00    +0.000 N 
ATOM      8  C   UNL     1      -2.377  10.764  16.747  0.00  0.00    +0.000 A 
ATOM      9  O   UNL     1      -2.495  10.449  15.568  0.00  0.00    +0.000 OA
ATOM     10  C   UNL     1      -3.505  11.320  17.513  0.00  0.00    +0.000 A 
ATOM     11  C   UNL     1      -4.795  11.283  16.969  0.00  0.00    +0.000 A 
ATOM     12  C   UNL     1      -5.876  11.751  17.716  0.00  0.00    +0.000 A 
ATOM     13  C   UNL     1      -5.668  12.293  18.984  0.00  0.00    +0.000 A 
ATOM     14  C   UNL     1      -4.377  12.364  19.511  0.00  0.00    +0.000 A 
ATOM     15  C   UNL     1      -3.295  11.857  18.781  0.00  0.00    +0.000 A 
ATOM     16  C   UNL     1      -1.949  11.838  19.388  0.00  0.00    +0.000 A 
ATOM     17  O   UNL     1      -1.752  12.383  20.473  0.00  0.00    +0.000 OA
ATOM     18  H   UNL     1      -0.382  10.419  16.830  0.00  0.00    +0.000 HD
ENDBRANCH   5   6
ENDBRANCH   2   5
BRANCH   3  19
ATOM     19  C   UNL     1       1.835   7.595  20.359  0.00  0.00    +0.000 C 
BRANCH  19  20
ATOM     20  C   UNL     1       2.391   6.661  19.345  0.00  0.00    +0.000 A 
ATOM     21  N   UNL     1       3.092   7.017  18.287  0.00  0.00    +0.000 NA
ATOM     22  N   UNL     1       3.485   5.887  17.633  0.00  0.00    +0.000 NA
ATOM     23  C   UNL     1       3.023   4.843  18.289  0.00  0.00    +0.000 A 
ATOM     24  N   UNL     1       2.292   5.288  19.367  0.00  0.00    +0.000 N 
ATOM     25  C   UNL     1       1.577   4.484  20.339  0.00  0.00    +0.000 C 
ATOM     26  C   UNL     1       0.857   3.290  19.719  0.00  0.00    +0.000 C 
ATOM     27  C   UNL     1       1.771   2.088  19.471  0.00  0.00    +0.000 C 
ATOM     28  C   UNL     1       3.200   2.432  19.047  0.00  0.00    +0.000 C 
ATOM     29  C   UNL     1       3.253   3.424  17.892  0.00  0.00    +0.000 C 
ENDBRANCH  19  20
ENDBRANCH   3  19
TORSDOF 4
ENDMDL
MODEL 6
REMARK VINA RESULT:      -8.2      5.663      7.374
REMARK  Name = 
REMARK  4 active torsions:
REMARK  status: ('A' for Active; 'I' for Inactive)
REMARK    1  A    between atoms: C_2  and  C_3
REMARK    2  A    between atoms: C_3  and  N_4
REMARK    3  A    between atoms: N_16  and  C_17
REMARK    4  A    between atoms: C_17  and  C_18
REMARK                            x       y       z     vdW  Elec       q    Type
REMARK                         _______ _______ _______ _____ _____    ______ ____
ROOT
ATOM      1  O   UNL     1       8.200   6.579  18.728  0.00  0.00    +0.000 OA
ATOM      2  C   UNL     1       7.541   7.306  18.001  0.00  0.00    +0.000 C 
ATOM      3  N   UNL     1       7.845   8.642  17.875  0.00  0.00    +0.000 N 
ATOM      4  H   UNL     1       7.484   9.128  17.062  0.00  0.00    +0.000 HD
ENDROOT
BRANCH   2   5
ATOM      5  C   UNL     1       6.370   6.824  17.131  0.00  0.00    +0.000 C 
BRANCH   5   6
ATOM      6  N   UNL     1       5.394   6.078  17.913  0.00  0.00    +0.000 N 
ATOM      7  N   UNL     1       5.840   4.855  18.418  0.00  0.00    +0.000 N 
ATOM      8  C   UNL     1       5.033   4.015  19.140  0.00  0.00    +0.000 A 
ATOM      9  O   UNL     1       5.381   2.874  19.423  0.00  0.00    +0.000 OA
ATOM     10  C   UNL     1       3.721   4.544  19.549  0.00  0.00    +0.000 A 
ATOM     11  C   UNL     1       2.942   3.829  20.466  0.00  0.00    +0.000 A 
ATOM     12  C   UNL     1       1.728   4.356  20.905  0.00  0.00    +0.000 A 
ATOM     13  C   UNL     1       1.270   5.573  20.399  0.00  0.00    +0.000 A 
ATOM     14  C   UNL     1       2.029   6.268  19.456  0.00  0.00    +0.000 A 
ATOM     15  C   UNL     1       3.268   5.761  19.046  0.00  0.00    +0.000 A 
ATOM     16  C   UNL     1       4.114   6.554  18.129  0.00  0.00    +0.000 A 
ATOM     17  O   UNL     1       3.679   7.588  17.625  0.00  0.00    +0.000 OA
ATOM     18  H   UNL     1       6.652   4.421  17.992  0.00  0.00    +0.000 HD
ENDBRANCH   5   6
ENDBRANCH   2   5
BRANCH   3  19
ATOM     19  C   UNL     1       8.893   9.300  18.638  0.00  0.00    +0.000 C 
BRANCH  19  20
ATOM     20  C   UNL     1       8.914  10.735  18.250  0.00  0.00    +0.000 A 
ATOM     21  N   UNL     1       8.010  11.332  17.498  0.00  0.00    +0.000 NA
ATOM     22  N   UNL     1       8.327  12.656  17.417  0.00  0.00    +0.000 NA
ATOM     23  C   UNL     1       9.423  12.866  18.116  0.00  0.00    +0.000 A 
ATOM     24  N   UNL     1       9.851  11.666  18.636  0.00  0.00    +0.000 N 
ATOM     25  C   UNL     1      11.034  11.426  19.440  0.00  0.00    +0.000 C 
ATOM     26  C   UNL     1      12.251  12.218  18.971  0.00  0.00    +0.000 C 
ATOM     27  C   UNL     1      12.266  13.664  19.470  0.00  0.00    +0.000 C 
ATOM     28  C   UNL     1      10.896  14.338  19.558  0.00  0.00    +0.000 C 
ATOM     29  C   UNL     1      10.080  14.194  18.280  0.00  0.00    +0.000 C 
ENDBRANCH  19  20
ENDBRANCH   3  19
TORSDOF 4
ENDMDL
MODEL 7
REMARK VINA RESULT:      -8.1      6.890      9.426
REMARK  Name = 
REMARK  4 active torsions:
REMARK  status: ('A' for Active; 'I' for Inactive)
REMARK    1  A    between atoms: C_2  and  C_3
REMARK    2  A    between atoms: C_3  and  N_4
REMARK    3  A    between atoms: N_16  and  C_17
REMARK    4  A    between atoms: C_17  and  C_18
REMARK                            x       y       z     vdW  Elec       q    Type
REMARK                         _______ _______ _______ _____ _____    ______ ____
ROOT
ATOM      1  O   UNL     1       7.933  10.478  17.426  0.00  0.00    +0.000 OA
ATOM      2  C   UNL     1       8.567   9.851  18.260  0.00  0.00    +0.000 C 
ATOM      3  N   UNL     1       8.499   8.478  18.313  0.00  0.00    +0.000 N 
ATOM      4  H   UNL     1       9.245   7.993  18.798  0.00  0.00    +0.000 HD
ENDROOT
BRANCH   2   5
ATOM      5  C   UNL     1       9.521  10.492  19.279  0.00  0.00    +0.000 C 
BRANCH   5   6
ATOM      6  N   UNL     1       9.891  11.846  18.889  0.00  0.00    +0.000 N 
ATOM      7  N   UNL     1      10.721  11.940  17.770  0.00  0.00    +0.000 N 
ATOM      8  C   UNL     1      11.191  13.139  17.299  0.00  0.00    +0.000 A 
ATOM      9  O   UNL     1      12.055  13.194  16.430  0.00  0.00    +0.000 OA
ATOM     10  C   UNL     1      10.617  14.357  17.894  0.00  0.00    +0.000 A 
ATOM     11  C   UNL     1      10.886  15.602  17.314  0.00  0.00    +0.000 A 
ATOM     12  C   UNL     1      10.294  16.753  17.836  0.00  0.00    +0.000 A 
ATOM     13  C   UNL     1       9.472  16.668  18.959  0.00  0.00    +0.000 A 
ATOM     14  C   UNL     1       9.233  15.431  19.560  0.00  0.00    +0.000 A 
ATOM     15  C   UNL     1       9.792  14.269  19.013  0.00  0.00    +0.000 A 
ATOM     16  C   UNL     1       9.450  12.953  19.590  0.00  0.00    +0.000 A 
ATOM     17  O   UNL     1       8.787  12.884  20.623  0.00  0.00    +0.000 OA
ATOM     18  H   UNL     1      11.249  11.122  17.487  0.00  0.00    +0.000 HD
ENDBRANCH   5   6
ENDBRANCH   2   5
BRANCH   3  19
ATOM     19  C   UNL     1       7.628   7.686  17.459  0.00  0.00    +0.000 C 
BRANCH  19  20
ATOM     20  C   UNL     1       7.150   6.519  18.246  0.00  0.00    +0.000 A 
ATOM     21  N   UNL     1       7.680   6.095  19.376  0.00  0.00    +0.000 NA
ATOM     22  N   UNL     1       6.934   5.049  19.834  0.00  0.00    +0.000 NA
ATOM     23  C   UNL     1       5.951   4.835  18.984  0.00  0.00    +0.000 A 
ATOM     24  N   UNL     1       6.068   5.724  17.940  0.00  0.00    +0.000 N 
ATOM     25  C   UNL     1       5.221   5.821  16.767  0.00  0.00    +0.000 C 
ATOM     26  C   UNL     1       4.809   4.463  16.209  0.00  0.00    +0.000 C 
ATOM     27  C   UNL     1       3.626   3.834  16.947  0.00  0.00    +0.000 C 
ATOM     28  C   UNL     1       3.588   4.091  18.455  0.00  0.00    +0.000 C 
ATOM     29  C   UNL     1       4.910   3.779  19.144  0.00  0.00    +0.000 C 
ENDBRANCH  19  20
ENDBRANCH   3  19
TORSDOF 4
ENDMDL
MODEL 8
REMARK VINA RESULT:      -8.1      5.451      6.848
REMARK  Name = 
REMARK  4 active torsions:
REMARK  status: ('A' for Active; 'I' for Inactive)
REMARK    1  A    between atoms: C_2  and  C_3
REMARK    2  A    between atoms: C_3  and  N_4
REMARK    3  A    between atoms: N_16  and  C_17
REMARK    4  A    between atoms: C_17  and  C_18
REMARK                            x       y       z     vdW  Elec       q    Type
REMARK                         _______ _______ _______ _____ _____    ______ ____
ROOT
ATOM      1  O   UNL     1       7.730   7.032  16.514  0.00  0.00    +0.000 OA
ATOM      2  C   UNL     1       7.692   7.128  17.730  0.00  0.00    +0.000 C 
ATOM      3  N   UNL     1       7.988   8.318  18.355  0.00  0.00    +0.000 N 
ATOM      4  H   UNL     1       7.661   8.439  19.306  0.00  0.00    +0.000 HD
ENDROOT
BRANCH   2   5
ATOM      5  C   UNL     1       7.272   5.990  18.672  0.00  0.00    +0.000 C 
BRANCH   5   6
ATOM      6  N   UNL     1       5.852   5.690  18.552  0.00  0.00    +0.000 N 
ATOM      7  N   UNL     1       5.074   6.701  17.984  0.00  0.00    +0.000 N 
ATOM      8  C   UNL     1       3.715   6.593  17.836  0.00  0.00    +0.000 A 
ATOM      9  O   UNL     1       3.026   7.551  17.502  0.00  0.00    +0.000 OA
ATOM     10  C   UNL     1       3.121   5.274  18.110  0.00  0.00    +0.000 A 
ATOM     11  C   UNL     1       1.784   5.034  17.771  0.00  0.00    +0.000 A 
ATOM     12  C   UNL     1       1.235   3.768  17.971  0.00  0.00    +0.000 A 
ATOM     13  C   UNL     1       2.002   2.755  18.546  0.00  0.00    +0.000 A 
ATOM     14  C   UNL     1       3.324   3.005  18.918  0.00  0.00    +0.000 A 
ATOM     15  C   UNL     1       3.891   4.263  18.681  0.00  0.00    +0.000 A 
ATOM     16  C   UNL     1       5.320   4.488  18.980  0.00  0.00    +0.000 A 
ATOM     17  O   UNL     1       5.976   3.621  19.555  0.00  0.00    +0.000 OA
ATOM     18  H   UNL     1       5.441   7.647  17.971  0.00  0.00    +0.000 HD
ENDBRANCH   5   6
ENDBRANCH   2   5
BRANCH   3  19
ATOM     19  C   UNL     1       8.440   9.503  17.645  0.00  0.00    +0.000 C 
BRANCH  19  20
ATOM     20  C   UNL     1       8.965  10.468  18.647  0.00  0.00    +0.000 A 
ATOM     21  N   UNL     1       9.523  10.142  19.797  0.00  0.00    +0.000 NA
ATOM     22  N   UNL     1       9.939  11.286  20.411  0.00  0.00    +0.000 NA
ATOM     23  C   UNL     1       9.634  12.308  19.639  0.00  0.00    +0.000 A 
ATOM     24  N   UNL     1       8.983  11.839  18.522  0.00  0.00    +0.000 N 
ATOM     25  C   UNL     1       8.440  12.618  17.426  0.00  0.00    +0.000 C 
ATOM     26  C   UNL     1       7.761  13.906  17.882  0.00  0.00    +0.000 C 
ATOM     27  C   UNL     1       8.741  15.051  18.145  0.00  0.00    +0.000 C 
ATOM     28  C   UNL     1      10.086  14.635  18.744  0.00  0.00    +0.000 C 
ATOM     29  C   UNL     1       9.938  13.732  19.962  0.00  0.00    +0.000 C 
ENDBRANCH  19  20
ENDBRANCH   3  19
TORSDOF 4
ENDMDL
MODEL 9
REMARK VINA RESULT:      -8.0      5.801      6.980
REMARK  Name = 
REMARK  4 active torsions:
REMARK  status: ('A' for Active; 'I' for Inactive)
REMARK    1  A    between atoms: C_2  and  C_3
REMARK    2  A    between atoms: C_3  and  N_4
REMARK    3  A    between atoms: N_16  and  C_17
REMARK    4  A    between atoms: C_17  and  C_18
REMARK                            x       y       z     vdW  Elec       q    Type
REMARK                         _______ _______ _______ _____ _____    ______ ____
ROOT
ATOM      1  O   UNL     1       8.240   6.830  18.934  0.00  0.00    +0.000 OA
ATOM      2  C   UNL     1       7.901   7.605  18.053  0.00  0.00    +0.000 C 
ATOM      3  N   UNL     1       8.273   8.929  18.095  0.00  0.00    +0.000 N 
ATOM      4  H   UNL     1       8.235   9.452  17.228  0.00  0.00    +0.000 HD
ENDROOT
BRANCH   2   5
ATOM      5  C   UNL     1       7.094   7.199  16.811  0.00  0.00    +0.000 C 
BRANCH   5   6
ATOM      6  N   UNL     1       5.843   6.548  17.174  0.00  0.00    +0.000 N 
ATOM      7  N   UNL     1       4.782   7.410  17.461  0.00  0.00    +0.000 N 
ATOM      8  C   UNL     1       3.550   6.959  17.857  0.00  0.00    +0.000 A 
ATOM      9  O   UNL     1       2.687   7.725  18.273  0.00  0.00    +0.000 OA
ATOM     10  C   UNL     1       3.315   5.508  17.770  0.00  0.00    +0.000 A 
ATOM     11  C   UNL     1       2.021   5.005  17.948  0.00  0.00    +0.000 A 
ATOM     12  C   UNL     1       1.782   3.638  17.805  0.00  0.00    +0.000 A 
ATOM     13  C   UNL     1       2.837   2.769  17.528  0.00  0.00    +0.000 A 
ATOM     14  C   UNL     1       4.134   3.266  17.388  0.00  0.00    +0.000 A 
ATOM     15  C   UNL     1       4.370   4.643  17.490  0.00  0.00    +0.000 A 
ATOM     16  C   UNL     1       5.725   5.172  17.235  0.00  0.00    +0.000 A 
ATOM     17  O   UNL     1       6.669   4.401  17.066  0.00  0.00    +0.000 OA
ATOM     18  H   UNL     1       4.990   8.375  17.695  0.00  0.00    +0.000 HD
ENDBRANCH   5   6
ENDBRANCH   2   5
BRANCH   3  19
ATOM     19  C   UNL     1       9.009   9.519  19.202  0.00  0.00    +0.000 C 
BRANCH  19  20
ATOM     20  C   UNL     1       9.492  10.858  18.772  0.00  0.00    +0.000 A 
ATOM     21  N   UNL     1      10.025  11.132  17.598  0.00  0.00    +0.000 NA
ATOM     22  N   UNL     1      10.281  12.471  17.546  0.00  0.00    +0.000 NA
ATOM     23  C   UNL     1       9.907  13.012  18.687  0.00  0.00    +0.000 A 
ATOM     24  N   UNL     1       9.430  12.018  19.511  0.00  0.00    +0.000 N 
ATOM     25  C   UNL     1       8.945  12.157  20.870  0.00  0.00    +0.000 C 
ATOM     26  C   UNL     1       9.769  13.131  21.706  0.00  0.00    +0.000 C 
ATOM     27  C   UNL     1       9.397  14.598  21.476  0.00  0.00    +0.000 C 
ATOM     28  C   UNL     1       9.006  14.954  20.041  0.00  0.00    +0.000 C 
ATOM     29  C   UNL     1      10.015  14.463  19.012  0.00  0.00    +0.000 C 
ENDBRANCH  19  20
ENDBRANCH   3  19
TORSDOF 4
ENDMDL
