MODEL 1
REMARK VINA RESULT:     -10.0      0.000      0.000
REMARK  Name = 
REMARK  5 active torsions:
REMARK  status: ('A' for Active; 'I' for Inactive)
REMARK    1  A    between atoms: C_1  and  C_2
REMARK    2  A    between atoms: N_5  and  C_6
REMARK    3  A    between atoms: C_6  and  C_7
REMARK    4  A    between atoms: C_11  and  C_12
REMARK    5  A    between atoms: N_18  and  C_19
REMARK                            x       y       z     vdW  Elec       q    Type
REMARK                         _______ _______ _______ _____ _____    ______ ____
ROOT
ATOM      1  C   UNL     1       3.965   4.399  17.637  0.00  0.00    +0.000 A 
ATOM      2  C   UNL     1       3.602   5.745  17.622  0.00  0.00    +0.000 A 
ATOM      3  C   UNL     1       2.817   6.218  18.653  0.00  0.00    +0.000 A 
ATOM      4  C   UNL     1       2.314   5.414  19.668  0.00  0.00    +0.000 A 
ATOM      5  C   UNL     1       2.576   4.044  19.659  0.00  0.00    +0.000 A 
ATOM      6  C   UNL     1       3.443   3.556  18.646  0.00  0.00    +0.000 A 
ATOM      7  C   UNL     1       1.546   6.270  20.629  0.00  0.00    +0.000 C 
ATOM      8  N   UNL     1       1.680   7.613  20.073  0.00  0.00    +0.000 N 
ATOM      9  C   UNL     1       2.418   7.599  18.888  0.00  0.00    +0.000 C 
ATOM     10  O   UNL     1       2.750   8.489  18.130  0.00  0.00    +0.000 OA
ENDROOT
BRANCH   8  11
ATOM     11  C   UNL     1       1.059   8.753  20.647  0.00  0.00    +0.000 A 
ATOM     12  C   UNL     1       0.522   9.768  19.845  0.00  0.00    +0.000 A 
ATOM     13  C   UNL     1      -0.150  10.859  20.400  0.00  0.00    +0.000 A 
ATOM     14  C   UNL     1      -0.279  10.964  21.778  0.00  0.00    +0.000 A 
ATOM     15  C   UNL     1       0.277   9.987  22.598  0.00  0.00    +0.000 A 
ATOM     16  C   UNL     1       0.941   8.889  22.038  0.00  0.00    +0.000 A 
ENDBRANCH   8  11
BRANCH   5  17
ATOM     17  C   UNL     1       1.969   3.099  20.656  0.00  0.00    +0.000 C 
ATOM     18  F   UNL     1       0.646   3.333  20.893  0.00  0.00    +0.000 F 
ATOM     19  F   UNL     1       2.043   1.801  20.252  0.00  0.00    +0.000 F 
ATOM     20  F   UNL     1       2.577   3.150  21.873  0.00  0.00    +0.000 F 
ENDBRANCH   5  17
BRANCH   1  21
ATOM     21  C   UNL     1       4.987   3.920  16.623  0.00  0.00    +0.000 C 
BRANCH  21  26
ATOM     22  C   UNL     1       8.005   8.205  17.886  0.00  0.00    +0.000 C 
ATOM     23  C   UNL     1       7.526   6.816  17.542  0.00  0.00    +0.000 C 
ATOM     24  N   UNL     1       7.332   6.527  16.312  0.00  0.00    +0.000 NA
ATOM     25  C   UNL     1       6.954   5.183  15.920  0.00  0.00    +0.000 C 
ATOM     26  N   UNL     1       6.381   4.275  16.900  0.00  0.00    +0.000 NA
ATOM     27  C   UNL     1       6.546   4.627  18.304  0.00  0.00    +0.000 C 
ATOM     28  C   UNL     1       7.334   5.864  18.675  0.00  0.00    +0.000 C 
ENDBRANCH  21  26
ENDBRANCH   1  21
TORSDOF 4
ENDMDL
MODEL 2
REMARK VINA RESULT:      -9.9      0.254      1.131
REMARK  Name = 
REMARK  5 active torsions:
REMARK  status: ('A' for Active; 'I' for Inactive)
REMARK    1  A    between atoms: C_1  and  C_2
REMARK    2  A    between atoms: N_5  and  C_6
REMARK    3  A    between atoms: C_6  and  C_7
REMARK    4  A    between atoms: C_11  and  C_12
REMARK    5  A    between atoms: N_18  and  C_19
REMARK                            x       y       z     vdW  Elec       q    Type
REMARK                         _______ _______ _______ _____ _____    ______ ____
ROOT
ATOM      1  C   UNL     1       4.033   4.428  17.716  0.00  0.00    +0.000 A 
ATOM      2  C   UNL     1       3.628   5.759  17.616  0.00  0.00    +0.000 A 
ATOM      3  C   UNL     1       2.841   6.276  18.625  0.00  0.00    +0.000 A 
ATOM      4  C   UNL     1       2.377   5.527  19.699  0.00  0.00    +0.000 A 
ATOM      5  C   UNL     1       2.681   4.169  19.777  0.00  0.00    +0.000 A 
ATOM      6  C   UNL     1       3.550   3.640  18.786  0.00  0.00    +0.000 A 
ATOM      7  C   UNL     1       1.594   6.422  20.612  0.00  0.00    +0.000 C 
ATOM      8  N   UNL     1       1.680   7.728  19.965  0.00  0.00    +0.000 N 
ATOM      9  C   UNL     1       2.403   7.657  18.772  0.00  0.00    +0.000 C 
ATOM     10  O   UNL     1       2.696   8.504  17.952  0.00  0.00    +0.000 OA
ENDROOT
BRANCH   8  11
ATOM     11  C   UNL     1       1.031   8.885  20.470  0.00  0.00    +0.000 A 
ATOM     12  C   UNL     1       0.794   9.044  21.841  0.00  0.00    +0.000 A 
ATOM     13  C   UNL     1       0.217  10.209  22.353  0.00  0.00    +0.000 A 
ATOM     14  C   UNL     1      -0.154  11.233  21.492  0.00  0.00    +0.000 A 
ATOM     15  C   UNL     1       0.039  11.084  20.121  0.00  0.00    +0.000 A 
ATOM     16  C   UNL     1       0.626   9.920  19.613  0.00  0.00    +0.000 A 
ENDBRANCH   8  11
BRANCH   5  17
ATOM     17  C   UNL     1       2.116   3.274  20.844  0.00  0.00    +0.000 C 
ATOM     18  F   UNL     1       2.477   3.638  22.108  0.00  0.00    +0.000 F 
ATOM     19  F   UNL     1       0.755   3.261  20.842  0.00  0.00    +0.000 F 
ATOM     20  F   UNL     1       2.506   1.976  20.708  0.00  0.00    +0.000 F 
ENDBRANCH   5  17
BRANCH   1  21
ATOM     21  C   UNL     1       5.056   3.914  16.720  0.00  0.00    +0.000 C 
BRANCH  21  26
ATOM     22  C   UNL     1       8.022   8.267  17.870  0.00  0.00    +0.000 C 
ATOM     23  C   UNL     1       7.560   6.865  17.558  0.00  0.00    +0.000 C 
ATOM     24  N   UNL     1       7.358   6.549  16.336  0.00  0.00    +0.000 NA
ATOM     25  C   UNL     1       6.997   5.193  15.973  0.00  0.00    +0.000 C 
ATOM     26  N   UNL     1       6.448   4.295  16.976  0.00  0.00    +0.000 NA
ATOM     27  C   UNL     1       6.621   4.676  18.372  0.00  0.00    +0.000 C 
ATOM     28  C   UNL     1       7.394   5.932  18.711  0.00  0.00    +0.000 C 
ENDBRANCH  21  26
ENDBRANCH   1  21
TORSDOF 4
ENDMDL
MODEL 3
REMARK VINA RESULT:      -9.1      0.941      1.168
REMARK  Name = 
REMARK  5 active torsions:
REMARK  status: ('A' for Active; 'I' for Inactive)
REMARK    1  A    between atoms: C_1  and  C_2
REMARK    2  A    between atoms: N_5  and  C_6
REMARK    3  A    between atoms: C_6  and  C_7
REMARK    4  A    between atoms: C_11  and  C_12
REMARK    5  A    between atoms: N_18  and  C_19
REMARK                            x       y       z     vdW  Elec       q    Type
REMARK                         _______ _______ _______ _____ _____    ______ ____
ROOT
ATOM      1  C   UNL     1       3.958   4.779  17.717  0.00  0.00    +0.000 A 
ATOM      2  C   UNL     1       3.523   6.077  17.449  0.00  0.00    +0.000 A 
ATOM      3  C   UNL     1       2.742   6.709  18.395  0.00  0.00    +0.000 A 
ATOM      4  C   UNL     1       2.309   6.101  19.567  0.00  0.00    +0.000 A 
ATOM      5  C   UNL     1       2.644   4.771  19.819  0.00  0.00    +0.000 A 
ATOM      6  C   UNL     1       3.508   4.131  18.892  0.00  0.00    +0.000 A 
ATOM      7  C   UNL     1       1.523   7.094  20.367  0.00  0.00    +0.000 C 
ATOM      8  N   UNL     1       1.571   8.304  19.552  0.00  0.00    +0.000 N 
ATOM      9  C   UNL     1       2.277   8.089  18.366  0.00  0.00    +0.000 C 
ATOM     10  O   UNL     1       2.540   8.824  17.436  0.00  0.00    +0.000 OA
ENDROOT
BRANCH   8  11
ATOM     11  C   UNL     1       0.906   9.506  19.911  0.00  0.00    +0.000 A 
ATOM     12  C   UNL     1       1.555  10.501  20.652  0.00  0.00    +0.000 A 
ATOM     13  C   UNL     1       0.930  11.714  20.951  0.00  0.00    +0.000 A 
ATOM     14  C   UNL     1      -0.372  11.944  20.527  0.00  0.00    +0.000 A 
ATOM     15  C   UNL     1      -1.051  10.957  19.819  0.00  0.00    +0.000 A 
ATOM     16  C   UNL     1      -0.418   9.747  19.512  0.00  0.00    +0.000 A 
ENDBRANCH   8  11
BRANCH   5  17
ATOM     17  C   UNL     1       2.114   4.016  21.005  0.00  0.00    +0.000 C 
ATOM     18  F   UNL     1       0.758   3.867  20.995  0.00  0.00    +0.000 F 
ATOM     19  F   UNL     1       2.620   2.754  21.085  0.00  0.00    +0.000 F 
ATOM     20  F   UNL     1       2.410   4.617  22.191  0.00  0.00    +0.000 F 
ENDBRANCH   5  17
BRANCH   1  21
ATOM     21  C   UNL     1       4.975   4.156  16.781  0.00  0.00    +0.000 C 
BRANCH  21  26
ATOM     22  C   UNL     1       8.150   8.358  17.937  0.00  0.00    +0.000 C 
ATOM     23  C   UNL     1       7.618   6.979  17.634  0.00  0.00    +0.000 C 
ATOM     24  N   UNL     1       7.427   6.656  16.412  0.00  0.00    +0.000 NA
ATOM     25  C   UNL     1       6.999   5.315  16.061  0.00  0.00    +0.000 C 
ATOM     26  N   UNL     1       6.380   4.464  17.063  0.00  0.00    +0.000 NA
ATOM     27  C   UNL     1       6.543   4.857  18.457  0.00  0.00    +0.000 C 
ATOM     28  C   UNL     1       7.376   6.074  18.796  0.00  0.00    +0.000 C 
ENDBRANCH  21  26
ENDBRANCH   1  21
TORSDOF 4
ENDMDL
MODEL 4
REMARK VINA RESULT:      -8.7      1.205      1.952
REMARK  Name = 
REMARK  5 active torsions:
REMARK  status: ('A' for Active; 'I' for Inactive)
REMARK    1  A    between atoms: C_1  and  C_2
REMARK    2  A    between atoms: N_5  and  C_6
REMARK    3  A    between atoms: C_6  and  C_7
REMARK    4  A    between atoms: C_11  and  C_12
REMARK    5  A    between atoms: N_18  and  C_19
REMARK                            x       y       z     vdW  Elec       q    Type
REMARK                         _______ _______ _______ _____ _____    ______ ____
ROOT
ATOM      1  C   UNL     1       4.177   6.231  16.953  0.00  0.00    +0.000 A 
ATOM      2  C   UNL     1       3.488   7.423  17.175  0.00  0.00    +0.000 A 
ATOM      3  C   UNL     1       2.733   7.532  18.325  0.00  0.00    +0.000 A 
ATOM      4  C   UNL     1       2.568   6.499  19.239  0.00  0.00    +0.000 A 
ATOM      5  C   UNL     1       3.163   5.261  18.997  0.00  0.00    +0.000 A 
ATOM      6  C   UNL     1       4.003   5.156  17.857  0.00  0.00    +0.000 A 
ATOM      7  C   UNL     1       1.725   6.988  20.377  0.00  0.00    +0.000 C 
ATOM      8  N   UNL     1       1.453   8.378  20.027  0.00  0.00    +0.000 N 
ATOM      9  C   UNL     1       2.029   8.715  18.801  0.00  0.00    +0.000 C 
ATOM     10  O   UNL     1       2.037   9.752  18.167  0.00  0.00    +0.000 OA
ENDROOT
BRANCH   8  11
ATOM     11  C   UNL     1       0.635   9.229  20.817  0.00  0.00    +0.000 A 
ATOM     12  C   UNL     1       0.491   9.023  22.195  0.00  0.00    +0.000 A 
ATOM     13  C   UNL     1      -0.257   9.895  22.990  0.00  0.00    +0.000 A 
ATOM     14  C   UNL     1      -0.895  10.983  22.411  0.00  0.00    +0.000 A 
ATOM     15  C   UNL     1      -0.796  11.190  21.038  0.00  0.00    +0.000 A 
ATOM     16  C   UNL     1      -0.037  10.321  20.246  0.00  0.00    +0.000 A 
ENDBRANCH   8  11
BRANCH   5  17
ATOM     17  C   UNL     1       2.931   4.067  19.879  0.00  0.00    +0.000 C 
ATOM     18  F   UNL     1       2.953   4.361  21.211  0.00  0.00    +0.000 F 
ATOM     19  F   UNL     1       1.723   3.482  19.653  0.00  0.00    +0.000 F 
ATOM     20  F   UNL     1       3.862   3.089  19.702  0.00  0.00    +0.000 F 
ENDBRANCH   5  17
BRANCH   1  21
ATOM     21  C   UNL     1       5.162   6.176  15.801  0.00  0.00    +0.000 C 
BRANCH  21  26
ATOM     22  C   UNL     1       8.284   5.416  20.130  0.00  0.00    +0.000 C 
ATOM     23  C   UNL     1       7.775   5.666  18.732  0.00  0.00    +0.000 C 
ATOM     24  N   UNL     1       7.417   6.852  18.419  0.00  0.00    +0.000 NA
ATOM     25  C   UNL     1       7.002   7.165  17.065  0.00  0.00    +0.000 C 
ATOM     26  N   UNL     1       6.578   6.100  16.171  0.00  0.00    +0.000 NA
ATOM     27  C   UNL     1       6.931   4.738  16.550  0.00  0.00    +0.000 C 
ATOM     28  C   UNL     1       7.751   4.501  17.800  0.00  0.00    +0.000 C 
ENDBRANCH  21  26
ENDBRANCH   1  21
TORSDOF 4
ENDMDL
MODEL 5
REMARK VINA RESULT:      -8.3      1.570      7.028
REMARK  Name = 
REMARK  5 active torsions:
REMARK  status: ('A' for Active; 'I' for Inactive)
REMARK    1  A    between atoms: C_1  and  C_2
REMARK    2  A    between atoms: N_5  and  C_6
REMARK    3  A    between atoms: C_6  and  C_7
REMARK    4  A    between atoms: C_11  and  C_12
REMARK    5  A    between atoms: N_18  and  C_19
REMARK                            x       y       z     vdW  Elec       q    Type
REMARK                         _______ _______ _______ _____ _____    ______ ____
ROOT
ATOM      1  C   UNL     1       1.725   6.490  20.508  0.00  0.00    +0.000 A 
ATOM      2  C   UNL     1       2.523   6.946  19.459  0.00  0.00    +0.000 A 
ATOM      3  C   UNL     1       3.233   6.013  18.731  0.00  0.00    +0.000 A 
ATOM      4  C   UNL     1       3.249   4.656  19.026  0.00  0.00    +0.000 A 
ATOM      5  C   UNL     1       2.540   4.180  20.129  0.00  0.00    +0.000 A 
ATOM      6  C   UNL     1       1.746   5.116  20.844  0.00  0.00    +0.000 A 
ATOM      7  C   UNL     1       4.086   3.947  18.005  0.00  0.00    +0.000 C 
ATOM      8  N   UNL     1       4.516   5.019  17.113  0.00  0.00    +0.000 N 
ATOM      9  C   UNL     1       4.033   6.258  17.539  0.00  0.00    +0.000 C 
ATOM     10  O   UNL     1       4.161   7.377  17.083  0.00  0.00    +0.000 OA
ENDROOT
BRANCH   8  11
ATOM     11  C   UNL     1       5.381   4.805  16.008  0.00  0.00    +0.000 A 
ATOM     12  C   UNL     1       4.939   4.138  14.858  0.00  0.00    +0.000 A 
ATOM     13  C   UNL     1       5.763   3.984  13.741  0.00  0.00    +0.000 A 
ATOM     14  C   UNL     1       7.059   4.480  13.763  0.00  0.00    +0.000 A 
ATOM     15  C   UNL     1       7.534   5.116  14.907  0.00  0.00    +0.000 A 
ATOM     16  C   UNL     1       6.702   5.279  16.020  0.00  0.00    +0.000 A 
ENDBRANCH   8  11
BRANCH   5  17
ATOM     17  C   UNL     1       2.608   2.748  20.576  0.00  0.00    +0.000 C 
ATOM     18  F   UNL     1       1.911   2.500  21.722  0.00  0.00    +0.000 F 
ATOM     19  F   UNL     1       2.100   1.890  19.648  0.00  0.00    +0.000 F 
ATOM     20  F   UNL     1       3.880   2.328  20.820  0.00  0.00    +0.000 F 
ENDBRANCH   5  17
BRANCH   1  21
ATOM     21  C   UNL     1       0.792   7.479  21.181  0.00  0.00    +0.000 C 
BRANCH  21  26
ATOM     22  C   UNL     1      -1.697  12.204  20.444  0.00  0.00    +0.000 C 
ATOM     23  C   UNL     1      -0.665  11.116  20.610  0.00  0.00    +0.000 C 
ATOM     24  N   UNL     1      -0.368  10.400  19.594  0.00  0.00    +0.000 NA
ATOM     25  C   UNL     1       0.678   9.398  19.677  0.00  0.00    +0.000 C 
ATOM     26  N   UNL     1       1.102   8.896  20.973  0.00  0.00    +0.000 NA
ATOM     27  C   UNL     1       0.717   9.676  22.143  0.00  0.00    +0.000 C 
ATOM     28  C   UNL     1      -0.041  10.972  21.958  0.00  0.00    +0.000 C 
ENDBRANCH  21  26
ENDBRANCH   1  21
TORSDOF 4
ENDMDL
MODEL 6
REMARK VINA RESULT:      -8.3      1.685      2.894
REMARK  Name = 
REMARK  5 active torsions:
REMARK  status: ('A' for Active; 'I' for Inactive)
REMARK    1  A    between atoms: C_1  and  C_2
REMARK    2  A    between atoms: N_5  and  C_6
REMARK    3  A    between atoms: C_6  and  C_7
REMARK    4  A    between atoms: C_11  and  C_12
REMARK    5  A    between atoms: N_18  and  C_19
REMARK                            x       y       z     vdW  Elec       q    Type
REMARK                         _______ _______ _______ _____ _____    ______ ____
ROOT
ATOM      1  C   UNL     1       3.777   6.768  17.617  0.00  0.00    +0.000 A 
ATOM      2  C   UNL     1       3.082   7.968  17.772  0.00  0.00    +0.000 A 
ATOM      3  C   UNL     1       2.248   8.099  18.863  0.00  0.00    +0.000 A 
ATOM      4  C   UNL     1       2.012   7.081  19.778  0.00  0.00    +0.000 A 
ATOM      5  C   UNL     1       2.614   5.836  19.598  0.00  0.00    +0.000 A 
ATOM      6  C   UNL     1       3.532   5.708  18.522  0.00  0.00    +0.000 A 
ATOM      7  C   UNL     1       1.093   7.592  20.846  0.00  0.00    +0.000 C 
ATOM      8  N   UNL     1       0.856   8.979  20.458  0.00  0.00    +0.000 N 
ATOM      9  C   UNL     1       1.521   9.294  19.270  0.00  0.00    +0.000 C 
ATOM     10  O   UNL     1       1.581  10.320  18.623  0.00  0.00    +0.000 OA
ENDROOT
BRANCH   8  11
ATOM     11  C   UNL     1      -0.009   9.846  21.174  0.00  0.00    +0.000 A 
ATOM     12  C   UNL     1      -0.269   9.650  22.536  0.00  0.00    +0.000 A 
ATOM     13  C   UNL     1      -1.065  10.538  23.264  0.00  0.00    +0.000 A 
ATOM     14  C   UNL     1      -1.636  11.633  22.631  0.00  0.00    +0.000 A 
ATOM     15  C   UNL     1      -1.422  11.831  21.270  0.00  0.00    +0.000 A 
ATOM     16  C   UNL     1      -0.615  10.946  20.546  0.00  0.00    +0.000 A 
ENDBRANCH   8  11
BRANCH   5  17
ATOM     17  C   UNL     1       2.312   4.657  20.479  0.00  0.00    +0.000 C 
ATOM     18  F   UNL     1       3.054   3.551  20.184  0.00  0.00    +0.000 F 
ATOM     19  F   UNL     1       2.552   4.918  21.794  0.00  0.00    +0.000 F 
ATOM     20  F   UNL     1       1.011   4.260  20.405  0.00  0.00    +0.000 F 
ENDBRANCH   5  17
BRANCH   1  21
ATOM     21  C   UNL     1       4.841   6.690  16.539  0.00  0.00    +0.000 C 
BRANCH  21  26
ATOM     22  C   UNL     1       6.722   3.623  12.524  0.00  0.00    +0.000 C 
ATOM     23  C   UNL     1       6.291   4.149  13.871  0.00  0.00    +0.000 C 
ATOM     24  N   UNL     1       5.052   4.086  14.180  0.00  0.00    +0.000 NA
ATOM     25  C   UNL     1       4.597   4.498  15.494  0.00  0.00    +0.000 C 
ATOM     26  N   UNL     1       5.428   5.367  16.311  0.00  0.00    +0.000 NA
ATOM     27  C   UNL     1       6.829   5.492  15.931  0.00  0.00    +0.000 C 
ATOM     28  C   UNL     1       7.359   4.688  14.763  0.00  0.00    +0.000 C 
ENDBRANCH  21  26
ENDBRANCH   1  21
TORSDOF 4
ENDMDL
MODEL 7
REMARK VINA RESULT:      -8.2      1.298      2.402
REMARK  Name = 
REMARK  5 active torsions:
REMARK  status: ('A' for Active; 'I' for Inactive)
REMARK    1  A    between atoms: C_1  and  C_2
REMARK    2  A    between atoms: N_5  and  C_6
REMARK    3  A    between atoms: C_6  and  C_7
REMARK    4  A    between atoms: C_11  and  C_12
REMARK    5  A    between atoms: N_18  and  C_19
REMARK                            x       y       z     vdW  Elec       q    Type
REMARK                         _______ _______ _______ _____ _____    ______ ____
ROOT
ATOM      1  C   UNL     1       4.202   4.807  18.219  0.00  0.00    +0.000 A 
ATOM      2  C   UNL     1       3.691   6.102  18.129  0.00  0.00    +0.000 A 
ATOM      3  C   UNL     1       2.794   6.514  19.093  0.00  0.00    +0.000 A 
ATOM      4  C   UNL     1       2.321   5.691  20.107  0.00  0.00    +0.000 A 
ATOM      5  C   UNL     1       2.736   4.361  20.167  0.00  0.00    +0.000 A 
ATOM      6  C   UNL     1       3.715   3.943  19.227  0.00  0.00    +0.000 A 
ATOM      7  C   UNL     1       1.402   6.483  20.986  0.00  0.00    +0.000 C 
ATOM      8  N   UNL     1       1.419   7.814  20.387  0.00  0.00    +0.000 N 
ATOM      9  C   UNL     1       2.228   7.847  19.249  0.00  0.00    +0.000 C 
ATOM     10  O   UNL     1       2.504   8.744  18.478  0.00  0.00    +0.000 OA
ENDROOT
BRANCH   8  11
ATOM     11  C   UNL     1       0.639   8.893  20.877  0.00  0.00    +0.000 A 
ATOM     12  C   UNL     1       0.447   9.086  22.251  0.00  0.00    +0.000 A 
ATOM     13  C   UNL     1      -0.263  10.183  22.744  0.00  0.00    +0.000 A 
ATOM     14  C   UNL     1      -0.815  11.102  21.862  0.00  0.00    +0.000 A 
ATOM     15  C   UNL     1      -0.668  10.914  20.490  0.00  0.00    +0.000 A 
ATOM     16  C   UNL     1       0.052   9.820  20.001  0.00  0.00    +0.000 A 
ENDBRANCH   8  11
BRANCH   5  17
ATOM     17  C   UNL     1       2.177   3.384  21.162  0.00  0.00    +0.000 C 
ATOM     18  F   UNL     1       2.332   3.778  22.459  0.00  0.00    +0.000 F 
ATOM     19  F   UNL     1       0.840   3.186  20.999  0.00  0.00    +0.000 F 
ATOM     20  F   UNL     1       2.754   2.153  21.079  0.00  0.00    +0.000 F 
ENDBRANCH   5  17
BRANCH   1  21
ATOM     21  C   UNL     1       5.333   4.417  17.287  0.00  0.00    +0.000 C 
BRANCH  21  26
ATOM     22  C   UNL     1       7.649   4.134  12.426  0.00  0.00    +0.000 C 
ATOM     23  C   UNL     1       6.860   4.570  13.637  0.00  0.00    +0.000 C 
ATOM     24  N   UNL     1       7.484   5.140  14.596  0.00  0.00    +0.000 NA
ATOM     25  C   UNL     1       6.763   5.655  15.743  0.00  0.00    +0.000 C 
ATOM     26  N   UNL     1       5.423   5.173  16.035  0.00  0.00    +0.000 NA
ATOM     27  C   UNL     1       4.725   4.470  14.966  0.00  0.00    +0.000 C 
ATOM     28  C   UNL     1       5.389   4.323  13.614  0.00  0.00    +0.000 C 
ENDBRANCH  21  26
ENDBRANCH   1  21
TORSDOF 4
ENDMDL
MODEL 8
REMARK VINA RESULT:      -8.2      1.234      1.961
REMARK  Name = 
REMARK  5 active torsions:
REMARK  status: ('A' for Active; 'I' for Inactive)
REMARK    1  A    between atoms: C_1  and  C_2
REMARK    2  A    between atoms: N_5  and  C_6
REMARK    3  A    between atoms: C_6  and  C_7
REMARK    4  A    between atoms: C_11  and  C_12
REMARK    5  A    between atoms: N_18  and  C_19
REMARK                            x       y       z     vdW  Elec       q    Type
REMARK                         _______ _______ _______ _____ _____    ______ ____
ROOT
ATOM      1  C   UNL     1       3.918   4.546  18.106  0.00  0.00    +0.000 A 
ATOM      2  C   UNL     1       3.469   5.864  18.025  0.00  0.00    +0.000 A 
ATOM      3  C   UNL     1       2.661   6.337  19.039  0.00  0.00    +0.000 A 
ATOM      4  C   UNL     1       2.217   5.556  20.099  0.00  0.00    +0.000 A 
ATOM      5  C   UNL     1       2.568   4.207  20.156  0.00  0.00    +0.000 A 
ATOM      6  C   UNL     1       3.458   3.724  19.161  0.00  0.00    +0.000 A 
ATOM      7  C   UNL     1       1.401   6.408  21.022  0.00  0.00    +0.000 C 
ATOM      8  N   UNL     1       1.445   7.727  20.397  0.00  0.00    +0.000 N 
ATOM      9  C   UNL     1       2.175   7.701  19.207  0.00  0.00    +0.000 C 
ATOM     10  O   UNL     1       2.443   8.570  18.402  0.00  0.00    +0.000 OA
ENDROOT
BRANCH   8  11
ATOM     11  C   UNL     1       0.755   8.853  20.918  0.00  0.00    +0.000 A 
ATOM     12  C   UNL     1       0.160   9.796  20.071  0.00  0.00    +0.000 A 
ATOM     13  C   UNL     1      -0.578  10.869  20.575  0.00  0.00    +0.000 A 
ATOM     14  C   UNL     1      -0.717  11.029  21.947  0.00  0.00    +0.000 A 
ATOM     15  C   UNL     1      -0.106  10.125  22.811  0.00  0.00    +0.000 A 
ATOM     16  C   UNL     1       0.624   9.045  22.302  0.00  0.00    +0.000 A 
ENDBRANCH   8  11
BRANCH   5  17
ATOM     17  C   UNL     1       2.029   3.277  21.205  0.00  0.00    +0.000 C 
ATOM     18  F   UNL     1       0.670   3.162  21.187  0.00  0.00    +0.000 F 
ATOM     19  F   UNL     1       2.505   2.009  21.068  0.00  0.00    +0.000 F 
ATOM     20  F   UNL     1       2.349   3.665  22.472  0.00  0.00    +0.000 F 
ENDBRANCH   5  17
BRANCH   1  21
ATOM     21  C   UNL     1       4.962   4.084  17.107  0.00  0.00    +0.000 C 
BRANCH  21  26
ATOM     22  C   UNL     1       8.416   4.960  13.062  0.00  0.00    +0.000 C 
ATOM     23  C   UNL     1       7.234   5.006  13.998  0.00  0.00    +0.000 C 
ATOM     24  N   UNL     1       7.329   5.702  15.065  0.00  0.00    +0.000 NA
ATOM     25  C   UNL     1       6.194   5.848  15.956  0.00  0.00    +0.000 C 
ATOM     26  N   UNL     1       5.097   4.897  15.896  0.00  0.00    +0.000 NA
ATOM     27  C   UNL     1       5.013   4.057  14.708  0.00  0.00    +0.000 C 
ATOM     28  C   UNL     1       6.016   4.244  13.591  0.00  0.00    +0.000 C 
ENDBRANCH  21  26
ENDBRANCH   1  21
TORSDOF 4
ENDMDL
MODEL 9
REMARK VINA RESULT:      -8.2      1.541      7.111
REMARK  Name = 
REMARK  5 active torsions:
REMARK  status: ('A' for Active; 'I' for Inactive)
REMARK    1  A    between atoms: C_1  and  C_2
REMARK    2  A    between atoms: N_5  and  C_6
REMARK    3  A    between atoms: C_6  and  C_7
REMARK    4  A    between atoms: C_11  and  C_12
REMARK    5  A    between atoms: N_18  and  C_19
REMARK                            x       y       z     vdW  Elec       q    Type
REMARK                         _______ _______ _______ _____ _____    ______ ____
ROOT
ATOM      1  C   UNL     1       1.593   6.573  20.602  0.00  0.00    +0.000 A 
ATOM      2  C   UNL     1       2.406   7.042  19.571  0.00  0.00    +0.000 A 
ATOM      3  C   UNL     1       3.122   6.117  18.837  0.00  0.00    +0.000 A 
ATOM      4  C   UNL     1       3.129   4.756  19.111  0.00  0.00    +0.000 A 
ATOM      5  C   UNL     1       2.405   4.266  20.198  0.00  0.00    +0.000 A 
ATOM      6  C   UNL     1       1.605   5.193  20.916  0.00  0.00    +0.000 A 
ATOM      7  C   UNL     1       3.977   4.060  18.090  0.00  0.00    +0.000 C 
ATOM      8  N   UNL     1       4.422   5.144  17.220  0.00  0.00    +0.000 N 
ATOM      9  C   UNL     1       3.938   6.378  17.659  0.00  0.00    +0.000 C 
ATOM     10  O   UNL     1       4.076   7.504  17.223  0.00  0.00    +0.000 OA
ENDROOT
BRANCH   8  11
ATOM     11  C   UNL     1       5.300   4.944  16.123  0.00  0.00    +0.000 A 
ATOM     12  C   UNL     1       6.638   5.352  16.180  0.00  0.00    +0.000 A 
ATOM     13  C   UNL     1       7.526   5.098  15.132  0.00  0.00    +0.000 A 
ATOM     14  C   UNL     1       7.080   4.445  13.991  0.00  0.00    +0.000 A 
ATOM     15  C   UNL     1       5.745   4.061  13.895  0.00  0.00    +0.000 A 
ATOM     16  C   UNL     1       4.861   4.307  14.951  0.00  0.00    +0.000 A 
ENDBRANCH   8  11
BRANCH   5  17
ATOM     17  C   UNL     1       2.461   2.826  20.622  0.00  0.00    +0.000 C 
ATOM     18  F   UNL     1       3.722   2.388  20.901  0.00  0.00    +0.000 F 
ATOM     19  F   UNL     1       1.734   2.589  21.749  0.00  0.00    +0.000 F 
ATOM     20  F   UNL     1       1.976   1.975  19.676  0.00  0.00    +0.000 F 
ENDBRANCH   5  17
BRANCH   1  21
ATOM     21  C   UNL     1       0.655   7.555  21.278  0.00  0.00    +0.000 C 
BRANCH  21  26
ATOM     22  C   UNL     1      -1.873  12.275  20.654  0.00  0.00    +0.000 C 
ATOM     23  C   UNL     1      -0.832  11.190  20.779  0.00  0.00    +0.000 C 
ATOM     24  N   UNL     1      -0.567  10.481  19.750  0.00  0.00    +0.000 NA
ATOM     25  C   UNL     1       0.484   9.483  19.791  0.00  0.00    +0.000 C 
ATOM     26  N   UNL     1       0.953   8.974  21.069  0.00  0.00    +0.000 NA
ATOM     27  C   UNL     1       0.606   9.746  22.256  0.00  0.00    +0.000 C 
ATOM     28  C   UNL     1      -0.163  11.041  22.104  0.00  0.00    +0.000 C 
ENDBRANCH  21  26
ENDBRANCH   1  21
TORSDOF 4
ENDMDL
