MODEL 1
REMARK VINA RESULT:      -8.8      0.000      0.000
REMARK  Name = 
REMARK  6 active torsions:
REMARK  status: ('A' for Active; 'I' for Inactive)
REMARK    1  A    between atoms: C_1  and  C_2
REMARK    2  A    between atoms: C_5  and  C_6
REMARK    3  A    between atoms: C_6  and  C_7
REMARK    4  A    between atoms: N_12  and  C_13
REMARK    5  A    between atoms: C_13  and  C_14
REMARK    6  A    between atoms: N_22  and  C_23
REMARK                            x       y       z     vdW  Elec       q    Type
REMARK                         _______ _______ _______ _____ _____    ______ ____
ROOT
ATOM      1  C   UNL     1       9.091  10.068  18.247  0.00  0.00    +0.000 C 
ATOM      2  C   UNL     1       7.683   9.806  17.645  0.00  0.00    +0.000 C 
ATOM      3  N   UNL     1       7.937   8.406  17.930  0.00  0.00    +0.000 N 
ATOM      4  C   UNL     1       7.373   7.211  17.610  0.00  0.00    +0.000 C 
ATOM      5  O   UNL     1       7.746   6.160  18.128  0.00  0.00    +0.000 OA
ATOM      6  N   UNL     1       6.357   7.265  16.693  0.00  0.00    +0.000 N 
ATOM      7  C   UNL     1       8.959   8.684  18.922  0.00  0.00    +0.000 C 
ATOM      8  H   UNL     1       6.406   8.035  16.035  0.00  0.00    +0.000 HD
ENDROOT
BRANCH   1   9
ATOM      9  C   UNL     1       9.332  11.196  19.242  0.00  0.00    +0.000 C 
BRANCH   9  14
ATOM     10  C   UNL     1      11.163  16.152  16.767  0.00  0.00    +0.000 C 
ATOM     11  C   UNL     1      10.668  14.878  17.388  0.00  0.00    +0.000 A 
ATOM     12  C   UNL     1       9.712  14.899  18.408  0.00  0.00    +0.000 A 
ATOM     13  C   UNL     1       9.263  13.708  18.988  0.00  0.00    +0.000 A 
ATOM     14  C   UNL     1       9.765  12.472  18.562  0.00  0.00    +0.000 A 
ATOM     15  C   UNL     1      10.712  12.452  17.530  0.00  0.00    +0.000 A 
ATOM     16  C   UNL     1      11.162  13.644  16.949  0.00  0.00    +0.000 A 
ENDBRANCH   9  14
ENDBRANCH   1   9
BRANCH   6  17
ATOM     17  C   UNL     1       5.822   6.031  16.149  0.00  0.00    +0.000 C 
BRANCH  17  18
ATOM     18  C   UNL     1       4.763   5.450  17.040  0.00  0.00    +0.000 A 
ATOM     19  C   UNL     1       4.063   6.199  17.906  0.00  0.00    +0.000 A 
ATOM     20  C   UNL     1       3.100   5.596  18.823  0.00  0.00    +0.000 A 
ATOM     21  C   UNL     1       2.390   6.419  19.711  0.00  0.00    +0.000 A 
ATOM     22  C   UNL     1       1.471   5.870  20.599  0.00  0.00    +0.000 A 
ATOM     23  C   UNL     1       1.262   4.496  20.607  0.00  0.00    +0.000 A 
ATOM     24  C   UNL     1       1.973   3.670  19.728  0.00  0.00    +0.000 A 
ATOM     25  C   UNL     1       2.903   4.205  18.822  0.00  0.00    +0.000 A 
ATOM     26  N   UNL     1       3.653   3.410  17.901  0.00  0.00    +0.000 N 
ATOM     27  C   UNL     1       3.520   1.966  17.830  0.00  0.00    +0.000 C 
ATOM     28  C   UNL     1       4.566   3.973  17.007  0.00  0.00    +0.000 A 
ATOM     29  O   UNL     1       5.215   3.304  16.199  0.00  0.00    +0.000 OA
ENDBRANCH  17  18
ENDBRANCH   6  17
TORSDOF 4
ENDMDL
MODEL 2
REMARK VINA RESULT:      -8.8      6.263      9.325
REMARK  Name = 
REMARK  6 active torsions:
REMARK  status: ('A' for Active; 'I' for Inactive)
REMARK    1  A    between atoms: C_1  and  C_2
REMARK    2  A    between atoms: C_5  and  C_6
REMARK    3  A    between atoms: C_6  and  C_7
REMARK    4  A    between atoms: N_12  and  C_13
REMARK    5  A    between atoms: C_13  and  C_14
REMARK    6  A    between atoms: N_22  and  C_23
REMARK                            x       y       z     vdW  Elec       q    Type
REMARK                         _______ _______ _______ _____ _____    ______ ____
ROOT
ATOM      1  C   UNL     1       2.173   5.181  19.389  0.00  0.00    +0.000 C 
ATOM      2  C   UNL     1       2.605   6.622  19.002  0.00  0.00    +0.000 C 
ATOM      3  N   UNL     1       1.842   7.050  20.159  0.00  0.00    +0.000 N 
ATOM      4  C   UNL     1       1.383   8.226  20.664  0.00  0.00    +0.000 C 
ATOM      5  O   UNL     1       0.858   8.292  21.775  0.00  0.00    +0.000 OA
ATOM      6  N   UNL     1       1.563   9.322  19.863  0.00  0.00    +0.000 N 
ATOM      7  C   UNL     1       1.878   5.748  20.797  0.00  0.00    +0.000 C 
ATOM      8  H   UNL     1       1.589   9.133  18.868  0.00  0.00    +0.000 HD
ENDROOT
BRANCH   1   9
ATOM      9  C   UNL     1       3.171   4.031  19.407  0.00  0.00    +0.000 C 
BRANCH   9  14
ATOM     10  C   UNL     1       7.119   4.742  15.170  0.00  0.00    +0.000 C 
ATOM     11  C   UNL     1       6.107   4.531  16.259  0.00  0.00    +0.000 A 
ATOM     12  C   UNL     1       4.809   4.106  15.962  0.00  0.00    +0.000 A 
ATOM     13  C   UNL     1       3.869   3.921  16.981  0.00  0.00    +0.000 A 
ATOM     14  C   UNL     1       4.209   4.161  18.319  0.00  0.00    +0.000 A 
ATOM     15  C   UNL     1       5.514   4.572  18.616  0.00  0.00    +0.000 A 
ATOM     16  C   UNL     1       6.456   4.757  17.596  0.00  0.00    +0.000 A 
ENDBRANCH   9  14
ENDBRANCH   1   9
BRANCH   6  17
ATOM     17  C   UNL     1       0.942  10.582  20.230  0.00  0.00    +0.000 C 
BRANCH  17  18
ATOM     18  C   UNL     1      -0.380  10.764  19.545  0.00  0.00    +0.000 A 
ATOM     19  C   UNL     1      -0.641  10.243  18.337  0.00  0.00    +0.000 A 
ATOM     20  C   UNL     1      -1.905  10.507  17.654  0.00  0.00    +0.000 A 
ATOM     21  C   UNL     1      -2.134   9.939  16.392  0.00  0.00    +0.000 A 
ATOM     22  C   UNL     1      -3.326  10.180  15.717  0.00  0.00    +0.000 A 
ATOM     23  C   UNL     1      -4.291  10.994  16.298  0.00  0.00    +0.000 A 
ATOM     24  C   UNL     1      -4.064  11.569  17.555  0.00  0.00    +0.000 A 
ATOM     25  C   UNL     1      -2.868  11.335  18.254  0.00  0.00    +0.000 A 
ATOM     26  N   UNL     1      -2.585  11.893  19.539  0.00  0.00    +0.000 N 
ATOM     27  C   UNL     1      -3.517  12.763  20.233  0.00  0.00    +0.000 C 
ATOM     28  C   UNL     1      -1.388  11.637  20.211  0.00  0.00    +0.000 A 
ATOM     29  O   UNL     1      -1.131  12.101  21.325  0.00  0.00    +0.000 OA
ENDBRANCH  17  18
ENDBRANCH   6  17
TORSDOF 4
ENDMDL
MODEL 3
REMARK VINA RESULT:      -8.4      6.000      9.066
REMARK  Name = 
REMARK  6 active torsions:
REMARK  status: ('A' for Active; 'I' for Inactive)
REMARK    1  A    between atoms: C_1  and  C_2
REMARK    2  A    between atoms: C_5  and  C_6
REMARK    3  A    between atoms: C_6  and  C_7
REMARK    4  A    between atoms: N_12  and  C_13
REMARK    5  A    between atoms: C_13  and  C_14
REMARK    6  A    between atoms: N_22  and  C_23
REMARK                            x       y       z     vdW  Elec       q    Type
REMARK                         _______ _______ _______ _____ _____    ______ ____
ROOT
ATOM      1  C   UNL     1       2.570   5.197  18.750  0.00  0.00    +0.000 C 
ATOM      2  C   UNL     1       2.862   6.699  18.476  0.00  0.00    +0.000 C 
ATOM      3  N   UNL     1       2.130   6.957  19.702  0.00  0.00    +0.000 N 
ATOM      4  C   UNL     1       1.604   8.041  20.332  0.00  0.00    +0.000 C 
ATOM      5  O   UNL     1       1.136   7.965  21.467  0.00  0.00    +0.000 OA
ATOM      6  N   UNL     1       1.651   9.214  19.628  0.00  0.00    +0.000 N 
ATOM      7  C   UNL     1       2.306   5.612  20.216  0.00  0.00    +0.000 C 
ATOM      8  H   UNL     1       1.639   9.115  18.619  0.00  0.00    +0.000 HD
ENDROOT
BRANCH   1   9
ATOM      9  C   UNL     1       3.658   4.140  18.617  0.00  0.00    +0.000 C 
BRANCH   9  14
ATOM     10  C   UNL     1       7.452   5.131  14.296  0.00  0.00    +0.000 C 
ATOM     11  C   UNL     1       6.469   4.903  15.407  0.00  0.00    +0.000 A 
ATOM     12  C   UNL     1       6.788   5.232  16.728  0.00  0.00    +0.000 A 
ATOM     13  C   UNL     1       5.870   5.008  17.760  0.00  0.00    +0.000 A 
ATOM     14  C   UNL     1       4.615   4.447  17.491  0.00  0.00    +0.000 A 
ATOM     15  C   UNL     1       4.292   4.133  16.165  0.00  0.00    +0.000 A 
ATOM     16  C   UNL     1       5.210   4.357  15.132  0.00  0.00    +0.000 A 
ENDBRANCH   9  14
ENDBRANCH   1   9
BRANCH   6  17
ATOM     17  C   UNL     1       0.951  10.379  20.136  0.00  0.00    +0.000 C 
BRANCH  17  18
ATOM     18  C   UNL     1      -0.354  10.590  19.426  0.00  0.00    +0.000 A 
ATOM     19  C   UNL     1      -0.604  10.074  18.213  0.00  0.00    +0.000 A 
ATOM     20  C   UNL     1      -1.848  10.365  17.507  0.00  0.00    +0.000 A 
ATOM     21  C   UNL     1      -2.066   9.801  16.240  0.00  0.00    +0.000 A 
ATOM     22  C   UNL     1      -3.240  10.068  15.542  0.00  0.00    +0.000 A 
ATOM     23  C   UNL     1      -4.198  10.904  16.106  0.00  0.00    +0.000 A 
ATOM     24  C   UNL     1      -3.981  11.475  17.366  0.00  0.00    +0.000 A 
ATOM     25  C   UNL     1      -2.804  11.215  18.087  0.00  0.00    +0.000 A 
ATOM     26  N   UNL     1      -2.533  11.768  19.378  0.00  0.00    +0.000 N 
ATOM     27  C   UNL     1      -3.459  12.659  20.054  0.00  0.00    +0.000 C 
ATOM     28  C   UNL     1      -1.355  11.485  20.073  0.00  0.00    +0.000 A 
ATOM     29  O   UNL     1      -1.109  11.945  21.191  0.00  0.00    +0.000 OA
ENDBRANCH  17  18
ENDBRANCH   6  17
TORSDOF 4
ENDMDL
MODEL 4
REMARK VINA RESULT:      -8.4      1.149      2.322
REMARK  Name = 
REMARK  6 active torsions:
REMARK  status: ('A' for Active; 'I' for Inactive)
REMARK    1  A    between atoms: C_1  and  C_2
REMARK    2  A    between atoms: C_5  and  C_6
REMARK    3  A    between atoms: C_6  and  C_7
REMARK    4  A    between atoms: N_12  and  C_13
REMARK    5  A    between atoms: C_13  and  C_14
REMARK    6  A    between atoms: N_22  and  C_23
REMARK                            x       y       z     vdW  Elec       q    Type
REMARK                         _______ _______ _______ _____ _____    ______ ____
ROOT
ATOM      1  C   UNL     1       9.115   9.740  18.282  0.00  0.00    +0.000 C 
ATOM      2  C   UNL     1       7.692   9.621  17.671  0.00  0.00    +0.000 C 
ATOM      3  N   UNL     1       7.823   8.196  17.905  0.00  0.00    +0.000 N 
ATOM      4  C   UNL     1       7.160   7.066  17.541  0.00  0.00    +0.000 C 
ATOM      5  O   UNL     1       7.439   5.969  18.021  0.00  0.00    +0.000 OA
ATOM      6  N   UNL     1       6.156   7.241  16.626  0.00  0.00    +0.000 N 
ATOM      7  C   UNL     1       8.861   8.349  18.907  0.00  0.00    +0.000 C 
ATOM      8  H   UNL     1       6.274   8.026  15.997  0.00  0.00    +0.000 HD
ENDROOT
BRANCH   1   9
ATOM      9  C   UNL     1       9.448  10.806  19.318  0.00  0.00    +0.000 C 
BRANCH   9  14
ATOM     10  C   UNL     1      11.196  15.713  16.691  0.00  0.00    +0.000 C 
ATOM     11  C   UNL     1      10.768  14.453  17.384  0.00  0.00    +0.000 A 
ATOM     12  C   UNL     1      11.394  13.233  17.109  0.00  0.00    +0.000 A 
ATOM     13  C   UNL     1      10.983  12.061  17.753  0.00  0.00    +0.000 A 
ATOM     14  C   UNL     1       9.935  12.085  18.682  0.00  0.00    +0.000 A 
ATOM     15  C   UNL     1       9.320  13.310  18.967  0.00  0.00    +0.000 A 
ATOM     16  C   UNL     1       9.731  14.484  18.324  0.00  0.00    +0.000 A 
ENDBRANCH   9  14
ENDBRANCH   1   9
BRANCH   6  17
ATOM     17  C   UNL     1       5.518   6.077  16.038  0.00  0.00    +0.000 C 
BRANCH  17  18
ATOM     18  C   UNL     1       4.473   5.503  16.948  0.00  0.00    +0.000 A 
ATOM     19  C   UNL     1       4.197   4.190  16.989  0.00  0.00    +0.000 A 
ATOM     20  C   UNL     1       3.116   3.668  17.820  0.00  0.00    +0.000 A 
ATOM     21  C   UNL     1       2.866   2.287  17.831  0.00  0.00    +0.000 A 
ATOM     22  C   UNL     1       1.838   1.764  18.608  0.00  0.00    +0.000 A 
ATOM     23  C   UNL     1       1.053   2.619  19.374  0.00  0.00    +0.000 A 
ATOM     24  C   UNL     1       1.295   3.999  19.360  0.00  0.00    +0.000 A 
ATOM     25  C   UNL     1       2.330   4.546  18.584  0.00  0.00    +0.000 A 
ATOM     26  N   UNL     1       2.623   5.944  18.536  0.00  0.00    +0.000 N 
ATOM     27  C   UNL     1       1.863   6.926  19.287  0.00  0.00    +0.000 C 
ATOM     28  C   UNL     1       3.664   6.457  17.758  0.00  0.00    +0.000 A 
ATOM     29  O   UNL     1       3.937   7.659  17.712  0.00  0.00    +0.000 OA
ENDBRANCH  17  18
ENDBRANCH   6  17
TORSDOF 4
ENDMDL
MODEL 5
REMARK VINA RESULT:      -8.3      6.046      9.581
REMARK  Name = 
REMARK  6 active torsions:
REMARK  status: ('A' for Active; 'I' for Inactive)
REMARK    1  A    between atoms: C_1  and  C_2
REMARK    2  A    between atoms: C_5  and  C_6
REMARK    3  A    between atoms: C_6  and  C_7
REMARK    4  A    between atoms: N_12  and  C_13
REMARK    5  A    between atoms: C_13  and  C_14
REMARK    6  A    between atoms: N_22  and  C_23
REMARK                            x       y       z     vdW  Elec       q    Type
REMARK                         _______ _______ _______ _____ _____    ______ ____
ROOT
ATOM      1  C   UNL     1      -1.183  11.165  21.537  0.00  0.00    +0.000 C 
ATOM      2  C   UNL     1      -0.068  10.085  21.595  0.00  0.00    +0.000 C 
ATOM      3  N   UNL     1       0.278  10.519  20.255  0.00  0.00    +0.000 N 
ATOM      4  C   UNL     1       1.063  10.069  19.240  0.00  0.00    +0.000 C 
ATOM      5  O   UNL     1       1.266  10.745  18.232  0.00  0.00    +0.000 OA
ATOM      6  N   UNL     1       1.619   8.833  19.427  0.00  0.00    +0.000 N 
ATOM      7  C   UNL     1      -0.370  11.810  20.391  0.00  0.00    +0.000 C 
ATOM      8  H   UNL     1       1.092   8.205  20.022  0.00  0.00    +0.000 HD
ENDROOT
BRANCH   1   9
ATOM      9  C   UNL     1      -1.429  12.116  22.700  0.00  0.00    +0.000 C 
BRANCH   9  14
ATOM     10  C   UNL     1      -7.060  13.386  23.554  0.00  0.00    +0.000 C 
ATOM     11  C   UNL     1      -5.618  13.031  23.336  0.00  0.00    +0.000 A 
ATOM     12  C   UNL     1      -4.801  12.648  24.404  0.00  0.00    +0.000 A 
ATOM     13  C   UNL     1      -3.456  12.329  24.194  0.00  0.00    +0.000 A 
ATOM     14  C   UNL     1      -2.898  12.390  22.910  0.00  0.00    +0.000 A 
ATOM     15  C   UNL     1      -3.722  12.760  21.839  0.00  0.00    +0.000 A 
ATOM     16  C   UNL     1      -5.069  13.080  22.048  0.00  0.00    +0.000 A 
ENDBRANCH   9  14
ENDBRANCH   1   9
BRANCH   6  17
ATOM     17  C   UNL     1       2.316   8.191  18.327  0.00  0.00    +0.000 C 
BRANCH  17  18
ATOM     18  C   UNL     1       2.717   6.787  18.674  0.00  0.00    +0.000 A 
ATOM     19  C   UNL     1       2.147   6.104  19.679  0.00  0.00    +0.000 A 
ATOM     20  C   UNL     1       2.615   4.772  20.051  0.00  0.00    +0.000 A 
ATOM     21  C   UNL     1       1.987   4.096  21.109  0.00  0.00    +0.000 A 
ATOM     22  C   UNL     1       2.417   2.829  21.488  0.00  0.00    +0.000 A 
ATOM     23  C   UNL     1       3.479   2.235  20.816  0.00  0.00    +0.000 A 
ATOM     24  C   UNL     1       4.113   2.909  19.765  0.00  0.00    +0.000 A 
ATOM     25  C   UNL     1       3.692   4.187  19.365  0.00  0.00    +0.000 A 
ATOM     26  N   UNL     1       4.299   4.919  18.297  0.00  0.00    +0.000 N 
ATOM     27  C   UNL     1       5.419   4.398  17.535  0.00  0.00    +0.000 C 
ATOM     28  C   UNL     1       3.853   6.187  17.919  0.00  0.00    +0.000 A 
ATOM     29  O   UNL     1       4.359   6.828  16.994  0.00  0.00    +0.000 OA
ENDBRANCH  17  18
ENDBRANCH   6  17
TORSDOF 4
ENDMDL
MODEL 6
REMARK VINA RESULT:      -8.3      5.860      9.431
REMARK  Name = 
REMARK  6 active torsions:
REMARK  status: ('A' for Active; 'I' for Inactive)
REMARK    1  A    between atoms: C_1  and  C_2
REMARK    2  A    between atoms: C_5  and  C_6
REMARK    3  A    between atoms: C_6  and  C_7
REMARK    4  A    between atoms: N_12  and  C_13
REMARK    5  A    between atoms: C_13  and  C_14
REMARK    6  A    between atoms: N_22  and  C_23
REMARK                            x       y       z     vdW  Elec       q    Type
REMARK                         _______ _______ _______ _____ _____    ______ ____
ROOT
ATOM      1  C   UNL     1      -1.243  11.836  19.081  0.00  0.00    +0.000 C 
ATOM      2  C   UNL     1      -0.628  10.456  19.444  0.00  0.00    +0.000 C 
ATOM      3  N   UNL     1       0.540  10.899  18.707  0.00  0.00    +0.000 N 
ATOM      4  C   UNL     1       1.678  10.336  18.221  0.00  0.00    +0.000 C 
ATOM      5  O   UNL     1       2.580  11.018  17.734  0.00  0.00    +0.000 OA
ATOM      6  N   UNL     1       1.756   8.974  18.331  0.00  0.00    +0.000 N 
ATOM      7  C   UNL     1       0.205  12.307  18.815  0.00  0.00    +0.000 C 
ATOM      8  H   UNL     1       0.867   8.487  18.328  0.00  0.00    +0.000 HD
ENDROOT
BRANCH   1   9
ATOM      9  C   UNL     1      -1.963  12.682  20.122  0.00  0.00    +0.000 C 
BRANCH   9  14
ATOM     10  C   UNL     1      -7.713  11.690  20.050  0.00  0.00    +0.000 C 
ATOM     11  C   UNL     1      -6.238  11.969  20.054  0.00  0.00    +0.000 A 
ATOM     12  C   UNL     1      -5.450  11.688  18.934  0.00  0.00    +0.000 A 
ATOM     13  C   UNL     1      -4.075  11.942  18.948  0.00  0.00    +0.000 A 
ATOM     14  C   UNL     1      -3.459  12.479  20.086  0.00  0.00    +0.000 A 
ATOM     15  C   UNL     1      -4.252  12.775  21.201  0.00  0.00    +0.000 A 
ATOM     16  C   UNL     1      -5.629  12.521  21.188  0.00  0.00    +0.000 A 
ENDBRANCH   9  14
ENDBRANCH   1   9
BRANCH   6  17
ATOM     17  C   UNL     1       2.841   8.267  17.676  0.00  0.00    +0.000 C 
BRANCH  17  18
ATOM     18  C   UNL     1       3.015   6.886  18.235  0.00  0.00    +0.000 A 
ATOM     19  C   UNL     1       2.232   6.402  19.211  0.00  0.00    +0.000 A 
ATOM     20  C   UNL     1       2.476   5.087  19.797  0.00  0.00    +0.000 A 
ATOM     21  C   UNL     1       1.630   4.622  20.816  0.00  0.00    +0.000 A 
ATOM     22  C   UNL     1       1.844   3.376  21.396  0.00  0.00    +0.000 A 
ATOM     23  C   UNL     1       2.908   2.592  20.964  0.00  0.00    +0.000 A 
ATOM     24  C   UNL     1       3.759   3.055  19.953  0.00  0.00    +0.000 A 
ATOM     25  C   UNL     1       3.558   4.309  19.353  0.00  0.00    +0.000 A 
ATOM     26  N   UNL     1       4.393   4.829  18.316  0.00  0.00    +0.000 N 
ATOM     27  C   UNL     1       5.535   4.099  17.796  0.00  0.00    +0.000 C 
ATOM     28  C   UNL     1       4.163   6.077  17.734  0.00  0.00    +0.000 A 
ATOM     29  O   UNL     1       4.867   6.537  16.831  0.00  0.00    +0.000 OA
ENDBRANCH  17  18
ENDBRANCH   6  17
TORSDOF 4
ENDMDL
MODEL 7
REMARK VINA RESULT:      -8.2      5.908      9.373
REMARK  Name = 
REMARK  6 active torsions:
REMARK  status: ('A' for Active; 'I' for Inactive)
REMARK    1  A    between atoms: C_1  and  C_2
REMARK    2  A    between atoms: C_5  and  C_6
REMARK    3  A    between atoms: C_6  and  C_7
REMARK    4  A    between atoms: N_12  and  C_13
REMARK    5  A    between atoms: C_13  and  C_14
REMARK    6  A    between atoms: N_22  and  C_23
REMARK                            x       y       z     vdW  Elec       q    Type
REMARK                         _______ _______ _______ _____ _____    ______ ____
ROOT
ATOM      1  C   UNL     1      -1.352  11.197  19.228  0.00  0.00    +0.000 C 
ATOM      2  C   UNL     1      -0.477   9.992  19.669  0.00  0.00    +0.000 C 
ATOM      3  N   UNL     1       0.527  10.523  18.767  0.00  0.00    +0.000 N 
ATOM      4  C   UNL     1       1.698  10.096  18.225  0.00  0.00    +0.000 C 
ATOM      5  O   UNL     1       2.421  10.848  17.572  0.00  0.00    +0.000 OA
ATOM      6  N   UNL     1       2.020   8.789  18.471  0.00  0.00    +0.000 N 
ATOM      7  C   UNL     1      -0.036  11.860  18.758  0.00  0.00    +0.000 C 
ATOM      8  H   UNL     1       1.233   8.168  18.618  0.00  0.00    +0.000 HD
ENDROOT
BRANCH   1   9
ATOM      9  C   UNL     1      -2.113  12.039  20.244  0.00  0.00    +0.000 C 
BRANCH   9  14
ATOM     10  C   UNL     1      -7.659  12.897  18.646  0.00  0.00    +0.000 C 
ATOM     11  C   UNL     1      -6.224  12.698  19.040  0.00  0.00    +0.000 A 
ATOM     12  C   UNL     1      -5.336  12.017  18.202  0.00  0.00    +0.000 A 
ATOM     13  C   UNL     1      -4.003  11.827  18.580  0.00  0.00    +0.000 A 
ATOM     14  C   UNL     1      -3.532  12.311  19.808  0.00  0.00    +0.000 A 
ATOM     15  C   UNL     1      -4.420  13.006  20.639  0.00  0.00    +0.000 A 
ATOM     16  C   UNL     1      -5.754  13.197  20.261  0.00  0.00    +0.000 A 
ENDBRANCH   9  14
ENDBRANCH   1   9
BRANCH   6  17
ATOM     17  C   UNL     1       3.150   8.191  17.783  0.00  0.00    +0.000 C 
BRANCH  17  18
ATOM     18  C   UNL     1       3.090   6.692  17.825  0.00  0.00    +0.000 A 
ATOM     19  C   UNL     1       2.181   6.029  18.556  0.00  0.00    +0.000 A 
ATOM     20  C   UNL     1       2.198   4.572  18.648  0.00  0.00    +0.000 A 
ATOM     21  C   UNL     1       1.226   3.923  19.424  0.00  0.00    +0.000 A 
ATOM     22  C   UNL     1       1.223   2.536  19.534  0.00  0.00    +0.000 A 
ATOM     23  C   UNL     1       2.196   1.794  18.874  0.00  0.00    +0.000 A 
ATOM     24  C   UNL     1       3.172   2.438  18.104  0.00  0.00    +0.000 A 
ATOM     25  C   UNL     1       3.189   3.837  17.978  0.00  0.00    +0.000 A 
ATOM     26  N   UNL     1       4.159   4.546  17.203  0.00  0.00    +0.000 N 
ATOM     27  C   UNL     1       5.223   3.872  16.481  0.00  0.00    +0.000 C 
ATOM     28  C   UNL     1       4.147   5.938  17.093  0.00  0.00    +0.000 A 
ATOM     29  O   UNL     1       4.969   6.566  16.420  0.00  0.00    +0.000 OA
ENDBRANCH  17  18
ENDBRANCH   6  17
TORSDOF 4
ENDMDL
MODEL 8
REMARK VINA RESULT:      -8.2      7.630     11.436
REMARK  Name = 
REMARK  6 active torsions:
REMARK  status: ('A' for Active; 'I' for Inactive)
REMARK    1  A    between atoms: C_1  and  C_2
REMARK    2  A    between atoms: C_5  and  C_6
REMARK    3  A    between atoms: C_6  and  C_7
REMARK    4  A    between atoms: N_12  and  C_13
REMARK    5  A    between atoms: C_13  and  C_14
REMARK    6  A    between atoms: N_22  and  C_23
REMARK                            x       y       z     vdW  Elec       q    Type
REMARK                         _______ _______ _______ _____ _____    ______ ____
ROOT
ATOM      1  C   UNL     1       1.083   8.205  20.639  0.00  0.00    +0.000 C 
ATOM      2  C   UNL     1       0.825   9.503  19.825  0.00  0.00    +0.000 C 
ATOM      3  N   UNL     1       0.469  10.105  21.096  0.00  0.00    +0.000 N 
ATOM      4  C   UNL     1      -0.126  11.253  21.517  0.00  0.00    +0.000 C 
ATOM      5  O   UNL     1      -0.175  11.557  22.708  0.00  0.00    +0.000 OA
ATOM      6  N   UNL     1      -0.645  12.045  20.528  0.00  0.00    +0.000 N 
ATOM      7  C   UNL     1       1.180   9.116  21.884  0.00  0.00    +0.000 C 
ATOM      8  H   UNL     1      -0.941  11.557  19.691  0.00  0.00    +0.000 HD
ENDROOT
BRANCH   1   9
ATOM      9  C   UNL     1       2.334   7.365  20.418  0.00  0.00    +0.000 C 
BRANCH   9  14
ATOM     10  C   UNL     1       0.858   2.017  18.612  0.00  0.00    +0.000 C 
ATOM     11  C   UNL     1       1.262   3.382  19.087  0.00  0.00    +0.000 A 
ATOM     12  C   UNL     1       1.112   3.751  20.427  0.00  0.00    +0.000 A 
ATOM     13  C   UNL     1       1.482   5.028  20.861  0.00  0.00    +0.000 A 
ATOM     14  C   UNL     1       2.006   5.965  19.960  0.00  0.00    +0.000 A 
ATOM     15  C   UNL     1       2.169   5.588  18.621  0.00  0.00    +0.000 A 
ATOM     16  C   UNL     1       1.799   4.309  18.187  0.00  0.00    +0.000 A 
ENDBRANCH   9  14
ENDBRANCH   1   9
BRANCH   6  17
ATOM     17  C   UNL     1      -1.460  13.191  20.887  0.00  0.00    +0.000 C 
BRANCH  17  18
ATOM     18  C   UNL     1      -2.924  12.890  20.753  0.00  0.00    +0.000 A 
ATOM     19  C   UNL     1      -3.787  13.049  21.767  0.00  0.00    +0.000 A 
ATOM     20  C   UNL     1      -5.190  12.667  21.636  0.00  0.00    +0.000 A 
ATOM     21  C   UNL     1      -6.056  12.854  22.724  0.00  0.00    +0.000 A 
ATOM     22  C   UNL     1      -7.396  12.492  22.628  0.00  0.00    +0.000 A 
ATOM     23  C   UNL     1      -7.874  11.937  21.447  0.00  0.00    +0.000 A 
ATOM     24  C   UNL     1      -7.011  11.742  20.361  0.00  0.00    +0.000 A 
ATOM     25  C   UNL     1      -5.656  12.104  20.437  0.00  0.00    +0.000 A 
ATOM     26  N   UNL     1      -4.733  11.931  19.359  0.00  0.00    +0.000 N 
ATOM     27  C   UNL     1      -5.122  11.354  18.085  0.00  0.00    +0.000 C 
ATOM     28  C   UNL     1      -3.392  12.306  19.463  0.00  0.00    +0.000 A 
ATOM     29  O   UNL     1      -2.584  12.174  18.540  0.00  0.00    +0.000 OA
ENDBRANCH  17  18
ENDBRANCH   6  17
TORSDOF 4
ENDMDL
MODEL 9
REMARK VINA RESULT:      -8.2      6.966     10.431
REMARK  Name = 
REMARK  6 active torsions:
REMARK  status: ('A' for Active; 'I' for Inactive)
REMARK    1  A    between atoms: C_1  and  C_2
REMARK    2  A    between atoms: C_5  and  C_6
REMARK    3  A    between atoms: C_6  and  C_7
REMARK    4  A    between atoms: N_12  and  C_13
REMARK    5  A    between atoms: C_13  and  C_14
REMARK    6  A    between atoms: N_22  and  C_23
REMARK                            x       y       z     vdW  Elec       q    Type
REMARK                         _______ _______ _______ _____ _____    ______ ____
ROOT
ATOM      1  C   UNL     1       1.977   8.181  18.146  0.00  0.00    +0.000 C 
ATOM      2  C   UNL     1       1.766   9.703  17.915  0.00  0.00    +0.000 C 
ATOM      3  N   UNL     1       1.192   9.719  19.248  0.00  0.00    +0.000 N 
ATOM      4  C   UNL     1       0.476  10.590  20.007  0.00  0.00    +0.000 C 
ATOM      5  O   UNL     1       0.235  10.367  21.193  0.00  0.00    +0.000 OA
ATOM      6  N   UNL     1       0.062  11.728  19.369  0.00  0.00    +0.000 N 
ATOM      7  C   UNL     1       1.837   8.485  19.655  0.00  0.00    +0.000 C 
ATOM      8  H   UNL     1      -0.079  11.638  18.369  0.00  0.00    +0.000 HD
ENDROOT
BRANCH   1   9
ATOM      9  C   UNL     1       3.294   7.501  17.796  0.00  0.00    +0.000 C 
BRANCH   9  14
ATOM     10  C   UNL     1       3.140   1.707  18.473  0.00  0.00    +0.000 C 
ATOM     11  C   UNL     1       3.168   3.201  18.324  0.00  0.00    +0.000 A 
ATOM     12  C   UNL     1       2.016   3.910  17.971  0.00  0.00    +0.000 A 
ATOM     13  C   UNL     1       2.052   5.301  17.825  0.00  0.00    +0.000 A 
ATOM     14  C   UNL     1       3.243   6.010  18.026  0.00  0.00    +0.000 A 
ATOM     15  C   UNL     1       4.392   5.299  18.396  0.00  0.00    +0.000 A 
ATOM     16  C   UNL     1       4.357   3.907  18.542  0.00  0.00    +0.000 A 
ENDBRANCH   9  14
ENDBRANCH   1   9
BRANCH   6  17
ATOM     17  C   UNL     1      -0.863  12.625  20.039  0.00  0.00    +0.000 C 
BRANCH  17  18
ATOM     18  C   UNL     1      -2.276  12.388  19.596  0.00  0.00    +0.000 A 
ATOM     19  C   UNL     1      -3.322  12.520  20.426  0.00  0.00    +0.000 A 
ATOM     20  C   UNL     1      -4.679  12.201  19.994  0.00  0.00    +0.000 A 
ATOM     21  C   UNL     1      -5.741  12.356  20.898  0.00  0.00    +0.000 A 
ATOM     22  C   UNL     1      -7.043  12.052  20.514  0.00  0.00    +0.000 A 
ATOM     23  C   UNL     1      -7.288  11.587  19.226  0.00  0.00    +0.000 A 
ATOM     24  C   UNL     1      -6.230  11.424  18.323  0.00  0.00    +0.000 A 
ATOM     25  C   UNL     1      -4.909  11.728  18.691  0.00  0.00    +0.000 A 
ATOM     26  N   UNL     1      -3.793  11.584  17.810  0.00  0.00    +0.000 N 
ATOM     27  C   UNL     1      -3.933  11.099  16.449  0.00  0.00    +0.000 C 
ATOM     28  C   UNL     1      -2.491  11.901  18.203  0.00  0.00    +0.000 A 
ATOM     29  O   UNL     1      -1.518  11.793  17.453  0.00  0.00    +0.000 OA
ENDBRANCH  17  18
ENDBRANCH   6  17
TORSDOF 4
ENDMDL
