MODEL 1
REMARK VINA RESULT:      -8.7      0.000      0.000
REMARK  Name = 
REMARK  6 active torsions:
REMARK  status: ('A' for Active; 'I' for Inactive)
REMARK    1  A    between atoms: C_1  and  C_2
REMARK    2  A    between atoms: C_2  and  C_3
REMARK    3  A    between atoms: C_2  and  C_10
REMARK    4  A    between atoms: N_8  and  C_9
REMARK    5  A    between atoms: C_14  and  N_15
REMARK    6  A    between atoms: C_22  and  C_23
REMARK                            x       y       z     vdW  Elec       q    Type
REMARK                         _______ _______ _______ _____ _____    ______ ____
ROOT
ATOM      1  C   UNL     1       0.836   9.315  19.734  0.00  0.00    +0.000 A 
ATOM      2  C   UNL     1       0.509   8.502  20.828  0.00  0.00    +0.000 A 
ATOM      3  C   UNL     1       1.278   7.379  21.130  0.00  0.00    +0.000 A 
ATOM      4  C   UNL     1       2.290   6.982  20.261  0.00  0.00    +0.000 A 
ATOM      5  C   UNL     1       2.396   7.615  19.018  0.00  0.00    +0.000 A 
ATOM      6  C   UNL     1       1.855   8.892  18.864  0.00  0.00    +0.000 A 
ENDROOT
BRANCH   5   7
ATOM      7  N   UNL     1       2.446   6.787  17.814  0.00  0.00    +0.000 N 
ATOM      8  C   UNL     1       1.596   5.574  17.981  0.00  0.00    +0.000 C 
ATOM      9  C   UNL     1       2.574   4.568  18.501  0.00  0.00    +0.000 A 
ATOM     10  C   UNL     1       3.844   4.949  18.068  0.00  0.00    +0.000 A 
ATOM     11  C   UNL     1       5.000   4.334  18.499  0.00  0.00    +0.000 A 
ATOM     12  C   UNL     1       4.872   3.293  19.422  0.00  0.00    +0.000 A 
ATOM     13  C   UNL     1       3.591   2.903  19.877  0.00  0.00    +0.000 A 
ATOM     14  C   UNL     1       2.414   3.528  19.423  0.00  0.00    +0.000 A 
ATOM     15  C   UNL     1       3.739   6.299  17.469  0.00  0.00    +0.000 C 
ATOM     16  O   UNL     1       4.670   6.911  16.986  0.00  0.00    +0.000 OA
BRANCH  14  17
ATOM     17  C   UNL     1       1.088   3.116  20.006  0.00  0.00    +0.000 C 
ATOM     18  F   UNL     1       0.325   4.150  20.450  0.00  0.00    +0.000 F 
ATOM     19  F   UNL     1       0.313   2.460  19.098  0.00  0.00    +0.000 F 
ATOM     20  F   UNL     1       1.220   2.262  21.061  0.00  0.00    +0.000 F 
ENDBRANCH  14  17
ENDBRANCH   5   7
BRANCH   1  22
ATOM     21  C   UNL     1       0.986  11.786  19.520  0.00  0.00    +0.000 C 
ATOM     22  C   UNL     1       0.042  10.583  19.451  0.00  0.00    +0.000 C 
BRANCH  22  23
ATOM     23  C   UNL     1      -0.678  10.537  18.122  0.00  0.00    +0.000 C 
ATOM     24  C   UNL     1      -1.948  10.865  17.830  0.00  0.00    +0.000 C 
ATOM     25  C   UNL     1      -2.490  10.616  16.437  0.00  0.00    +0.000 C 
ATOM     26  C   UNL     1      -3.986  10.897  16.544  0.00  0.00    +0.000 C 
ATOM     27  C   UNL     1      -4.278  11.141  18.021  0.00  0.00    +0.000 C 
ATOM     28  N   UNL     1      -2.966  11.347  18.633  0.00  0.00    +0.000 N 
ATOM     29  C   UNL     1      -2.838  12.457  19.565  0.00  0.00    +0.000 C 
ENDBRANCH  22  23
ENDBRANCH   1  22
TORSDOF 4
ENDMDL
MODEL 2
REMARK VINA RESULT:      -8.5      3.493      5.016
REMARK  Name = 
REMARK  6 active torsions:
REMARK  status: ('A' for Active; 'I' for Inactive)
REMARK    1  A    between atoms: C_1  and  C_2
REMARK    2  A    between atoms: C_2  and  C_3
REMARK    3  A    between atoms: C_2  and  C_10
REMARK    4  A    between atoms: N_8  and  C_9
REMARK    5  A    between atoms: C_14  and  N_15
REMARK    6  A    between atoms: C_22  and  C_23
REMARK                            x       y       z     vdW  Elec       q    Type
REMARK                         _______ _______ _______ _____ _____    ______ ____
ROOT
ATOM      1  C   UNL     1       2.249   5.792  20.171  0.00  0.00    +0.000 A 
ATOM      2  C   UNL     1       1.121   5.038  20.525  0.00  0.00    +0.000 A 
ATOM      3  C   UNL     1       1.231   3.667  20.753  0.00  0.00    +0.000 A 
ATOM      4  C   UNL     1       2.433   3.018  20.492  0.00  0.00    +0.000 A 
ATOM      5  C   UNL     1       3.450   3.723  19.838  0.00  0.00    +0.000 A 
ATOM      6  C   UNL     1       3.450   5.117  19.902  0.00  0.00    +0.000 A 
ENDROOT
BRANCH   5   7
ATOM      7  N   UNL     1       4.056   3.131  18.647  0.00  0.00    +0.000 N 
ATOM      8  C   UNL     1       5.528   3.369  18.639  0.00  0.00    +0.000 C 
ATOM      9  C   UNL     1       5.641   4.637  17.852  0.00  0.00    +0.000 A 
ATOM     10  C   UNL     1       4.526   4.718  17.018  0.00  0.00    +0.000 A 
ATOM     11  C   UNL     1       4.229   5.838  16.270  0.00  0.00    +0.000 A 
ATOM     12  C   UNL     1       5.089   6.933  16.378  0.00  0.00    +0.000 A 
ATOM     13  C   UNL     1       6.218   6.868  17.228  0.00  0.00    +0.000 A 
ATOM     14  C   UNL     1       6.522   5.717  17.980  0.00  0.00    +0.000 A 
ATOM     15  C   UNL     1       3.582   3.647  17.407  0.00  0.00    +0.000 C 
ATOM     16  O   UNL     1       2.515   3.440  16.865  0.00  0.00    +0.000 OA
BRANCH  14  17
ATOM     17  C   UNL     1       7.695   5.741  18.924  0.00  0.00    +0.000 C 
ATOM     18  F   UNL     1       7.360   5.625  20.237  0.00  0.00    +0.000 F 
ATOM     19  F   UNL     1       8.565   4.721  18.682  0.00  0.00    +0.000 F 
ATOM     20  F   UNL     1       8.431   6.884  18.819  0.00  0.00    +0.000 F 
ENDBRANCH  14  17
ENDBRANCH   5   7
BRANCH   1  22
ATOM     21  C   UNL     1       1.885   7.614  18.521  0.00  0.00    +0.000 C 
ATOM     22  C   UNL     1       2.143   7.301  19.997  0.00  0.00    +0.000 C 
BRANCH  22  23
ATOM     23  C   UNL     1       1.074   7.916  20.873  0.00  0.00    +0.000 C 
ATOM     24  C   UNL     1       0.675   9.196  20.958  0.00  0.00    +0.000 C 
ATOM     25  C   UNL     1      -0.337   9.603  22.009  0.00  0.00    +0.000 C 
ATOM     26  C   UNL     1      -0.374  11.127  21.947  0.00  0.00    +0.000 C 
ATOM     27  C   UNL     1       0.729  11.550  20.981  0.00  0.00    +0.000 C 
ATOM     28  N   UNL     1       1.098  10.323  20.276  0.00  0.00    +0.000 N 
ATOM     29  C   UNL     1       1.260  10.413  18.833  0.00  0.00    +0.000 C 
ENDBRANCH  22  23
ENDBRANCH   1  22
TORSDOF 4
ENDMDL
MODEL 3
REMARK VINA RESULT:      -8.5      2.944      3.967
REMARK  Name = 
REMARK  6 active torsions:
REMARK  status: ('A' for Active; 'I' for Inactive)
REMARK    1  A    between atoms: C_1  and  C_2
REMARK    2  A    between atoms: C_2  and  C_3
REMARK    3  A    between atoms: C_2  and  C_10
REMARK    4  A    between atoms: N_8  and  C_9
REMARK    5  A    between atoms: C_14  and  N_15
REMARK    6  A    between atoms: C_22  and  C_23
REMARK                            x       y       z     vdW  Elec       q    Type
REMARK                         _______ _______ _______ _____ _____    ______ ____
ROOT
ATOM      1  C   UNL     1       1.232   8.839  19.988  0.00  0.00    +0.000 A 
ATOM      2  C   UNL     1       1.746   9.337  18.783  0.00  0.00    +0.000 A 
ATOM      3  C   UNL     1       2.284   8.470  17.831  0.00  0.00    +0.000 A 
ATOM      4  C   UNL     1       2.440   7.123  18.137  0.00  0.00    +0.000 A 
ATOM      5  C   UNL     1       2.220   6.700  19.452  0.00  0.00    +0.000 A 
ATOM      6  C   UNL     1       1.409   7.477  20.281  0.00  0.00    +0.000 A 
ENDROOT
BRANCH   5   7
ATOM      7  N   UNL     1       3.258   5.915  20.118  0.00  0.00    +0.000 N 
ATOM      8  C   UNL     1       4.411   5.691  19.199  0.00  0.00    +0.000 C 
ATOM      9  C   UNL     1       4.067   4.378  18.570  0.00  0.00    +0.000 A 
ATOM     10  C   UNL     1       3.238   3.688  19.456  0.00  0.00    +0.000 A 
ATOM     11  C   UNL     1       2.603   2.510  19.126  0.00  0.00    +0.000 A 
ATOM     12  C   UNL     1       2.803   2.007  17.838  0.00  0.00    +0.000 A 
ATOM     13  C   UNL     1       3.633   2.701  16.927  0.00  0.00    +0.000 A 
ATOM     14  C   UNL     1       4.287   3.899  17.275  0.00  0.00    +0.000 A 
ATOM     15  C   UNL     1       2.855   4.617  20.543  0.00  0.00    +0.000 C 
ATOM     16  O   UNL     1       2.145   4.320  21.483  0.00  0.00    +0.000 OA
BRANCH  14  17
ATOM     17  C   UNL     1       5.094   4.627  16.233  0.00  0.00    +0.000 C 
ATOM     18  F   UNL     1       4.703   5.911  16.017  0.00  0.00    +0.000 F 
ATOM     19  F   UNL     1       6.413   4.704  16.570  0.00  0.00    +0.000 F 
ATOM     20  F   UNL     1       5.063   4.011  15.016  0.00  0.00    +0.000 F 
ENDBRANCH  14  17
ENDBRANCH   5   7
BRANCH   1  22
ATOM     21  C   UNL     1       0.822   9.244  22.405  0.00  0.00    +0.000 C 
ATOM     22  C   UNL     1       0.577   9.777  20.992  0.00  0.00    +0.000 C 
BRANCH  22  23
ATOM     23  C   UNL     1       1.062  11.204  20.862  0.00  0.00    +0.000 C 
ATOM     24  C   UNL     1       0.575  12.204  20.109  0.00  0.00    +0.000 C 
ATOM     25  C   UNL     1       1.310  13.527  20.046  0.00  0.00    +0.000 C 
ATOM     26  C   UNL     1       0.600  14.316  18.949  0.00  0.00    +0.000 C 
ATOM     27  C   UNL     1      -0.409  13.365  18.313  0.00  0.00    +0.000 C 
ATOM     28  N   UNL     1      -0.506  12.245  19.248  0.00  0.00    +0.000 N 
ATOM     29  C   UNL     1      -1.841  11.759  19.561  0.00  0.00    +0.000 C 
ENDBRANCH  22  23
ENDBRANCH   1  22
TORSDOF 4
ENDMDL
MODEL 4
REMARK VINA RESULT:      -8.3      3.322      8.051
REMARK  Name = 
REMARK  6 active torsions:
REMARK  status: ('A' for Active; 'I' for Inactive)
REMARK    1  A    between atoms: C_1  and  C_2
REMARK    2  A    between atoms: C_2  and  C_3
REMARK    3  A    between atoms: C_2  and  C_10
REMARK    4  A    between atoms: N_8  and  C_9
REMARK    5  A    between atoms: C_14  and  N_15
REMARK    6  A    between atoms: C_22  and  C_23
REMARK                            x       y       z     vdW  Elec       q    Type
REMARK                         _______ _______ _______ _____ _____    ______ ____
ROOT
ATOM      1  C   UNL     1       2.360   6.884  19.492  0.00  0.00    +0.000 A 
ATOM      2  C   UNL     1       2.255   7.328  18.166  0.00  0.00    +0.000 A 
ATOM      3  C   UNL     1       1.902   8.649  17.889  0.00  0.00    +0.000 A 
ATOM      4  C   UNL     1       1.514   9.491  18.925  0.00  0.00    +0.000 A 
ATOM      5  C   UNL     1       1.317   8.945  20.199  0.00  0.00    +0.000 A 
ATOM      6  C   UNL     1       1.955   7.747  20.523  0.00  0.00    +0.000 A 
ENDROOT
BRANCH   5   7
ATOM      7  N   UNL     1       0.054   9.210  20.885  0.00  0.00    +0.000 N 
ATOM      8  C   UNL     1      -1.084   9.143  19.925  0.00  0.00    +0.000 C 
ATOM      9  C   UNL     1      -1.223  10.569  19.494  0.00  0.00    +0.000 A 
ATOM     10  C   UNL     1      -0.713  11.371  20.516  0.00  0.00    +0.000 A 
ATOM     11  C   UNL     1      -0.538  12.732  20.384  0.00  0.00    +0.000 A 
ATOM     12  C   UNL     1      -0.879  13.312  19.161  0.00  0.00    +0.000 A 
ATOM     13  C   UNL     1      -1.388  12.509  18.112  0.00  0.00    +0.000 A 
ATOM     14  C   UNL     1      -1.575  11.121  18.258  0.00  0.00    +0.000 A 
ATOM     15  C   UNL     1      -0.044  10.491  21.500  0.00  0.00    +0.000 C 
ATOM     16  O   UNL     1       0.495  10.880  22.517  0.00  0.00    +0.000 OA
BRANCH  14  17
ATOM     17  C   UNL     1      -2.047  10.313  17.078  0.00  0.00    +0.000 C 
ATOM     18  F   UNL     1      -2.283  11.044  15.956  0.00  0.00    +0.000 F 
ATOM     19  F   UNL     1      -1.136   9.369  16.709  0.00  0.00    +0.000 F 
ATOM     20  F   UNL     1      -3.200   9.630  17.335  0.00  0.00    +0.000 F 
ENDBRANCH  14  17
ENDBRANCH   5   7
BRANCH   1  22
ATOM     21  C   UNL     1       1.742   4.757  20.616  0.00  0.00    +0.000 C 
ATOM     22  C   UNL     1       2.821   5.465  19.794  0.00  0.00    +0.000 C 
BRANCH  22  23
ATOM     23  C   UNL     1       3.150   4.679  18.544  0.00  0.00    +0.000 C 
ATOM     24  C   UNL     1       4.294   4.637  17.841  0.00  0.00    +0.000 C 
ATOM     25  C   UNL     1       4.350   3.866  16.539  0.00  0.00    +0.000 C 
ATOM     26  C   UNL     1       5.704   4.223  15.931  0.00  0.00    +0.000 C 
ATOM     27  C   UNL     1       6.308   5.305  16.821  0.00  0.00    +0.000 C 
ATOM     28  N   UNL     1       5.504   5.275  18.042  0.00  0.00    +0.000 N 
ATOM     29  C   UNL     1       6.222   5.323  19.307  0.00  0.00    +0.000 C 
ENDBRANCH  22  23
ENDBRANCH   1  22
TORSDOF 4
ENDMDL
MODEL 5
REMARK VINA RESULT:      -8.3      3.293      4.022
REMARK  Name = 
REMARK  6 active torsions:
REMARK  status: ('A' for Active; 'I' for Inactive)
REMARK    1  A    between atoms: C_1  and  C_2
REMARK    2  A    between atoms: C_2  and  C_3
REMARK    3  A    between atoms: C_2  and  C_10
REMARK    4  A    between atoms: N_8  and  C_9
REMARK    5  A    between atoms: C_14  and  N_15
REMARK    6  A    between atoms: C_22  and  C_23
REMARK                            x       y       z     vdW  Elec       q    Type
REMARK                         _______ _______ _______ _____ _____    ______ ____
ROOT
ATOM      1  C   UNL     1       1.243   8.689  20.110  0.00  0.00    +0.000 A 
ATOM      2  C   UNL     1       1.772   9.208  18.920  0.00  0.00    +0.000 A 
ATOM      3  C   UNL     1       2.324   8.359  17.962  0.00  0.00    +0.000 A 
ATOM      4  C   UNL     1       2.479   7.006  18.246  0.00  0.00    +0.000 A 
ATOM      5  C   UNL     1       2.241   6.561  19.551  0.00  0.00    +0.000 A 
ATOM      6  C   UNL     1       1.417   7.322  20.382  0.00  0.00    +0.000 A 
ENDROOT
BRANCH   5   7
ATOM      7  N   UNL     1       3.270   5.766  20.217  0.00  0.00    +0.000 N 
ATOM      8  C   UNL     1       4.438   5.563  19.313  0.00  0.00    +0.000 C 
ATOM      9  C   UNL     1       4.108   4.261  18.653  0.00  0.00    +0.000 A 
ATOM     10  C   UNL     1       3.268   3.552  19.512  0.00  0.00    +0.000 A 
ATOM     11  C   UNL     1       2.642   2.379  19.150  0.00  0.00    +0.000 A 
ATOM     12  C   UNL     1       2.863   1.902  17.856  0.00  0.00    +0.000 A 
ATOM     13  C   UNL     1       3.706   2.616  16.971  0.00  0.00    +0.000 A 
ATOM     14  C   UNL     1       4.350   3.808  17.352  0.00  0.00    +0.000 A 
ATOM     15  C   UNL     1       2.865   4.459  20.611  0.00  0.00    +0.000 C 
ATOM     16  O   UNL     1       2.141   4.141  21.534  0.00  0.00    +0.000 OA
BRANCH  14  17
ATOM     17  C   UNL     1       5.171   4.559  16.337  0.00  0.00    +0.000 C 
ATOM     18  F   UNL     1       6.469   4.750  16.696  0.00  0.00    +0.000 F 
ATOM     19  F   UNL     1       5.220   3.910  15.140  0.00  0.00    +0.000 F 
ATOM     20  F   UNL     1       4.667   5.797  16.064  0.00  0.00    +0.000 F 
ENDBRANCH  14  17
ENDBRANCH   5   7
BRANCH   1  22
ATOM     21  C   UNL     1       1.151   9.330  22.509  0.00  0.00    +0.000 C 
ATOM     22  C   UNL     1       0.572   9.609  21.120  0.00  0.00    +0.000 C 
BRANCH  22  23
ATOM     23  C   UNL     1       0.712  11.072  20.761  0.00  0.00    +0.000 C 
ATOM     24  C   UNL     1      -0.134  12.090  20.992  0.00  0.00    +0.000 C 
ATOM     25  C   UNL     1       0.166  13.462  20.424  0.00  0.00    +0.000 C 
ATOM     26  C   UNL     1      -1.094  14.280  20.696  0.00  0.00    +0.000 C 
ATOM     27  C   UNL     1      -2.127  13.313  21.264  0.00  0.00    +0.000 C 
ATOM     28  N   UNL     1      -1.363  12.120  21.626  0.00  0.00    +0.000 N 
ATOM     29  C   UNL     1      -1.648  11.520  22.920  0.00  0.00    +0.000 C 
ENDBRANCH  22  23
ENDBRANCH   1  22
TORSDOF 4
ENDMDL
MODEL 6
REMARK VINA RESULT:      -8.3      1.508      2.618
REMARK  Name = 
REMARK  6 active torsions:
REMARK  status: ('A' for Active; 'I' for Inactive)
REMARK    1  A    between atoms: C_1  and  C_2
REMARK    2  A    between atoms: C_2  and  C_3
REMARK    3  A    between atoms: C_2  and  C_10
REMARK    4  A    between atoms: N_8  and  C_9
REMARK    5  A    between atoms: C_14  and  N_15
REMARK    6  A    between atoms: C_22  and  C_23
REMARK                            x       y       z     vdW  Elec       q    Type
REMARK                         _______ _______ _______ _____ _____    ______ ____
ROOT
ATOM      1  C   UNL     1       0.940   9.280  19.401  0.00  0.00    +0.000 A 
ATOM      2  C   UNL     1       0.675   8.553  20.570  0.00  0.00    +0.000 A 
ATOM      3  C   UNL     1       1.485   7.477  20.932  0.00  0.00    +0.000 A 
ATOM      4  C   UNL     1       2.473   7.033  20.060  0.00  0.00    +0.000 A 
ATOM      5  C   UNL     1       2.515   7.563  18.765  0.00  0.00    +0.000 A 
ATOM      6  C   UNL     1       1.935   8.810  18.529  0.00  0.00    +0.000 A 
ENDROOT
BRANCH   5   7
ATOM      7  N   UNL     1       2.542   6.639  17.633  0.00  0.00    +0.000 N 
ATOM      8  C   UNL     1       1.651   5.473  17.891  0.00  0.00    +0.000 C 
ATOM      9  C   UNL     1       2.592   4.480  18.496  0.00  0.00    +0.000 A 
ATOM     10  C   UNL     1       3.876   4.782  18.042  0.00  0.00    +0.000 A 
ATOM     11  C   UNL     1       5.009   4.166  18.529  0.00  0.00    +0.000 A 
ATOM     12  C   UNL     1       4.842   3.208  19.532  0.00  0.00    +0.000 A 
ATOM     13  C   UNL     1       3.547   2.898  20.009  0.00  0.00    +0.000 A 
ATOM     14  C   UNL     1       2.393   3.524  19.498  0.00  0.00    +0.000 A 
ATOM     15  C   UNL     1       3.819   6.082  17.336  0.00  0.00    +0.000 C 
ATOM     16  O   UNL     1       4.772   6.622  16.812  0.00  0.00    +0.000 OA
BRANCH  14  17
ATOM     17  C   UNL     1       1.052   3.205  20.104  0.00  0.00    +0.000 C 
ATOM     18  F   UNL     1       0.349   4.294  20.515  0.00  0.00    +0.000 F 
ATOM     19  F   UNL     1       0.235   2.559  19.224  0.00  0.00    +0.000 F 
ATOM     20  F   UNL     1       1.146   2.383  21.188  0.00  0.00    +0.000 F 
ENDBRANCH  14  17
ENDBRANCH   5   7
BRANCH   1  22
ATOM     21  C   UNL     1      -0.832  10.144  17.888  0.00  0.00    +0.000 C 
ATOM     22  C   UNL     1       0.102  10.501  19.047  0.00  0.00    +0.000 C 
BRANCH  22  23
ATOM     23  C   UNL     1      -0.681  11.034  20.227  0.00  0.00    +0.000 C 
ATOM     24  C   UNL     1      -0.549  12.201  20.879  0.00  0.00    +0.000 C 
ATOM     25  C   UNL     1      -1.372  12.466  22.123  0.00  0.00    +0.000 C 
ATOM     26  C   UNL     1      -0.804  13.761  22.698  0.00  0.00    +0.000 C 
ATOM     27  C   UNL     1       0.422  14.108  21.860  0.00  0.00    +0.000 C 
ATOM     28  N   UNL     1       0.315  13.261  20.673  0.00  0.00    +0.000 N 
ATOM     29  C   UNL     1       0.571  13.890  19.387  0.00  0.00    +0.000 C 
ENDBRANCH  22  23
ENDBRANCH   1  22
TORSDOF 4
ENDMDL
MODEL 7
REMARK VINA RESULT:      -8.3      3.347      7.940
REMARK  Name = 
REMARK  6 active torsions:
REMARK  status: ('A' for Active; 'I' for Inactive)
REMARK    1  A    between atoms: C_1  and  C_2
REMARK    2  A    between atoms: C_2  and  C_3
REMARK    3  A    between atoms: C_2  and  C_10
REMARK    4  A    between atoms: N_8  and  C_9
REMARK    5  A    between atoms: C_14  and  N_15
REMARK    6  A    between atoms: C_22  and  C_23
REMARK                            x       y       z     vdW  Elec       q    Type
REMARK                         _______ _______ _______ _____ _____    ______ ____
ROOT
ATOM      1  C   UNL     1       2.461   6.294  18.877  0.00  0.00    +0.000 A 
ATOM      2  C   UNL     1       2.267   7.043  17.708  0.00  0.00    +0.000 A 
ATOM      3  C   UNL     1       2.065   8.421  17.777  0.00  0.00    +0.000 A 
ATOM      4  C   UNL     1       1.915   9.035  19.016  0.00  0.00    +0.000 A 
ATOM      5  C   UNL     1       1.792   8.232  20.155  0.00  0.00    +0.000 A 
ATOM      6  C   UNL     1       2.295   6.930  20.118  0.00  0.00    +0.000 A 
ENDROOT
BRANCH   5   7
ATOM      7  N   UNL     1       0.663   8.461  21.054  0.00  0.00    +0.000 N 
ATOM      8  C   UNL     1      -0.583   8.703  20.273  0.00  0.00    +0.000 C 
ATOM      9  C   UNL     1      -0.601  10.195  20.156  0.00  0.00    +0.000 A 
ATOM     10  C   UNL     1       0.121  10.713  21.231  0.00  0.00    +0.000 A 
ATOM     11  C   UNL     1       0.441  12.049  21.346  0.00  0.00    +0.000 A 
ATOM     12  C   UNL     1       0.026  12.903  20.322  0.00  0.00    +0.000 A 
ATOM     13  C   UNL     1      -0.699  12.390  19.221  0.00  0.00    +0.000 A 
ATOM     14  C   UNL     1      -1.032  11.026  19.116  0.00  0.00    +0.000 A 
ATOM     15  C   UNL     1       0.794   9.587  21.916  0.00  0.00    +0.000 C 
ATOM     16  O   UNL     1       1.495   9.702  22.902  0.00  0.00    +0.000 OA
BRANCH  14  17
ATOM     17  C   UNL     1      -1.738  10.532  17.880  0.00  0.00    +0.000 C 
ATOM     18  F   UNL     1      -2.115  11.515  17.020  0.00  0.00    +0.000 F 
ATOM     19  F   UNL     1      -0.954   9.692  17.147  0.00  0.00    +0.000 F 
ATOM     20  F   UNL     1      -2.867   9.823  18.166  0.00  0.00    +0.000 F 
ENDBRANCH  14  17
ENDBRANCH   5   7
BRANCH   1  22
ATOM     21  C   UNL     1       1.443   4.027  18.915  0.00  0.00    +0.000 C 
ATOM     22  C   UNL     1       2.757   4.802  18.796  0.00  0.00    +0.000 C 
BRANCH  22  23
ATOM     23  C   UNL     1       3.495   4.421  17.531  0.00  0.00    +0.000 C 
ATOM     24  C   UNL     1       4.750   4.715  17.157  0.00  0.00    +0.000 C 
ATOM     25  C   UNL     1       5.236   4.327  15.775  0.00  0.00    +0.000 C 
ATOM     26  C   UNL     1       6.596   5.005  15.634  0.00  0.00    +0.000 C 
ATOM     27  C   UNL     1       6.774   5.885  16.868  0.00  0.00    +0.000 C 
ATOM     28  N   UNL     1       5.743   5.431  17.801  0.00  0.00    +0.000 N 
ATOM     29  C   UNL     1       6.145   5.239  19.186  0.00  0.00    +0.000 C 
ENDBRANCH  22  23
ENDBRANCH   1  22
TORSDOF 4
ENDMDL
MODEL 8
REMARK VINA RESULT:      -8.2      4.164      8.535
REMARK  Name = 
REMARK  6 active torsions:
REMARK  status: ('A' for Active; 'I' for Inactive)
REMARK    1  A    between atoms: C_1  and  C_2
REMARK    2  A    between atoms: C_2  and  C_3
REMARK    3  A    between atoms: C_2  and  C_10
REMARK    4  A    between atoms: N_8  and  C_9
REMARK    5  A    between atoms: C_14  and  N_15
REMARK    6  A    between atoms: C_22  and  C_23
REMARK                            x       y       z     vdW  Elec       q    Type
REMARK                         _______ _______ _______ _____ _____    ______ ____
ROOT
ATOM      1  C   UNL     1       2.410   7.099  19.445  0.00  0.00    +0.000 A 
ATOM      2  C   UNL     1       2.706   7.613  18.175  0.00  0.00    +0.000 A 
ATOM      3  C   UNL     1       2.392   8.933  17.855  0.00  0.00    +0.000 A 
ATOM      4  C   UNL     1       1.656   9.703  18.749  0.00  0.00    +0.000 A 
ATOM      5  C   UNL     1       1.095   9.081  19.871  0.00  0.00    +0.000 A 
ATOM      6  C   UNL     1       1.657   7.889  20.330  0.00  0.00    +0.000 A 
ENDROOT
BRANCH   5   7
ATOM      7  N   UNL     1      -0.331   9.264  20.131  0.00  0.00    +0.000 N 
ATOM      8  C   UNL     1      -0.888  10.334  19.255  0.00  0.00    +0.000 C 
ATOM      9  C   UNL     1      -0.755  11.551  20.115  0.00  0.00    +0.000 A 
ATOM     10  C   UNL     1      -0.754  11.132  21.445  0.00  0.00    +0.000 A 
ATOM     11  C   UNL     1      -0.487  11.980  22.499  0.00  0.00    +0.000 A 
ATOM     12  C   UNL     1      -0.192  13.312  22.197  0.00  0.00    +0.000 A 
ATOM     13  C   UNL     1      -0.180  13.748  20.851  0.00  0.00    +0.000 A 
ATOM     14  C   UNL     1      -0.465  12.879  19.781  0.00  0.00    +0.000 A 
ATOM     15  C   UNL     1      -0.658   9.655  21.461  0.00  0.00    +0.000 C 
ATOM     16  O   UNL     1      -0.646   8.977  22.469  0.00  0.00    +0.000 OA
BRANCH  14  17
ATOM     17  C   UNL     1      -0.358  13.389  18.368  0.00  0.00    +0.000 C 
ATOM     18  F   UNL     1      -1.234  12.818  17.499  0.00  0.00    +0.000 F 
ATOM     19  F   UNL     1      -0.594  14.729  18.291  0.00  0.00    +0.000 F 
ATOM     20  F   UNL     1       0.883  13.203  17.834  0.00  0.00    +0.000 F 
ENDBRANCH  14  17
ENDBRANCH   5   7
BRANCH   1  22
ATOM     21  C   UNL     1       1.732   5.062  20.695  0.00  0.00    +0.000 C 
ATOM     22  C   UNL     1       2.822   5.682  19.819  0.00  0.00    +0.000 C 
BRANCH  22  23
ATOM     23  C   UNL     1       3.099   4.816  18.609  0.00  0.00    +0.000 C 
ATOM     24  C   UNL     1       4.234   4.676  17.905  0.00  0.00    +0.000 C 
ATOM     25  C   UNL     1       4.240   3.837  16.643  0.00  0.00    +0.000 C 
ATOM     26  C   UNL     1       5.607   4.088  16.014  0.00  0.00    +0.000 C 
ATOM     27  C   UNL     1       6.276   5.178  16.845  0.00  0.00    +0.000 C 
ATOM     28  N   UNL     1       5.479   5.255  18.069  0.00  0.00    +0.000 N 
ATOM     29  C   UNL     1       6.206   5.327  19.327  0.00  0.00    +0.000 C 
ENDBRANCH  22  23
ENDBRANCH   1  22
TORSDOF 4
ENDMDL
MODEL 9
REMARK VINA RESULT:      -8.1      4.922      7.080
REMARK  Name = 
REMARK  6 active torsions:
REMARK  status: ('A' for Active; 'I' for Inactive)
REMARK    1  A    between atoms: C_1  and  C_2
REMARK    2  A    between atoms: C_2  and  C_3
REMARK    3  A    between atoms: C_2  and  C_10
REMARK    4  A    between atoms: N_8  and  C_9
REMARK    5  A    between atoms: C_14  and  N_15
REMARK    6  A    between atoms: C_22  and  C_23
REMARK                            x       y       z     vdW  Elec       q    Type
REMARK                         _______ _______ _______ _____ _____    ______ ____
ROOT
ATOM      1  C   UNL     1      -3.911  11.354  17.971  0.00  0.00    +0.000 A 
ATOM      2  C   UNL     1      -3.916  10.945  16.630  0.00  0.00    +0.000 A 
ATOM      3  C   UNL     1      -2.899  10.129  16.137  0.00  0.00    +0.000 A 
ATOM      4  C   UNL     1      -1.802   9.833  16.938  0.00  0.00    +0.000 A 
ATOM      5  C   UNL     1      -1.657  10.506  18.156  0.00  0.00    +0.000 A 
ATOM      6  C   UNL     1      -2.790  11.054  18.761  0.00  0.00    +0.000 A 
ENDROOT
BRANCH   5   7
ATOM      7  N   UNL     1      -0.388  11.173  18.441  0.00  0.00    +0.000 N 
ATOM      8  C   UNL     1       0.348  10.452  19.518  0.00  0.00    +0.000 C 
ATOM      9  C   UNL     1      -0.103  11.172  20.750  0.00  0.00    +0.000 A 
ATOM     10  C   UNL     1      -0.483  12.461  20.372  0.00  0.00    +0.000 A 
ATOM     11  C   UNL     1      -1.101  13.343  21.231  0.00  0.00    +0.000 A 
ATOM     12  C   UNL     1      -1.362  12.903  22.531  0.00  0.00    +0.000 A 
ATOM     13  C   UNL     1      -0.991  11.596  22.925  0.00  0.00    +0.000 A 
ATOM     14  C   UNL     1      -0.350  10.704  22.044  0.00  0.00    +0.000 A 
ATOM     15  C   UNL     1      -0.499  12.519  18.893  0.00  0.00    +0.000 C 
ATOM     16  O   UNL     1      -0.779  13.509  18.246  0.00  0.00    +0.000 OA
BRANCH  14  17
ATOM     17  C   UNL     1      -0.052   9.300  22.504  0.00  0.00    +0.000 C 
ATOM     18  F   UNL     1      -0.193   9.107  23.842  0.00  0.00    +0.000 F 
ATOM     19  F   UNL     1      -0.876   8.387  21.918  0.00  0.00    +0.000 F 
ATOM     20  F   UNL     1       1.215   8.903  22.194  0.00  0.00    +0.000 F 
ENDBRANCH  14  17
ENDBRANCH   5   7
BRANCH   1  22
ATOM     21  C   UNL     1      -6.378  11.656  17.949  0.00  0.00    +0.000 C 
ATOM     22  C   UNL     1      -5.062  12.182  18.528  0.00  0.00    +0.000 C 
BRANCH  22  23
ATOM     23  C   UNL     1      -5.101  12.186  20.040  0.00  0.00    +0.000 C 
ATOM     24  C   UNL     1      -5.097  13.227  20.889  0.00  0.00    +0.000 C 
ATOM     25  C   UNL     1      -5.013  12.982  22.382  0.00  0.00    +0.000 C 
ATOM     26  C   UNL     1      -4.811  14.365  22.994  0.00  0.00    +0.000 C 
ATOM     27  C   UNL     1      -4.626  15.333  21.829  0.00  0.00    +0.000 C 
ATOM     28  N   UNL     1      -5.069  14.589  20.651  0.00  0.00    +0.000 N 
ATOM     29  C   UNL     1      -5.932  15.290  19.714  0.00  0.00    +0.000 C 
ENDBRANCH  22  23
ENDBRANCH   1  22
TORSDOF 4
ENDMDL
