MODEL 1
REMARK VINA RESULT:      -8.2      0.000      0.000
REMARK  Name = 
REMARK  3 active torsions:
REMARK  status: ('A' for Active; 'I' for Inactive)
REMARK    1  A    between atoms: C_2  and  C_15
REMARK    2  A    between atoms: C_7  and  C_8
REMARK    3  A    between atoms: C_15  and  C_16
REMARK                            x       y       z     vdW  Elec       q    Type
REMARK                         _______ _______ _______ _____ _____    ______ ____
ROOT
ATOM      1  O   UNL     1       2.790   4.580  20.889  0.00  0.00    +0.000 OA
ATOM      2  C   UNL     1       3.116   4.734  19.725  0.00  0.00    +0.000 C 
ATOM      3  N   UNL     1       2.895   5.816  18.912  0.00  0.00    +0.000 N 
ATOM      4  C   UNL     1       2.301   6.995  19.273  0.00  0.00    +0.000 A 
ATOM      5  N   UNL     1       2.283   8.042  18.477  0.00  0.00    +0.000 NA
ATOM      6  N   UNL     1       1.655   9.121  19.061  0.00  0.00    +0.000 NA
ATOM      7  C   UNL     1       1.185   8.841  20.266  0.00  0.00    +0.000 A 
ATOM      8  S   UNL     1       1.522   7.226  20.761  0.00  0.00    +0.000 S 
ATOM      9  H   UNL     1       3.270   5.816  17.974  0.00  0.00    +0.000 HD
ENDROOT
BRANCH   7  10
ATOM     10  C   UNL     1       0.448   9.766  21.135  0.00  0.00    +0.000 A 
ATOM     11  C   UNL     1      -0.159   9.322  22.306  0.00  0.00    +0.000 A 
ATOM     12  C   UNL     1      -0.832  10.245  23.105  0.00  0.00    +0.000 A 
ATOM     13  C   UNL     1      -0.881  11.578  22.715  0.00  0.00    +0.000 A 
ATOM     14  C   UNL     1      -0.254  11.937  21.536  0.00  0.00    +0.000 A 
ATOM     15  N   UNL     1       0.405  11.066  20.744  0.00  0.00    +0.000 NA
ENDBRANCH   7  10
BRANCH   2  16
ATOM     16  C   UNL     1       3.898   3.638  19.040  0.00  0.00    +0.000 C 
ATOM     17  C   UNL     1       3.178   2.294  18.919  0.00  0.00    +0.000 C 
ATOM     18  C   UNL     1       4.352   2.408  19.835  0.00  0.00    +0.000 C 
BRANCH  16  19
ATOM     19  C   UNL     1       4.847   4.076  17.929  0.00  0.00    +0.000 A 
ATOM     20  C   UNL     1       6.120   4.595  18.243  0.00  0.00    +0.000 A 
ATOM     21  C   UNL     1       7.055   4.875  17.246  0.00  0.00    +0.000 A 
ATOM     22  C   UNL     1       6.719   4.658  15.918  0.00  0.00    +0.000 A 
ATOM     23  F   UNL     1       7.634   4.875  14.964  0.00  0.00    +0.000 F 
ATOM     24  C   UNL     1       5.455   4.205  15.568  0.00  0.00    +0.000 A 
ATOM     25  C   UNL     1       4.521   3.928  16.568  0.00  0.00    +0.000 A 
ENDBRANCH  16  19
ENDBRANCH   2  16
TORSDOF 3
ENDMDL
MODEL 2
REMARK VINA RESULT:      -8.0      0.237      1.009
REMARK  Name = 
REMARK  3 active torsions:
REMARK  status: ('A' for Active; 'I' for Inactive)
REMARK    1  A    between atoms: C_2  and  C_15
REMARK    2  A    between atoms: C_7  and  C_8
REMARK    3  A    between atoms: C_15  and  C_16
REMARK                            x       y       z     vdW  Elec       q    Type
REMARK                         _______ _______ _______ _____ _____    ______ ____
ROOT
ATOM      1  O   UNL     1       2.692   4.515  21.025  0.00  0.00    +0.000 OA
ATOM      2  C   UNL     1       3.055   4.654  19.869  0.00  0.00    +0.000 C 
ATOM      3  N   UNL     1       2.876   5.735  19.043  0.00  0.00    +0.000 N 
ATOM      4  C   UNL     1       2.294   6.927  19.379  0.00  0.00    +0.000 A 
ATOM      5  N   UNL     1       2.317   7.968  18.576  0.00  0.00    +0.000 NA
ATOM      6  N   UNL     1       1.692   9.063  19.135  0.00  0.00    +0.000 NA
ATOM      7  C   UNL     1       1.182   8.799  20.328  0.00  0.00    +0.000 A 
ATOM      8  S   UNL     1       1.475   7.182  20.843  0.00  0.00    +0.000 S 
ATOM      9  H   UNL     1       3.278   5.722  18.117  0.00  0.00    +0.000 HD
ENDROOT
BRANCH   7  10
ATOM     10  C   UNL     1       0.437   9.742  21.168  0.00  0.00    +0.000 A 
ATOM     11  C   UNL     1      -0.168   9.328  22.352  0.00  0.00    +0.000 A 
ATOM     12  C   UNL     1      -0.850  10.268  23.123  0.00  0.00    +0.000 A 
ATOM     13  C   UNL     1      -0.908  11.589  22.694  0.00  0.00    +0.000 A 
ATOM     14  C   UNL     1      -0.283  11.919  21.506  0.00  0.00    +0.000 A 
ATOM     15  N   UNL     1       0.383  11.031  20.740  0.00  0.00    +0.000 NA
ENDBRANCH   7  10
BRANCH   2  16
ATOM     16  C   UNL     1       3.837   3.541  19.214  0.00  0.00    +0.000 C 
ATOM     17  C   UNL     1       3.083   2.221  19.044  0.00  0.00    +0.000 C 
ATOM     18  C   UNL     1       4.212   2.291  20.019  0.00  0.00    +0.000 C 
BRANCH  16  19
ATOM     19  C   UNL     1       4.854   3.958  18.157  0.00  0.00    +0.000 A 
ATOM     20  C   UNL     1       4.596   3.726  16.790  0.00  0.00    +0.000 A 
ATOM     21  C   UNL     1       5.445   4.217  15.799  0.00  0.00    +0.000 A 
ATOM     22  C   UNL     1       6.577   4.931  16.164  0.00  0.00    +0.000 A 
ATOM     23  F   UNL     1       7.364   5.449  15.213  0.00  0.00    +0.000 F 
ATOM     24  C   UNL     1       6.895   5.126  17.501  0.00  0.00    +0.000 A 
ATOM     25  C   UNL     1       6.043   4.630  18.491  0.00  0.00    +0.000 A 
ENDBRANCH  16  19
ENDBRANCH   2  16
TORSDOF 3
ENDMDL
MODEL 3
REMARK VINA RESULT:      -7.9      3.686      8.442
REMARK  Name = 
REMARK  3 active torsions:
REMARK  status: ('A' for Active; 'I' for Inactive)
REMARK    1  A    between atoms: C_2  and  C_15
REMARK    2  A    between atoms: C_7  and  C_8
REMARK    3  A    between atoms: C_15  and  C_16
REMARK                            x       y       z     vdW  Elec       q    Type
REMARK                         _______ _______ _______ _____ _____    ______ ____
ROOT
ATOM      1  O   UNL     1       2.073   4.959  17.755  0.00  0.00    +0.000 OA
ATOM      2  C   UNL     1       2.742   5.312  18.710  0.00  0.00    +0.000 C 
ATOM      3  N   UNL     1       4.097   5.516  18.775  0.00  0.00    +0.000 N 
ATOM      4  C   UNL     1       4.983   5.422  17.736  0.00  0.00    +0.000 A 
ATOM      5  N   UNL     1       6.237   5.801  17.850  0.00  0.00    +0.000 NA
ATOM      6  N   UNL     1       6.933   5.638  16.670  0.00  0.00    +0.000 NA
ATOM      7  C   UNL     1       6.188   5.104  15.715  0.00  0.00    +0.000 A 
ATOM      8  S   UNL     1       4.568   4.800  16.214  0.00  0.00    +0.000 S 
ATOM      9  H   UNL     1       4.507   5.857  19.633  0.00  0.00    +0.000 HD
ENDROOT
BRANCH   7  10
ATOM     10  C   UNL     1       6.639   4.783  14.356  0.00  0.00    +0.000 A 
ATOM     11  C   UNL     1       6.008   3.798  13.603  0.00  0.00    +0.000 A 
ATOM     12  C   UNL     1       6.465   3.543  12.311  0.00  0.00    +0.000 A 
ATOM     13  C   UNL     1       7.533   4.276  11.809  0.00  0.00    +0.000 A 
ATOM     14  C   UNL     1       8.107   5.236  12.621  0.00  0.00    +0.000 A 
ATOM     15  N   UNL     1       7.686   5.503  13.875  0.00  0.00    +0.000 NA
ENDBRANCH   7  10
BRANCH   2  16
ATOM     16  C   UNL     1       2.043   5.610  20.016  0.00  0.00    +0.000 C 
ATOM     17  C   UNL     1       2.468   4.742  21.201  0.00  0.00    +0.000 C 
ATOM     18  C   UNL     1       1.097   4.574  20.633  0.00  0.00    +0.000 C 
BRANCH  16  19
ATOM     19  C   UNL     1       1.656   7.065  20.260  0.00  0.00    +0.000 A 
ATOM     20  C   UNL     1       1.834   8.029  19.247  0.00  0.00    +0.000 A 
ATOM     21  C   UNL     1       1.365   9.334  19.398  0.00  0.00    +0.000 A 
ATOM     22  C   UNL     1       0.728   9.697  20.575  0.00  0.00    +0.000 A 
ATOM     23  F   UNL     1       0.229  10.934  20.700  0.00  0.00    +0.000 F 
ATOM     24  C   UNL     1       0.589   8.791  21.618  0.00  0.00    +0.000 A 
ATOM     25  C   UNL     1       1.062   7.486  21.464  0.00  0.00    +0.000 A 
ENDBRANCH  16  19
ENDBRANCH   2  16
TORSDOF 3
ENDMDL
MODEL 4
REMARK VINA RESULT:      -7.8      1.602      2.001
REMARK  Name = 
REMARK  3 active torsions:
REMARK  status: ('A' for Active; 'I' for Inactive)
REMARK    1  A    between atoms: C_2  and  C_15
REMARK    2  A    between atoms: C_7  and  C_8
REMARK    3  A    between atoms: C_15  and  C_16
REMARK                            x       y       z     vdW  Elec       q    Type
REMARK                         _______ _______ _______ _____ _____    ______ ____
ROOT
ATOM      1  O   UNL     1       1.852   6.160  20.441  0.00  0.00    +0.000 OA
ATOM      2  C   UNL     1       2.129   6.223  19.256  0.00  0.00    +0.000 C 
ATOM      3  N   UNL     1       2.078   7.312  18.423  0.00  0.00    +0.000 N 
ATOM      4  C   UNL     1       1.757   8.593  18.781  0.00  0.00    +0.000 A 
ATOM      5  N   UNL     1       1.899   9.607  17.955  0.00  0.00    +0.000 NA
ATOM      6  N   UNL     1       1.539  10.802  18.540  0.00  0.00    +0.000 NA
ATOM      7  C   UNL     1       1.099  10.645  19.779  0.00  0.00    +0.000 A 
ATOM      8  S   UNL     1       1.135   9.005  20.304  0.00  0.00    +0.000 S 
ATOM      9  H   UNL     1       2.386   7.218  17.466  0.00  0.00    +0.000 HD
ENDROOT
BRANCH   7  10
ATOM     10  C   UNL     1       0.619  11.716  20.659  0.00  0.00    +0.000 A 
ATOM     11  C   UNL     1      -0.392  11.485  21.588  0.00  0.00    +0.000 A 
ATOM     12  C   UNL     1      -0.800  12.532  22.412  0.00  0.00    +0.000 A 
ATOM     13  C   UNL     1      -0.191  13.775  22.288  0.00  0.00    +0.000 A 
ATOM     14  C   UNL     1       0.805  13.924  21.339  0.00  0.00    +0.000 A 
ATOM     15  N   UNL     1       1.219  12.928  20.529  0.00  0.00    +0.000 NA
ENDBRANCH   7  10
BRANCH   2  16
ATOM     16  C   UNL     1       2.631   4.979  18.561  0.00  0.00    +0.000 C 
ATOM     17  C   UNL     1       1.641   4.320  17.599  0.00  0.00    +0.000 C 
ATOM     18  C   UNL     1       1.993   3.619  18.870  0.00  0.00    +0.000 C 
BRANCH  16  19
ATOM     19  C   UNL     1       4.121   4.936  18.239  0.00  0.00    +0.000 A 
ATOM     20  C   UNL     1       5.072   5.259  19.228  0.00  0.00    +0.000 A 
ATOM     21  C   UNL     1       6.439   5.098  18.999  0.00  0.00    +0.000 A 
ATOM     22  C   UNL     1       6.872   4.630  17.768  0.00  0.00    +0.000 A 
ATOM     23  F   UNL     1       8.180   4.424  17.565  0.00  0.00    +0.000 F 
ATOM     24  C   UNL     1       5.968   4.359  16.750  0.00  0.00    +0.000 A 
ATOM     25  C   UNL     1       4.600   4.524  16.982  0.00  0.00    +0.000 A 
ENDBRANCH  16  19
ENDBRANCH   2  16
TORSDOF 3
ENDMDL
MODEL 5
REMARK VINA RESULT:      -7.8      1.064      1.586
REMARK  Name = 
REMARK  3 active torsions:
REMARK  status: ('A' for Active; 'I' for Inactive)
REMARK    1  A    between atoms: C_2  and  C_15
REMARK    2  A    between atoms: C_7  and  C_8
REMARK    3  A    between atoms: C_15  and  C_16
REMARK                            x       y       z     vdW  Elec       q    Type
REMARK                         _______ _______ _______ _____ _____    ______ ____
ROOT
ATOM      1  O   UNL     1       2.923   5.265  20.290  0.00  0.00    +0.000 OA
ATOM      2  C   UNL     1       3.255   5.200  19.119  0.00  0.00    +0.000 C 
ATOM      3  N   UNL     1       3.085   6.135  18.130  0.00  0.00    +0.000 N 
ATOM      4  C   UNL     1       2.549   7.386  18.279  0.00  0.00    +0.000 A 
ATOM      5  N   UNL     1       2.580   8.280  17.314  0.00  0.00    +0.000 NA
ATOM      6  N   UNL     1       2.006   9.472  17.699  0.00  0.00    +0.000 NA
ATOM      7  C   UNL     1       1.523   9.426  18.931  0.00  0.00    +0.000 A 
ATOM      8  S   UNL     1       1.783   7.906  19.699  0.00  0.00    +0.000 S 
ATOM      9  H   UNL     1       3.459   5.957  17.209  0.00  0.00    +0.000 HD
ENDROOT
BRANCH   7  10
ATOM     10  C   UNL     1       0.833  10.520  19.623  0.00  0.00    +0.000 A 
ATOM     11  C   UNL     1       0.500  10.422  20.971  0.00  0.00    +0.000 A 
ATOM     12  C   UNL     1      -0.141  11.497  21.584  0.00  0.00    +0.000 A 
ATOM     13  C   UNL     1      -0.430  12.634  20.840  0.00  0.00    +0.000 A 
ATOM     14  C   UNL     1      -0.068  12.652  19.505  0.00  0.00    +0.000 A 
ATOM     15  N   UNL     1       0.552  11.626  18.886  0.00  0.00    +0.000 NA
ENDBRANCH   7  10
BRANCH   2  16
ATOM     16  C   UNL     1       3.984   3.967  18.638  0.00  0.00    +0.000 C 
ATOM     17  C   UNL     1       3.161   2.677  18.638  0.00  0.00    +0.000 C 
ATOM     18  C   UNL     1       4.282   2.823  19.615  0.00  0.00    +0.000 C 
BRANCH  16  19
ATOM     19  C   UNL     1       5.033   4.180  17.552  0.00  0.00    +0.000 A 
ATOM     20  C   UNL     1       4.734   3.892  16.206  0.00  0.00    +0.000 A 
ATOM     21  C   UNL     1       5.627   4.204  15.181  0.00  0.00    +0.000 A 
ATOM     22  C   UNL     1       6.843   4.792  15.494  0.00  0.00    +0.000 A 
ATOM     23  F   UNL     1       7.680   5.141  14.508  0.00  0.00    +0.000 F 
ATOM     24  C   UNL     1       7.198   5.035  16.814  0.00  0.00    +0.000 A 
ATOM     25  C   UNL     1       6.302   4.719  17.838  0.00  0.00    +0.000 A 
ENDBRANCH  16  19
ENDBRANCH   2  16
TORSDOF 3
ENDMDL
MODEL 6
REMARK VINA RESULT:      -7.7      0.973      1.040
REMARK  Name = 
REMARK  3 active torsions:
REMARK  status: ('A' for Active; 'I' for Inactive)
REMARK    1  A    between atoms: C_2  and  C_15
REMARK    2  A    between atoms: C_7  and  C_8
REMARK    3  A    between atoms: C_15  and  C_16
REMARK                            x       y       z     vdW  Elec       q    Type
REMARK                         _______ _______ _______ _____ _____    ______ ____
ROOT
ATOM      1  O   UNL     1       3.155   5.347  20.229  0.00  0.00    +0.000 OA
ATOM      2  C   UNL     1       3.270   5.364  19.016  0.00  0.00    +0.000 C 
ATOM      3  N   UNL     1       2.873   6.338  18.134  0.00  0.00    +0.000 N 
ATOM      4  C   UNL     1       2.311   7.544  18.456  0.00  0.00    +0.000 A 
ATOM      5  N   UNL     1       2.118   8.487  17.560  0.00  0.00    +0.000 NA
ATOM      6  N   UNL     1       1.564   9.620  18.117  0.00  0.00    +0.000 NA
ATOM      7  C   UNL     1       1.319   9.479  19.410  0.00  0.00    +0.000 A 
ATOM      8  S   UNL     1       1.792   7.940  20.021  0.00  0.00    +0.000 S 
ATOM      9  H   UNL     1       3.080   6.232  17.152  0.00  0.00    +0.000 HD
ENDROOT
BRANCH   7  10
ATOM     10  C   UNL     1       0.712  10.491  20.282  0.00  0.00    +0.000 A 
ATOM     11  C   UNL     1      -0.249  10.143  21.226  0.00  0.00    +0.000 A 
ATOM     12  C   UNL     1      -0.783  11.139  22.042  0.00  0.00    +0.000 A 
ATOM     13  C   UNL     1      -0.344  12.450  21.893  0.00  0.00    +0.000 A 
ATOM     14  C   UNL     1       0.613  12.714  20.930  0.00  0.00    +0.000 A 
ATOM     15  N   UNL     1       1.146  11.769  20.128  0.00  0.00    +0.000 NA
ENDBRANCH   7  10
BRANCH   2  16
ATOM     16  C   UNL     1       3.959   4.206  18.335  0.00  0.00    +0.000 C 
ATOM     17  C   UNL     1       3.139   2.918  18.239  0.00  0.00    +0.000 C 
ATOM     18  C   UNL     1       4.330   2.954  19.139  0.00  0.00    +0.000 C 
BRANCH  16  19
ATOM     19  C   UNL     1       4.924   4.559  17.207  0.00  0.00    +0.000 A 
ATOM     20  C   UNL     1       6.096   5.294  17.477  0.00  0.00    +0.000 A 
ATOM     21  C   UNL     1       7.058   5.513  16.491  0.00  0.00    +0.000 A 
ATOM     22  C   UNL     1       6.849   5.014  15.214  0.00  0.00    +0.000 A 
ATOM     23  F   UNL     1       7.796   5.177  14.280  0.00  0.00    +0.000 F 
ATOM     24  C   UNL     1       5.679   4.337  14.896  0.00  0.00    +0.000 A 
ATOM     25  C   UNL     1       4.717   4.123  15.886  0.00  0.00    +0.000 A 
ENDBRANCH  16  19
ENDBRANCH   2  16
TORSDOF 3
ENDMDL
MODEL 7
REMARK VINA RESULT:      -7.7      2.635      3.696
REMARK  Name = 
REMARK  3 active torsions:
REMARK  status: ('A' for Active; 'I' for Inactive)
REMARK    1  A    between atoms: C_2  and  C_15
REMARK    2  A    between atoms: C_7  and  C_8
REMARK    3  A    between atoms: C_15  and  C_16
REMARK                            x       y       z     vdW  Elec       q    Type
REMARK                         _______ _______ _______ _____ _____    ______ ____
ROOT
ATOM      1  O   UNL     1       2.403   8.404  17.487  0.00  0.00    +0.000 OA
ATOM      2  C   UNL     1       2.760   7.557  18.287  0.00  0.00    +0.000 C 
ATOM      3  N   UNL     1       2.432   7.443  19.615  0.00  0.00    +0.000 N 
ATOM      4  C   UNL     1       1.567   8.245  20.308  0.00  0.00    +0.000 A 
ATOM      5  N   UNL     1       1.180   7.962  21.533  0.00  0.00    +0.000 NA
ATOM      6  N   UNL     1       0.289   8.895  22.020  0.00  0.00    +0.000 NA
ATOM      7  C   UNL     1       0.063   9.874  21.159  0.00  0.00    +0.000 A 
ATOM      8  S   UNL     1       0.920   9.680  19.678  0.00  0.00    +0.000 S 
ATOM      9  H   UNL     1       2.772   6.653  20.143  0.00  0.00    +0.000 HD
ENDROOT
BRANCH   7  10
ATOM     10  C   UNL     1      -0.814  11.028  21.385  0.00  0.00    +0.000 A 
ATOM     11  C   UNL     1      -1.161  11.426  22.674  0.00  0.00    +0.000 A 
ATOM     12  C   UNL     1      -1.984  12.539  22.835  0.00  0.00    +0.000 A 
ATOM     13  C   UNL     1      -2.435  13.222  21.712  0.00  0.00    +0.000 A 
ATOM     14  C   UNL     1      -2.046  12.763  20.467  0.00  0.00    +0.000 A 
ATOM     15  N   UNL     1      -1.251  11.689  20.281  0.00  0.00    +0.000 NA
ENDBRANCH   7  10
BRANCH   2  16
ATOM     16  C   UNL     1       3.657   6.439  17.810  0.00  0.00    +0.000 C 
ATOM     17  C   UNL     1       5.155   6.746  17.827  0.00  0.00    +0.000 C 
ATOM     18  C   UNL     1       4.459   6.601  16.513  0.00  0.00    +0.000 C 
BRANCH  16  19
ATOM     19  C   UNL     1       3.185   5.019  18.105  0.00  0.00    +0.000 A 
ATOM     20  C   UNL     1       4.047   4.099  18.735  0.00  0.00    +0.000 A 
ATOM     21  C   UNL     1       3.597   2.841  19.136  0.00  0.00    +0.000 A 
ATOM     22  C   UNL     1       2.280   2.479  18.892  0.00  0.00    +0.000 A 
ATOM     23  F   UNL     1       1.832   1.294  19.324  0.00  0.00    +0.000 F 
ATOM     24  C   UNL     1       1.420   3.336  18.220  0.00  0.00    +0.000 A 
ATOM     25  C   UNL     1       1.875   4.594  17.817  0.00  0.00    +0.000 A 
ENDBRANCH  16  19
ENDBRANCH   2  16
TORSDOF 3
ENDMDL
MODEL 8
REMARK VINA RESULT:      -7.7      0.853      1.217
REMARK  Name = 
REMARK  3 active torsions:
REMARK  status: ('A' for Active; 'I' for Inactive)
REMARK    1  A    between atoms: C_2  and  C_15
REMARK    2  A    between atoms: C_7  and  C_8
REMARK    3  A    between atoms: C_15  and  C_16
REMARK                            x       y       z     vdW  Elec       q    Type
REMARK                         _______ _______ _______ _____ _____    ______ ____
ROOT
ATOM      1  O   UNL     1       2.964   4.920  20.222  0.00  0.00    +0.000 OA
ATOM      2  C   UNL     1       3.184   5.049  19.030  0.00  0.00    +0.000 C 
ATOM      3  N   UNL     1       2.894   6.116  18.218  0.00  0.00    +0.000 N 
ATOM      4  C   UNL     1       2.341   7.306  18.608  0.00  0.00    +0.000 A 
ATOM      5  N   UNL     1       2.255   8.336  17.795  0.00  0.00    +0.000 NA
ATOM      6  N   UNL     1       1.688   9.431  18.412  0.00  0.00    +0.000 NA
ATOM      7  C   UNL     1       1.328   9.178  19.660  0.00  0.00    +0.000 A 
ATOM      8  S   UNL     1       1.701   7.571  20.156  0.00  0.00    +0.000 S 
ATOM      9  H   UNL     1       3.182   6.095  17.251  0.00  0.00    +0.000 HD
ENDROOT
BRANCH   7  10
ATOM     10  C   UNL     1       0.678  10.125  20.573  0.00  0.00    +0.000 A 
ATOM     11  C   UNL     1       0.617  11.483  20.276  0.00  0.00    +0.000 A 
ATOM     12  C   UNL     1      -0.027  12.338  21.169  0.00  0.00    +0.000 A 
ATOM     13  C   UNL     1      -0.590  11.816  22.327  0.00  0.00    +0.000 A 
ATOM     14  C   UNL     1      -0.485  10.455  22.550  0.00  0.00    +0.000 A 
ATOM     15  N   UNL     1       0.132   9.605  21.704  0.00  0.00    +0.000 NA
ENDBRANCH   7  10
BRANCH   2  16
ATOM     16  C   UNL     1       3.896   3.935  18.299  0.00  0.00    +0.000 C 
ATOM     17  C   UNL     1       3.083   2.654  18.103  0.00  0.00    +0.000 C 
ATOM     18  C   UNL     1       4.249   2.637  19.036  0.00  0.00    +0.000 C 
BRANCH  16  19
ATOM     19  C   UNL     1       4.890   4.357  17.222  0.00  0.00    +0.000 A 
ATOM     20  C   UNL     1       6.111   4.964  17.579  0.00  0.00    +0.000 A 
ATOM     21  C   UNL     1       7.092   5.235  16.625  0.00  0.00    +0.000 A 
ATOM     22  C   UNL     1       6.853   4.921  15.295  0.00  0.00    +0.000 A 
ATOM     23  F   UNL     1       7.814   5.131  14.386  0.00  0.00    +0.000 F 
ATOM     24  C   UNL     1       5.638   4.378  14.899  0.00  0.00    +0.000 A 
ATOM     25  C   UNL     1       4.658   4.110  15.857  0.00  0.00    +0.000 A 
ENDBRANCH  16  19
ENDBRANCH   2  16
TORSDOF 3
ENDMDL
MODEL 9
REMARK VINA RESULT:      -7.7      0.844      1.578
REMARK  Name = 
REMARK  3 active torsions:
REMARK  status: ('A' for Active; 'I' for Inactive)
REMARK    1  A    between atoms: C_2  and  C_15
REMARK    2  A    between atoms: C_7  and  C_8
REMARK    3  A    between atoms: C_15  and  C_16
REMARK                            x       y       z     vdW  Elec       q    Type
REMARK                         _______ _______ _______ _____ _____    ______ ____
ROOT
ATOM      1  O   UNL     1       2.972   4.878  20.337  0.00  0.00    +0.000 OA
ATOM      2  C   UNL     1       3.139   4.894  19.130  0.00  0.00    +0.000 C 
ATOM      3  N   UNL     1       2.836   5.892  18.239  0.00  0.00    +0.000 N 
ATOM      4  C   UNL     1       2.329   7.126  18.544  0.00  0.00    +0.000 A 
ATOM      5  N   UNL     1       2.229   8.083  17.647  0.00  0.00    +0.000 NA
ATOM      6  N   UNL     1       1.716   9.243  18.186  0.00  0.00    +0.000 NA
ATOM      7  C   UNL     1       1.408   9.111  19.467  0.00  0.00    +0.000 A 
ATOM      8  S   UNL     1       1.768   7.545  20.088  0.00  0.00    +0.000 S 
ATOM      9  H   UNL     1       3.078   5.778  17.265  0.00  0.00    +0.000 HD
ENDROOT
BRANCH   7  10
ATOM     10  C   UNL     1       0.823  10.152  20.319  0.00  0.00    +0.000 A 
ATOM     11  C   UNL     1       0.904  11.497  19.970  0.00  0.00    +0.000 A 
ATOM     12  C   UNL     1       0.317  12.445  20.805  0.00  0.00    +0.000 A 
ATOM     13  C   UNL     1      -0.333  12.027  21.960  0.00  0.00    +0.000 A 
ATOM     14  C   UNL     1      -0.369  10.673  22.237  0.00  0.00    +0.000 A 
ATOM     15  N   UNL     1       0.191   9.734  21.447  0.00  0.00    +0.000 NA
ENDBRANCH   7  10
BRANCH   2  16
ATOM     16  C   UNL     1       3.791   3.701  18.471  0.00  0.00    +0.000 C 
ATOM     17  C   UNL     1       2.865   2.515  18.199  0.00  0.00    +0.000 C 
ATOM     18  C   UNL     1       3.927   2.381  19.240  0.00  0.00    +0.000 C 
BRANCH  16  19
ATOM     19  C   UNL     1       4.923   4.000  17.494  0.00  0.00    +0.000 A 
ATOM     20  C   UNL     1       4.737   3.815  16.110  0.00  0.00    +0.000 A 
ATOM     21  C   UNL     1       5.707   4.208  15.188  0.00  0.00    +0.000 A 
ATOM     22  C   UNL     1       6.888   4.775  15.644  0.00  0.00    +0.000 A 
ATOM     23  F   UNL     1       7.798   5.202  14.759  0.00  0.00    +0.000 F 
ATOM     24  C   UNL     1       7.132   4.918  17.003  0.00  0.00    +0.000 A 
ATOM     25  C   UNL     1       6.158   4.521  17.923  0.00  0.00    +0.000 A 
ENDBRANCH  16  19
ENDBRANCH   2  16
TORSDOF 3
ENDMDL
