MODEL 1
REMARK VINA RESULT:      -8.8      0.000      0.000
REMARK  Name = 
REMARK  8 active torsions:
REMARK  status: ('A' for Active; 'I' for Inactive)
REMARK    1  A    between atoms: C_1  and  N_2
REMARK    2  A    between atoms: C_6  and  C_7
REMARK    3  A    between atoms: C_7  and  C_8
REMARK    4  A    between atoms: C_8  and  C_9
REMARK    5  A    between atoms: C_13  and  C_14
REMARK    6  A    between atoms: C_14  and  C_15
REMARK    7  A    between atoms: C_15  and  C_16
REMARK    8  A    between atoms: C_19  and  C_20
REMARK                            x       y       z     vdW  Elec       q    Type
REMARK                         _______ _______ _______ _____ _____    ______ ____
ROOT
ATOM      1  C   UNL     1       4.104   4.451  17.171  0.00  0.00    +0.000 A 
ATOM      2  C   UNL     1       3.749   3.113  16.924  0.00  0.00    +0.000 A 
ATOM      3  C   UNL     1       2.654   2.518  17.555  0.00  0.00    +0.000 A 
ATOM      4  C   UNL     1       1.888   3.242  18.459  0.00  0.00    +0.000 A 
ATOM      5  C   UNL     1       2.230   4.559  18.765  0.00  0.00    +0.000 A 
ATOM      6  C   UNL     1       3.311   5.150  18.097  0.00  0.00    +0.000 A 
ENDROOT
BRANCH   1   7
ATOM      7  C   UNL     1       5.360   5.164  16.488  0.00  0.00    +0.000 C 
ATOM      8  C   UNL     1       5.139   6.532  15.791  0.00  0.00    +0.000 C 
ATOM      9  O   UNL     1       6.060   7.205  16.676  0.00  0.00    +0.000 OA
ATOM     10  C   UNL     1       6.255   6.006  17.446  0.00  0.00    +0.000 C 
BRANCH   7  11
ATOM     11  C   UNL     1       6.194   4.123  15.717  0.00  0.00    +0.000 C 
BRANCH  11  17
ATOM     12  C   UNL     1       5.580   3.394  12.661  0.00  0.00    +0.000 C 
ATOM     13  N   UNL     1       6.593   4.275  13.181  0.00  0.00    +0.000 N 
ATOM     14  C   UNL     1       7.528   4.909  12.417  0.00  0.00    +0.000 A 
ATOM     15  N   UNL     1       8.295   5.645  13.183  0.00  0.00    +0.000 NA
ATOM     16  N   UNL     1       7.871   5.480  14.476  0.00  0.00    +0.000 NA
ATOM     17  C   UNL     1       6.856   4.637  14.481  0.00  0.00    +0.000 A 
ENDBRANCH  11  17
ENDBRANCH   7  11
ENDBRANCH   1   7
BRANCH   5  18
ATOM     18  C   UNL     1       1.460   5.397  19.749  0.00  0.00    +0.000 C 
BRANCH  18  19
ATOM     19  C   UNL     1       2.328   6.365  20.562  0.00  0.00    +0.000 C 
BRANCH  19  20
ATOM     20  C   UNL     1       1.822   7.768  20.358  0.00  0.00    +0.000 C 
ATOM     21  C   UNL     1       1.726   8.282  19.123  0.00  0.00    +0.000 C 
ATOM     22  C   UNL     1       1.142   9.597  18.697  0.00  0.00    +0.000 C 
ATOM     23  C   UNL     1      -0.076  10.132  19.414  0.00  0.00    +0.000 C 
ATOM     24  C   UNL     1      -0.615   9.749  20.594  0.00  0.00    +0.000 C 
ATOM     25  C   UNL     1      -0.124   8.748  21.594  0.00  0.00    +0.000 C 
ATOM     26  C   UNL     1       1.378   8.504  21.590  0.00  0.00    +0.000 C 
BRANCH  23  27
ATOM     27  C   UNL     1      -0.754  11.232  18.635  0.00  0.00    +0.000 C 
ATOM     28  F   UNL     1      -1.305  10.805  17.472  0.00  0.00    +0.000 F 
ATOM     29  F   UNL     1      -1.753  11.805  19.353  0.00  0.00    +0.000 F 
ATOM     30  F   UNL     1       0.118  12.222  18.312  0.00  0.00    +0.000 F 
ENDBRANCH  23  27
ENDBRANCH  19  20
ENDBRANCH  18  19
ENDBRANCH   5  18
TORSDOF 7
ENDMDL
MODEL 2
REMARK VINA RESULT:      -8.6      5.993      8.079
REMARK  Name = 
REMARK  8 active torsions:
REMARK  status: ('A' for Active; 'I' for Inactive)
REMARK    1  A    between atoms: C_1  and  N_2
REMARK    2  A    between atoms: C_6  and  C_7
REMARK    3  A    between atoms: C_7  and  C_8
REMARK    4  A    between atoms: C_8  and  C_9
REMARK    5  A    between atoms: C_13  and  C_14
REMARK    6  A    between atoms: C_14  and  C_15
REMARK    7  A    between atoms: C_15  and  C_16
REMARK    8  A    between atoms: C_19  and  C_20
REMARK                            x       y       z     vdW  Elec       q    Type
REMARK                         _______ _______ _______ _____ _____    ______ ____
ROOT
ATOM      1  C   UNL     1       6.711   5.546  17.391  0.00  0.00    +0.000 A 
ATOM      2  C   UNL     1       7.339   4.957  18.502  0.00  0.00    +0.000 A 
ATOM      3  C   UNL     1       8.170   5.692  19.349  0.00  0.00    +0.000 A 
ATOM      4  C   UNL     1       8.405   7.039  19.103  0.00  0.00    +0.000 A 
ATOM      5  C   UNL     1       7.837   7.654  17.989  0.00  0.00    +0.000 A 
ATOM      6  C   UNL     1       6.978   6.909  17.169  0.00  0.00    +0.000 A 
ENDROOT
BRANCH   1   7
ATOM      7  C   UNL     1       5.769   4.739  16.385  0.00  0.00    +0.000 C 
ATOM      8  C   UNL     1       4.976   5.538  15.318  0.00  0.00    +0.000 C 
ATOM      9  O   UNL     1       5.631   4.856  14.226  0.00  0.00    +0.000 OA
ATOM     10  C   UNL     1       6.482   4.137  15.136  0.00  0.00    +0.000 C 
BRANCH   7  11
ATOM     11  C   UNL     1       4.990   3.656  17.157  0.00  0.00    +0.000 C 
BRANCH  11  17
ATOM     12  C   UNL     1       3.800   5.636  19.372  0.00  0.00    +0.000 C 
ATOM     13  N   UNL     1       3.083   4.819  18.430  0.00  0.00    +0.000 N 
ATOM     14  C   UNL     1       1.724   4.713  18.381  0.00  0.00    +0.000 A 
ATOM     15  N   UNL     1       1.380   3.905  17.408  0.00  0.00    +0.000 NA
ATOM     16  N   UNL     1       2.533   3.457  16.816  0.00  0.00    +0.000 NA
ATOM     17  C   UNL     1       3.564   3.991  17.444  0.00  0.00    +0.000 A 
ENDBRANCH  11  17
ENDBRANCH   7  11
ENDBRANCH   1   7
BRANCH   5  18
ATOM     18  C   UNL     1       8.064   9.101  17.647  0.00  0.00    +0.000 C 
BRANCH  18  19
ATOM     19  C   UNL     1       8.861   9.877  18.703  0.00  0.00    +0.000 C 
BRANCH  19  20
ATOM     20  C   UNL     1       9.330  11.178  18.108  0.00  0.00    +0.000 C 
ATOM     21  C   UNL     1       8.465  12.186  17.915  0.00  0.00    +0.000 C 
ATOM     22  C   UNL     1       8.747  13.586  17.455  0.00  0.00    +0.000 C 
ATOM     23  C   UNL     1      10.018  14.271  17.900  0.00  0.00    +0.000 C 
ATOM     24  C   UNL     1      11.128  13.738  18.460  0.00  0.00    +0.000 C 
ATOM     25  C   UNL     1      11.478  12.307  18.726  0.00  0.00    +0.000 C 
ATOM     26  C   UNL     1      10.799  11.290  17.820  0.00  0.00    +0.000 C 
BRANCH  23  27
ATOM     27  C   UNL     1       9.964  15.763  17.683  0.00  0.00    +0.000 C 
ATOM     28  F   UNL     1      10.485  16.474  18.713  0.00  0.00    +0.000 F 
ATOM     29  F   UNL     1      10.650  16.126  16.570  0.00  0.00    +0.000 F 
ATOM     30  F   UNL     1       8.687  16.195  17.518  0.00  0.00    +0.000 F 
ENDBRANCH  23  27
ENDBRANCH  19  20
ENDBRANCH  18  19
ENDBRANCH   5  18
TORSDOF 7
ENDMDL
MODEL 3
REMARK VINA RESULT:      -8.5      2.966      4.541
REMARK  Name = 
REMARK  8 active torsions:
REMARK  status: ('A' for Active; 'I' for Inactive)
REMARK    1  A    between atoms: C_1  and  N_2
REMARK    2  A    between atoms: C_6  and  C_7
REMARK    3  A    between atoms: C_7  and  C_8
REMARK    4  A    between atoms: C_8  and  C_9
REMARK    5  A    between atoms: C_13  and  C_14
REMARK    6  A    between atoms: C_14  and  C_15
REMARK    7  A    between atoms: C_15  and  C_16
REMARK    8  A    between atoms: C_19  and  C_20
REMARK                            x       y       z     vdW  Elec       q    Type
REMARK                         _______ _______ _______ _____ _____    ______ ____
ROOT
ATOM      1  C   UNL     1       3.133   5.427  18.510  0.00  0.00    +0.000 A 
ATOM      2  C   UNL     1       3.344   6.398  17.516  0.00  0.00    +0.000 A 
ATOM      3  C   UNL     1       2.918   7.718  17.678  0.00  0.00    +0.000 A 
ATOM      4  C   UNL     1       2.258   8.103  18.839  0.00  0.00    +0.000 A 
ATOM      5  C   UNL     1       1.990   7.163  19.833  0.00  0.00    +0.000 A 
ATOM      6  C   UNL     1       2.456   5.851  19.667  0.00  0.00    +0.000 A 
ENDROOT
BRANCH   1   7
ATOM      7  C   UNL     1       3.585   3.903  18.357  0.00  0.00    +0.000 C 
ATOM      8  C   UNL     1       3.290   2.928  19.526  0.00  0.00    +0.000 C 
ATOM      9  O   UNL     1       2.457   2.086  18.700  0.00  0.00    +0.000 OA
ATOM     10  C   UNL     1       2.593   2.983  17.584  0.00  0.00    +0.000 C 
BRANCH   7  11
ATOM     11  C   UNL     1       4.997   3.838  17.743  0.00  0.00    +0.000 C 
BRANCH  11  17
ATOM     12  C   UNL     1       7.007   5.965  16.444  0.00  0.00    +0.000 C 
ATOM     13  N   UNL     1       6.892   5.575  17.825  0.00  0.00    +0.000 N 
ATOM     14  C   UNL     1       7.705   6.027  18.822  0.00  0.00    +0.000 A 
ATOM     15  N   UNL     1       7.338   5.497  19.963  0.00  0.00    +0.000 NA
ATOM     16  N   UNL     1       6.275   4.668  19.711  0.00  0.00    +0.000 NA
ATOM     17  C   UNL     1       6.017   4.696  18.418  0.00  0.00    +0.000 A 
ENDBRANCH  11  17
ENDBRANCH   7  11
ENDBRANCH   1   7
BRANCH   5  18
ATOM     18  C   UNL     1       1.262   7.501  21.105  0.00  0.00    +0.000 C 
BRANCH  18  19
ATOM     19  C   UNL     1       1.541   8.915  21.630  0.00  0.00    +0.000 C 
BRANCH  19  20
ATOM     20  C   UNL     1       0.238   9.656  21.761  0.00  0.00    +0.000 C 
ATOM     21  C   UNL     1      -0.264   9.936  22.974  0.00  0.00    +0.000 C 
ATOM     22  C   UNL     1      -1.469  10.758  23.323  0.00  0.00    +0.000 C 
ATOM     23  C   UNL     1      -1.792  11.983  22.500  0.00  0.00    +0.000 C 
ATOM     24  C   UNL     1      -1.316  12.354  21.289  0.00  0.00    +0.000 C 
ATOM     25  C   UNL     1      -0.400  11.627  20.354  0.00  0.00    +0.000 C 
ATOM     26  C   UNL     1      -0.405  10.110  20.483  0.00  0.00    +0.000 C 
BRANCH  23  27
ATOM     27  C   UNL     1      -2.773  12.893  23.198  0.00  0.00    +0.000 C 
ATOM     28  F   UNL     1      -3.667  12.226  23.970  0.00  0.00    +0.000 F 
ATOM     29  F   UNL     1      -2.139  13.776  24.010  0.00  0.00    +0.000 F 
ATOM     30  F   UNL     1      -3.495  13.622  22.308  0.00  0.00    +0.000 F 
ENDBRANCH  23  27
ENDBRANCH  19  20
ENDBRANCH  18  19
ENDBRANCH   5  18
TORSDOF 7
ENDMDL
MODEL 4
REMARK VINA RESULT:      -8.4      1.574      2.098
REMARK  Name = 
REMARK  8 active torsions:
REMARK  status: ('A' for Active; 'I' for Inactive)
REMARK    1  A    between atoms: C_1  and  N_2
REMARK    2  A    between atoms: C_6  and  C_7
REMARK    3  A    between atoms: C_7  and  C_8
REMARK    4  A    between atoms: C_8  and  C_9
REMARK    5  A    between atoms: C_13  and  C_14
REMARK    6  A    between atoms: C_14  and  C_15
REMARK    7  A    between atoms: C_15  and  C_16
REMARK    8  A    between atoms: C_19  and  C_20
REMARK                            x       y       z     vdW  Elec       q    Type
REMARK                         _______ _______ _______ _____ _____    ______ ____
ROOT
ATOM      1  C   UNL     1       4.512   4.857  17.186  0.00  0.00    +0.000 A 
ATOM      2  C   UNL     1       3.700   3.715  17.070  0.00  0.00    +0.000 A 
ATOM      3  C   UNL     1       2.368   3.717  17.489  0.00  0.00    +0.000 A 
ATOM      4  C   UNL     1       1.811   4.861  18.046  0.00  0.00    +0.000 A 
ATOM      5  C   UNL     1       2.592   6.003  18.219  0.00  0.00    +0.000 A 
ATOM      6  C   UNL     1       3.917   5.993  17.761  0.00  0.00    +0.000 A 
ENDROOT
BRANCH   1   7
ATOM      7  C   UNL     1       6.045   4.892  16.739  0.00  0.00    +0.000 C 
ATOM      8  C   UNL     1       6.764   6.266  16.686  0.00  0.00    +0.000 C 
ATOM      9  O   UNL     1       7.736   5.868  17.678  0.00  0.00    +0.000 OA
ATOM     10  C   UNL     1       7.079   4.602  17.868  0.00  0.00    +0.000 C 
BRANCH   7  11
ATOM     11  C   UNL     1       6.257   3.955  15.535  0.00  0.00    +0.000 C 
BRANCH  11  17
ATOM     12  C   UNL     1       5.816   3.340  12.424  0.00  0.00    +0.000 C 
ATOM     13  N   UNL     1       6.730   4.274  13.027  0.00  0.00    +0.000 N 
ATOM     14  C   UNL     1       7.633   5.024  12.333  0.00  0.00    +0.000 A 
ATOM     15  N   UNL     1       8.307   5.781  13.164  0.00  0.00    +0.000 NA
ATOM     16  N   UNL     1       7.853   5.512  14.429  0.00  0.00    +0.000 NA
ATOM     17  C   UNL     1       6.915   4.587  14.353  0.00  0.00    +0.000 A 
ENDBRANCH  11  17
ENDBRANCH   7  11
ENDBRANCH   1   7
BRANCH   5  18
ATOM     18  C   UNL     1       2.063   7.271  18.834  0.00  0.00    +0.000 C 
BRANCH  18  19
ATOM     19  C   UNL     1       2.552   8.552  18.148  0.00  0.00    +0.000 C 
BRANCH  19  20
ATOM     20  C   UNL     1       1.389   9.491  17.973  0.00  0.00    +0.000 C 
ATOM     21  C   UNL     1       0.240   9.055  17.433  0.00  0.00    +0.000 C 
ATOM     22  C   UNL     1      -1.062   9.785  17.284  0.00  0.00    +0.000 C 
ATOM     23  C   UNL     1      -1.504  10.740  18.368  0.00  0.00    +0.000 C 
ATOM     24  C   UNL     1      -0.788  11.278  19.382  0.00  0.00    +0.000 C 
ATOM     25  C   UNL     1       0.674  11.169  19.689  0.00  0.00    +0.000 C 
ATOM     26  C   UNL     1       1.573  10.887  18.493  0.00  0.00    +0.000 C 
BRANCH  23  27
ATOM     27  C   UNL     1      -2.969  11.081  18.259  0.00  0.00    +0.000 C 
ATOM     28  F   UNL     1      -3.441  11.769  19.328  0.00  0.00    +0.000 F 
ATOM     29  F   UNL     1      -3.221  11.841  17.164  0.00  0.00    +0.000 F 
ATOM     30  F   UNL     1      -3.733   9.963  18.148  0.00  0.00    +0.000 F 
ENDBRANCH  23  27
ENDBRANCH  19  20
ENDBRANCH  18  19
ENDBRANCH   5  18
TORSDOF 7
ENDMDL
MODEL 5
REMARK VINA RESULT:      -8.4      2.591      4.119
REMARK  Name = 
REMARK  8 active torsions:
REMARK  status: ('A' for Active; 'I' for Inactive)
REMARK    1  A    between atoms: C_1  and  N_2
REMARK    2  A    between atoms: C_6  and  C_7
REMARK    3  A    between atoms: C_7  and  C_8
REMARK    4  A    between atoms: C_8  and  C_9
REMARK    5  A    between atoms: C_13  and  C_14
REMARK    6  A    between atoms: C_14  and  C_15
REMARK    7  A    between atoms: C_15  and  C_16
REMARK    8  A    between atoms: C_19  and  C_20
REMARK                            x       y       z     vdW  Elec       q    Type
REMARK                         _______ _______ _______ _____ _____    ______ ____
ROOT
ATOM      1  C   UNL     1       2.763   4.802  18.938  0.00  0.00    +0.000 A 
ATOM      2  C   UNL     1       2.226   4.818  20.237  0.00  0.00    +0.000 A 
ATOM      3  C   UNL     1       1.769   5.999  20.826  0.00  0.00    +0.000 A 
ATOM      4  C   UNL     1       1.843   7.201  20.134  0.00  0.00    +0.000 A 
ATOM      5  C   UNL     1       2.406   7.238  18.859  0.00  0.00    +0.000 A 
ATOM      6  C   UNL     1       2.829   6.038  18.271  0.00  0.00    +0.000 A 
ENDROOT
BRANCH   1   7
ATOM      7  C   UNL     1       3.316   3.479  18.234  0.00  0.00    +0.000 C 
ATOM      8  C   UNL     1       3.822   2.323  19.136  0.00  0.00    +0.000 C 
ATOM      9  O   UNL     1       2.835   1.403  18.621  0.00  0.00    +0.000 OA
ATOM     10  C   UNL     1       2.235   2.436  17.821  0.00  0.00    +0.000 C 
BRANCH   7  11
ATOM     11  C   UNL     1       4.208   3.861  17.037  0.00  0.00    +0.000 C 
BRANCH  11  17
ATOM     12  C   UNL     1       6.693   4.391  15.089  0.00  0.00    +0.000 C 
ATOM     13  N   UNL     1       6.668   4.411  16.528  0.00  0.00    +0.000 N 
ATOM     14  C   UNL     1       7.766   4.604  17.313  0.00  0.00    +0.000 A 
ATOM     15  N   UNL     1       7.413   4.580  18.575  0.00  0.00    +0.000 NA
ATOM     16  N   UNL     1       6.063   4.350  18.623  0.00  0.00    +0.000 NA
ATOM     17  C   UNL     1       5.612   4.226  17.389  0.00  0.00    +0.000 A 
ENDBRANCH  11  17
ENDBRANCH   7  11
ENDBRANCH   1   7
BRANCH   5  18
ATOM     18  C   UNL     1       2.539   8.505  18.059  0.00  0.00    +0.000 C 
BRANCH  18  19
ATOM     19  C   UNL     1       1.201   9.128  17.643  0.00  0.00    +0.000 C 
BRANCH  19  20
ATOM     20  C   UNL     1       1.034  10.449  18.344  0.00  0.00    +0.000 C 
ATOM     21  C   UNL     1       1.987  11.389  18.256  0.00  0.00    +0.000 C 
ATOM     22  C   UNL     1       1.964  12.798  18.771  0.00  0.00    +0.000 C 
ATOM     23  C   UNL     1       0.672  13.579  18.731  0.00  0.00    +0.000 C 
ATOM     24  C   UNL     1      -0.593  13.138  18.540  0.00  0.00    +0.000 C 
ATOM     25  C   UNL     1      -1.111  11.740  18.403  0.00  0.00    +0.000 C 
ATOM     26  C   UNL     1      -0.265  10.662  19.066  0.00  0.00    +0.000 C 
BRANCH  23  27
ATOM     27  C   UNL     1       0.900  15.060  18.911  0.00  0.00    +0.000 C 
ATOM     28  F   UNL     1      -0.133  15.819  18.469  0.00  0.00    +0.000 F 
ATOM     29  F   UNL     1       1.087  15.377  20.217  0.00  0.00    +0.000 F 
ATOM     30  F   UNL     1       2.005  15.478  18.241  0.00  0.00    +0.000 F 
ENDBRANCH  23  27
ENDBRANCH  19  20
ENDBRANCH  18  19
ENDBRANCH   5  18
TORSDOF 7
ENDMDL
MODEL 6
REMARK VINA RESULT:      -8.3      6.079      8.093
REMARK  Name = 
REMARK  8 active torsions:
REMARK  status: ('A' for Active; 'I' for Inactive)
REMARK    1  A    between atoms: C_1  and  N_2
REMARK    2  A    between atoms: C_6  and  C_7
REMARK    3  A    between atoms: C_7  and  C_8
REMARK    4  A    between atoms: C_8  and  C_9
REMARK    5  A    between atoms: C_13  and  C_14
REMARK    6  A    between atoms: C_14  and  C_15
REMARK    7  A    between atoms: C_15  and  C_16
REMARK    8  A    between atoms: C_19  and  C_20
REMARK                            x       y       z     vdW  Elec       q    Type
REMARK                         _______ _______ _______ _____ _____    ______ ____
ROOT
ATOM      1  C   UNL     1       6.823   5.588  17.243  0.00  0.00    +0.000 A 
ATOM      2  C   UNL     1       7.373   4.965  18.377  0.00  0.00    +0.000 A 
ATOM      3  C   UNL     1       8.134   5.677  19.307  0.00  0.00    +0.000 A 
ATOM      4  C   UNL     1       8.373   7.033  19.125  0.00  0.00    +0.000 A 
ATOM      5  C   UNL     1       7.881   7.682  17.994  0.00  0.00    +0.000 A 
ATOM      6  C   UNL     1       7.092   6.960  17.088  0.00  0.00    +0.000 A 
ENDROOT
BRANCH   1   7
ATOM      7  C   UNL     1       5.965   4.809  16.144  0.00  0.00    +0.000 C 
ATOM      8  C   UNL     1       5.335   5.628  14.987  0.00  0.00    +0.000 C 
ATOM      9  O   UNL     1       6.077   4.901  13.983  0.00  0.00    +0.000 OA
ATOM     10  C   UNL     1       6.786   4.159  14.991  0.00  0.00    +0.000 C 
BRANCH   7  11
ATOM     11  C   UNL     1       5.055   3.774  16.833  0.00  0.00    +0.000 C 
BRANCH  11  17
ATOM     12  C   UNL     1       2.383   2.238  17.699  0.00  0.00    +0.000 C 
ATOM     13  N   UNL     1       2.659   3.649  17.759  0.00  0.00    +0.000 N 
ATOM     14  C   UNL     1       1.757   4.594  18.151  0.00  0.00    +0.000 A 
ATOM     15  N   UNL     1       2.315   5.779  18.109  0.00  0.00    +0.000 NA
ATOM     16  N   UNL     1       3.601   5.615  17.664  0.00  0.00    +0.000 NA
ATOM     17  C   UNL     1       3.806   4.332  17.431  0.00  0.00    +0.000 A 
ENDBRANCH  11  17
ENDBRANCH   7  11
ENDBRANCH   1   7
BRANCH   5  18
ATOM     18  C   UNL     1       8.119   9.142  17.719  0.00  0.00    +0.000 C 
BRANCH  18  19
ATOM     19  C   UNL     1       8.930   9.861  18.804  0.00  0.00    +0.000 C 
BRANCH  19  20
ATOM     20  C   UNL     1       9.493  11.135  18.235  0.00  0.00    +0.000 C 
ATOM     21  C   UNL     1       8.695  12.192  18.017  0.00  0.00    +0.000 C 
ATOM     22  C   UNL     1       9.072  13.575  17.576  0.00  0.00    +0.000 C 
ATOM     23  C   UNL     1      10.362  14.184  18.072  0.00  0.00    +0.000 C 
ATOM     24  C   UNL     1      11.420  13.588  18.669  0.00  0.00    +0.000 C 
ATOM     25  C   UNL     1      11.678  12.138  18.939  0.00  0.00    +0.000 C 
ATOM     26  C   UNL     1      10.976  11.164  18.002  0.00  0.00    +0.000 C 
BRANCH  23  27
ATOM     27  C   UNL     1      10.401  15.678  17.862  0.00  0.00    +0.000 C 
ATOM     28  F   UNL     1       9.337  16.150  17.167  0.00  0.00    +0.000 F 
ATOM     29  F   UNL     1      10.422  16.344  19.044  0.00  0.00    +0.000 F 
ATOM     30  F   UNL     1      11.512  16.055  17.177  0.00  0.00    +0.000 F 
ENDBRANCH  23  27
ENDBRANCH  19  20
ENDBRANCH  18  19
ENDBRANCH   5  18
TORSDOF 7
ENDMDL
MODEL 7
REMARK VINA RESULT:      -8.3      1.733      2.495
REMARK  Name = 
REMARK  8 active torsions:
REMARK  status: ('A' for Active; 'I' for Inactive)
REMARK    1  A    between atoms: C_1  and  N_2
REMARK    2  A    between atoms: C_6  and  C_7
REMARK    3  A    between atoms: C_7  and  C_8
REMARK    4  A    between atoms: C_8  and  C_9
REMARK    5  A    between atoms: C_13  and  C_14
REMARK    6  A    between atoms: C_14  and  C_15
REMARK    7  A    between atoms: C_15  and  C_16
REMARK    8  A    between atoms: C_19  and  C_20
REMARK                            x       y       z     vdW  Elec       q    Type
REMARK                         _______ _______ _______ _____ _____    ______ ____
ROOT
ATOM      1  C   UNL     1       4.588   5.052  17.253  0.00  0.00    +0.000 A 
ATOM      2  C   UNL     1       3.733   3.936  17.231  0.00  0.00    +0.000 A 
ATOM      3  C   UNL     1       2.399   4.027  17.635  0.00  0.00    +0.000 A 
ATOM      4  C   UNL     1       1.884   5.237  18.082  0.00  0.00    +0.000 A 
ATOM      5  C   UNL     1       2.708   6.359  18.159  0.00  0.00    +0.000 A 
ATOM      6  C   UNL     1       4.035   6.257  17.718  0.00  0.00    +0.000 A 
ENDROOT
BRANCH   1   7
ATOM      7  C   UNL     1       6.125   4.988  16.820  0.00  0.00    +0.000 C 
ATOM      8  C   UNL     1       6.923   6.315  16.746  0.00  0.00    +0.000 C 
ATOM      9  O   UNL     1       7.862   5.883  17.755  0.00  0.00    +0.000 OA
ATOM     10  C   UNL     1       7.130   4.662  17.965  0.00  0.00    +0.000 C 
BRANCH   7  11
ATOM     11  C   UNL     1       6.292   4.014  15.638  0.00  0.00    +0.000 C 
BRANCH  11  17
ATOM     12  C   UNL     1       5.666   3.387  12.562  0.00  0.00    +0.000 C 
ATOM     13  N   UNL     1       6.646   4.289  13.106  0.00  0.00    +0.000 N 
ATOM     14  C   UNL     1       7.541   4.995  12.357  0.00  0.00    +0.000 A 
ATOM     15  N   UNL     1       8.287   5.732  13.143  0.00  0.00    +0.000 NA
ATOM     16  N   UNL     1       7.889   5.495  14.433  0.00  0.00    +0.000 NA
ATOM     17  C   UNL     1       6.913   4.608  14.416  0.00  0.00    +0.000 A 
ENDBRANCH  11  17
ENDBRANCH   7  11
ENDBRANCH   1   7
BRANCH   5  18
ATOM     18  C   UNL     1       2.226   7.696  18.653  0.00  0.00    +0.000 C 
BRANCH  18  19
ATOM     19  C   UNL     1       1.955   7.747  20.162  0.00  0.00    +0.000 C 
BRANCH  19  20
ATOM     20  C   UNL     1       0.920   8.804  20.440  0.00  0.00    +0.000 C 
ATOM     21  C   UNL     1       0.399   8.936  21.670  0.00  0.00    +0.000 C 
ATOM     22  C   UNL     1      -0.541   9.988  22.181  0.00  0.00    +0.000 C 
ATOM     23  C   UNL     1      -0.403  11.408  21.686  0.00  0.00    +0.000 C 
ATOM     24  C   UNL     1       0.283  11.883  20.621  0.00  0.00    +0.000 C 
ATOM     25  C   UNL     1       1.038  11.145  19.558  0.00  0.00    +0.000 C 
ATOM     26  C   UNL     1       0.575   9.718  19.300  0.00  0.00    +0.000 C 
BRANCH  23  27
ATOM     27  C   UNL     1      -1.141  12.388  22.563  0.00  0.00    +0.000 C 
ATOM     28  F   UNL     1      -1.584  11.843  23.723  0.00  0.00    +0.000 F 
ATOM     29  F   UNL     1      -0.354  13.440  22.902  0.00  0.00    +0.000 F 
ATOM     30  F   UNL     1      -2.230  12.898  21.932  0.00  0.00    +0.000 F 
ENDBRANCH  23  27
ENDBRANCH  19  20
ENDBRANCH  18  19
ENDBRANCH   5  18
TORSDOF 7
ENDMDL
MODEL 8
REMARK VINA RESULT:      -8.3      3.224      4.931
REMARK  Name = 
REMARK  8 active torsions:
REMARK  status: ('A' for Active; 'I' for Inactive)
REMARK    1  A    between atoms: C_1  and  N_2
REMARK    2  A    between atoms: C_6  and  C_7
REMARK    3  A    between atoms: C_7  and  C_8
REMARK    4  A    between atoms: C_8  and  C_9
REMARK    5  A    between atoms: C_13  and  C_14
REMARK    6  A    between atoms: C_14  and  C_15
REMARK    7  A    between atoms: C_15  and  C_16
REMARK    8  A    between atoms: C_19  and  C_20
REMARK                            x       y       z     vdW  Elec       q    Type
REMARK                         _______ _______ _______ _____ _____    ______ ____
ROOT
ATOM      1  C   UNL     1       4.146   6.007  18.493  0.00  0.00    +0.000 A 
ATOM      2  C   UNL     1       4.009   6.895  17.412  0.00  0.00    +0.000 A 
ATOM      3  C   UNL     1       3.062   7.922  17.423  0.00  0.00    +0.000 A 
ATOM      4  C   UNL     1       2.218   8.084  18.514  0.00  0.00    +0.000 A 
ATOM      5  C   UNL     1       2.291   7.200  19.589  0.00  0.00    +0.000 A 
ATOM      6  C   UNL     1       3.269   6.196  19.575  0.00  0.00    +0.000 A 
ENDROOT
BRANCH   1   7
ATOM      7  C   UNL     1       5.200   4.807  18.513  0.00  0.00    +0.000 C 
ATOM      8  C   UNL     1       5.880   4.403  17.179  0.00  0.00    +0.000 C 
ATOM      9  O   UNL     1       7.198   4.708  17.684  0.00  0.00    +0.000 OA
ATOM     10  C   UNL     1       6.652   5.197  18.921  0.00  0.00    +0.000 C 
BRANCH   7  11
ATOM     11  C   UNL     1       4.664   3.659  19.391  0.00  0.00    +0.000 C 
BRANCH  11  17
ATOM     12  C   UNL     1       2.068   3.007  21.147  0.00  0.00    +0.000 C 
ATOM     13  N   UNL     1       2.270   2.786  19.740  0.00  0.00    +0.000 N 
ATOM     14  C   UNL     1       1.367   2.177  18.919  0.00  0.00    +0.000 A 
ATOM     15  N   UNL     1       1.839   2.138  17.697  0.00  0.00    +0.000 NA
ATOM     16  N   UNL     1       3.083   2.716  17.716  0.00  0.00    +0.000 NA
ATOM     17  C   UNL     1       3.355   3.089  18.951  0.00  0.00    +0.000 A 
ENDBRANCH  11  17
ENDBRANCH   7  11
ENDBRANCH   1   7
BRANCH   5  18
ATOM     18  C   UNL     1       1.395   7.300  20.794  0.00  0.00    +0.000 C 
BRANCH  18  19
ATOM     19  C   UNL     1       1.642   8.543  21.657  0.00  0.00    +0.000 C 
BRANCH  19  20
ATOM     20  C   UNL     1       0.359   9.322  21.776  0.00  0.00    +0.000 C 
ATOM     21  C   UNL     1      -0.095   9.702  22.980  0.00  0.00    +0.000 C 
ATOM     22  C   UNL     1      -1.270  10.576  23.305  0.00  0.00    +0.000 C 
ATOM     23  C   UNL     1      -1.595  11.744  22.404  0.00  0.00    +0.000 C 
ATOM     24  C   UNL     1      -1.154  12.013  21.154  0.00  0.00    +0.000 C 
ATOM     25  C   UNL     1      -0.286  11.198  20.246  0.00  0.00    +0.000 C 
ATOM     26  C   UNL     1      -0.317   9.695  20.489  0.00  0.00    +0.000 C 
BRANCH  23  27
ATOM     27  C   UNL     1      -2.533  12.725  23.064  0.00  0.00    +0.000 C 
ATOM     28  F   UNL     1      -3.458  12.132  23.857  0.00  0.00    +0.000 F 
ATOM     29  F   UNL     1      -1.858  13.608  23.843  0.00  0.00    +0.000 F 
ATOM     30  F   UNL     1      -3.217  13.454  22.144  0.00  0.00    +0.000 F 
ENDBRANCH  23  27
ENDBRANCH  19  20
ENDBRANCH  18  19
ENDBRANCH   5  18
TORSDOF 7
ENDMDL
MODEL 9
REMARK VINA RESULT:      -8.3      6.022      9.471
REMARK  Name = 
REMARK  8 active torsions:
REMARK  status: ('A' for Active; 'I' for Inactive)
REMARK    1  A    between atoms: C_1  and  N_2
REMARK    2  A    between atoms: C_6  and  C_7
REMARK    3  A    between atoms: C_7  and  C_8
REMARK    4  A    between atoms: C_8  and  C_9
REMARK    5  A    between atoms: C_13  and  C_14
REMARK    6  A    between atoms: C_14  and  C_15
REMARK    7  A    between atoms: C_15  and  C_16
REMARK    8  A    between atoms: C_19  and  C_20
REMARK                            x       y       z     vdW  Elec       q    Type
REMARK                         _______ _______ _______ _____ _____    ______ ____
ROOT
ATOM      1  C   UNL     1      -0.762  11.328  20.700  0.00  0.00    +0.000 A 
ATOM      2  C   UNL     1      -1.248  11.692  21.968  0.00  0.00    +0.000 A 
ATOM      3  C   UNL     1      -1.100  10.855  23.077  0.00  0.00    +0.000 A 
ATOM      4  C   UNL     1      -0.469   9.625  22.947  0.00  0.00    +0.000 A 
ATOM      5  C   UNL     1      -0.008   9.207  21.699  0.00  0.00    +0.000 A 
ATOM      6  C   UNL     1      -0.135  10.073  20.605  0.00  0.00    +0.000 A 
ENDROOT
BRANCH   1   7
ATOM      7  C   UNL     1      -0.927  12.244  19.402  0.00  0.00    +0.000 C 
ATOM      8  C   UNL     1      -1.598  13.633  19.562  0.00  0.00    +0.000 C 
ATOM      9  O   UNL     1      -0.417  14.328  19.106  0.00  0.00    +0.000 OA
ATOM     10  C   UNL     1       0.320  13.096  19.019  0.00  0.00    +0.000 C 
BRANCH   7  11
ATOM     11  C   UNL     1      -1.399  11.382  18.214  0.00  0.00    +0.000 C 
BRANCH  11  17
ATOM     12  C   UNL     1      -2.957  10.924  15.456  0.00  0.00    +0.000 C 
ATOM     13  N   UNL     1      -3.505  11.258  16.744  0.00  0.00    +0.000 N 
ATOM     14  C   UNL     1      -4.826  11.505  16.979  0.00  0.00    +0.000 A 
ATOM     15  N   UNL     1      -5.006  11.767  18.250  0.00  0.00    +0.000 NA
ATOM     16  N   UNL     1      -3.780  11.710  18.861  0.00  0.00    +0.000 NA
ATOM     17  C   UNL     1      -2.868  11.423  17.952  0.00  0.00    +0.000 A 
ENDBRANCH  11  17
ENDBRANCH   7  11
ENDBRANCH   1   7
BRANCH   5  18
ATOM     18  C   UNL     1       0.666   7.880  21.478  0.00  0.00    +0.000 C 
BRANCH  18  19
ATOM     19  C   UNL     1       1.813   7.920  20.462  0.00  0.00    +0.000 C 
BRANCH  19  20
ATOM     20  C   UNL     1       2.200   6.511  20.100  0.00  0.00    +0.000 C 
ATOM     21  C   UNL     1       1.454   5.475  20.515  0.00  0.00    +0.000 C 
ATOM     22  C   UNL     1       1.594   4.022  20.169  0.00  0.00    +0.000 C 
ATOM     23  C   UNL     1       2.023   3.632  18.775  0.00  0.00    +0.000 C 
ATOM     24  C   UNL     1       2.578   4.392  17.802  0.00  0.00    +0.000 C 
ATOM     25  C   UNL     1       3.020   5.821  17.837  0.00  0.00    +0.000 C 
ATOM     26  C   UNL     1       3.399   6.355  19.211  0.00  0.00    +0.000 C 
BRANCH  23  27
ATOM     27  C   UNL     1       1.741   2.178  18.481  0.00  0.00    +0.000 C 
ATOM     28  F   UNL     1       2.374   1.328  19.327  0.00  0.00    +0.000 F 
ATOM     29  F   UNL     1       0.416   1.903  18.569  0.00  0.00    +0.000 F 
ATOM     30  F   UNL     1       2.132   1.840  17.225  0.00  0.00    +0.000 F 
ENDBRANCH  23  27
ENDBRANCH  19  20
ENDBRANCH  18  19
ENDBRANCH   5  18
TORSDOF 7
ENDMDL
