MODEL 1
REMARK VINA RESULT:      -7.9      0.000      0.000
REMARK  Name = 
REMARK  4 active torsions:
REMARK  status: ('A' for Active; 'I' for Inactive)
REMARK    1  A    between atoms: C_2  and  C_3
REMARK    2  A    between atoms: N_12  and  C_13
REMARK    3  A    between atoms: C_13  and  C_14
REMARK    4  A    between atoms: C_13  and  C_21
REMARK                            x       y       z     vdW  Elec       q    Type
REMARK                         _______ _______ _______ _____ _____    ______ ____
ROOT
ATOM      1  O   UNL     1      -0.645  10.130  20.954  0.00  0.00    +0.000 OA
ATOM      2  C   UNL     1      -0.379   9.910  19.776  0.00  0.00    +0.000 C 
ATOM      3  N   UNL     1       0.562   8.987  19.339  0.00  0.00    +0.000 N 
ATOM      4  C   UNL     1       1.066   7.988  20.278  0.00  0.00    +0.000 C 
ATOM      5  C   UNL     1       2.585   7.805  20.139  0.00  0.00    +0.000 C 
ATOM      6  N   UNL     1       3.059   7.520  18.760  0.00  0.00    +0.000 NA
ATOM      7  C   UNL     1       2.552   8.620  17.894  0.00  0.00    +0.000 C 
ATOM      8  C   UNL     1       1.026   8.849  17.955  0.00  0.00    +0.000 C 
ENDROOT
BRANCH   2   9
ATOM      9  C   UNL     1      -1.097  10.758  18.744  0.00  0.00    +0.000 A 
ATOM     10  N   UNL     1      -2.197  10.366  18.151  0.00  0.00    +0.000 NA
ATOM     11  C   UNL     1      -2.441  11.345  17.217  0.00  0.00    +0.000 A 
ATOM     12  O   UNL     1      -3.437  11.450  16.518  0.00  0.00    +0.000 OA
ATOM     13  N   UNL     1      -1.384  12.240  17.197  0.00  0.00    +0.000 N 
ATOM     14  N   UNL     1      -0.613  11.986  18.334  0.00  0.00    +0.000 N 
ATOM     15  H   UNL     1      -1.611  13.194  16.943  0.00  0.00    +0.000 HD
ATOM     16  H   UNL     1       0.399  12.055  18.251  0.00  0.00    +0.000 HD
ENDBRANCH   2   9
BRANCH   6  17
ATOM     17  C   UNL     1       2.644   6.182  18.238  0.00  0.00    +0.000 C 
BRANCH  17  18
ATOM     18  C   UNL     1       3.723   5.587  17.320  0.00  0.00    +0.000 A 
ATOM     19  C   UNL     1       3.809   4.197  17.110  0.00  0.00    +0.000 A 
ATOM     20  C   UNL     1       4.821   3.659  16.316  0.00  0.00    +0.000 A 
ATOM     21  C   UNL     1       5.756   4.505  15.733  0.00  0.00    +0.000 A 
ATOM     22  F   UNL     1       6.735   3.987  14.980  0.00  0.00    +0.000 F 
ATOM     23  C   UNL     1       5.697   5.879  15.927  0.00  0.00    +0.000 A 
ATOM     24  C   UNL     1       4.681   6.422  16.715  0.00  0.00    +0.000 A 
ENDBRANCH  17  18
BRANCH  17  25
ATOM     25  C   UNL     1       2.241   5.155  19.306  0.00  0.00    +0.000 A 
ATOM     26  C   UNL     1       1.099   4.359  19.092  0.00  0.00    +0.000 A 
ATOM     27  C   UNL     1       0.699   3.412  20.037  0.00  0.00    +0.000 A 
ATOM     28  C   UNL     1       1.441   3.251  21.200  0.00  0.00    +0.000 A 
ATOM     29  F   UNL     1       1.050   2.351  22.113  0.00  0.00    +0.000 F 
ATOM     30  C   UNL     1       2.584   4.006  21.427  0.00  0.00    +0.000 A 
ATOM     31  C   UNL     1       2.992   4.945  20.478  0.00  0.00    +0.000 A 
ENDBRANCH  17  25
ENDBRANCH   6  17
TORSDOF 4
ENDMDL
MODEL 2
REMARK VINA RESULT:      -7.7      0.115      1.275
REMARK  Name = 
REMARK  4 active torsions:
REMARK  status: ('A' for Active; 'I' for Inactive)
REMARK    1  A    between atoms: C_2  and  C_3
REMARK    2  A    between atoms: N_12  and  C_13
REMARK    3  A    between atoms: C_13  and  C_14
REMARK    4  A    between atoms: C_13  and  C_21
REMARK                            x       y       z     vdW  Elec       q    Type
REMARK                         _______ _______ _______ _____ _____    ______ ____
ROOT
ATOM      1  O   UNL     1      -0.640  10.052  20.998  0.00  0.00    +0.000 OA
ATOM      2  C   UNL     1      -0.355   9.856  19.820  0.00  0.00    +0.000 C 
ATOM      3  N   UNL     1       0.585   8.933  19.379  0.00  0.00    +0.000 N 
ATOM      4  C   UNL     1       1.061   7.908  20.304  0.00  0.00    +0.000 C 
ATOM      5  C   UNL     1       2.580   7.712  20.189  0.00  0.00    +0.000 C 
ATOM      6  N   UNL     1       3.077   7.452  18.813  0.00  0.00    +0.000 NA
ATOM      7  C   UNL     1       2.597   8.577  17.963  0.00  0.00    +0.000 C 
ATOM      8  C   UNL     1       1.073   8.821  18.001  0.00  0.00    +0.000 C 
ENDROOT
BRANCH   2   9
ATOM      9  C   UNL     1      -1.044  10.735  18.795  0.00  0.00    +0.000 A 
ATOM     10  N   UNL     1      -2.173  10.397  18.222  0.00  0.00    +0.000 NA
ATOM     11  C   UNL     1      -2.381  11.383  17.286  0.00  0.00    +0.000 A 
ATOM     12  O   UNL     1      -3.381  11.535  16.602  0.00  0.00    +0.000 OA
ATOM     13  N   UNL     1      -1.279  12.222  17.244  0.00  0.00    +0.000 N 
ATOM     14  N   UNL     1      -0.504  11.934  18.370  0.00  0.00    +0.000 N 
ATOM     15  H   UNL     1      -1.461  13.186  16.987  0.00  0.00    +0.000 HD
ATOM     16  H   UNL     1       0.509  11.950  18.270  0.00  0.00    +0.000 HD
ENDBRANCH   2   9
BRANCH   6  17
ATOM     17  C   UNL     1       2.657   6.131  18.253  0.00  0.00    +0.000 C 
BRANCH  17  18
ATOM     18  C   UNL     1       3.743   5.549  17.335  0.00  0.00    +0.000 A 
ATOM     19  C   UNL     1       4.630   6.391  16.639  0.00  0.00    +0.000 A 
ATOM     20  C   UNL     1       5.582   5.858  15.769  0.00  0.00    +0.000 A 
ATOM     21  C   UNL     1       5.647   4.483  15.586  0.00  0.00    +0.000 A 
ATOM     22  F   UNL     1       6.553   3.972  14.741  0.00  0.00    +0.000 F 
ATOM     23  C   UNL     1       4.781   3.629  16.258  0.00  0.00    +0.000 A 
ATOM     24  C   UNL     1       3.833   4.158  17.135  0.00  0.00    +0.000 A 
ENDBRANCH  17  18
BRANCH  17  25
ATOM     25  C   UNL     1       2.232   5.082  19.291  0.00  0.00    +0.000 A 
ATOM     26  C   UNL     1       3.012   4.915  20.453  0.00  0.00    +0.000 A 
ATOM     27  C   UNL     1       2.660   3.974  21.422  0.00  0.00    +0.000 A 
ATOM     28  C   UNL     1       1.524   3.197  21.241  0.00  0.00    +0.000 A 
ATOM     29  F   UNL     1       1.193   2.285  22.164  0.00  0.00    +0.000 F 
ATOM     30  C   UNL     1       0.724   3.355  20.116  0.00  0.00    +0.000 A 
ATOM     31  C   UNL     1       1.068   4.304  19.151  0.00  0.00    +0.000 A 
ENDBRANCH  17  25
ENDBRANCH   6  17
TORSDOF 4
ENDMDL
MODEL 3
REMARK VINA RESULT:      -7.6      4.989      7.748
REMARK  Name = 
REMARK  4 active torsions:
REMARK  status: ('A' for Active; 'I' for Inactive)
REMARK    1  A    between atoms: C_2  and  C_3
REMARK    2  A    between atoms: N_12  and  C_13
REMARK    3  A    between atoms: C_13  and  C_14
REMARK    4  A    between atoms: C_13  and  C_21
REMARK                            x       y       z     vdW  Elec       q    Type
REMARK                         _______ _______ _______ _____ _____    ______ ____
ROOT
ATOM      1  O   UNL     1       2.303  16.897  18.431  0.00  0.00    +0.000 OA
ATOM      2  C   UNL     1       2.753  15.771  18.628  0.00  0.00    +0.000 C 
ATOM      3  N   UNL     1       1.980  14.645  18.877  0.00  0.00    +0.000 N 
ATOM      4  C   UNL     1       0.546  14.692  18.600  0.00  0.00    +0.000 C 
ATOM      5  C   UNL     1      -0.263  14.024  19.721  0.00  0.00    +0.000 C 
ATOM      6  N   UNL     1       0.162  12.643  20.065  0.00  0.00    +0.000 NA
ATOM      7  C   UNL     1       1.613  12.709  20.393  0.00  0.00    +0.000 C 
ATOM      8  C   UNL     1       2.502  13.343  19.301  0.00  0.00    +0.000 C 
ENDROOT
BRANCH   2   9
ATOM      9  C   UNL     1       4.263  15.634  18.654  0.00  0.00    +0.000 A 
ATOM     10  N   UNL     1       4.945  15.160  17.642  0.00  0.00    +0.000 NA
ATOM     11  C   UNL     1       6.234  15.084  18.114  0.00  0.00    +0.000 A 
ATOM     12  O   UNL     1       7.231  14.807  17.464  0.00  0.00    +0.000 OA
ATOM     13  N   UNL     1       6.253  15.401  19.462  0.00  0.00    +0.000 N 
ATOM     14  N   UNL     1       5.013  15.968  19.765  0.00  0.00    +0.000 N 
ATOM     15  H   UNL     1       7.104  15.829  19.809  0.00  0.00    +0.000 HD
ATOM     16  H   UNL     1       4.592  15.744  20.665  0.00  0.00    +0.000 HD
ENDBRANCH   2   9
BRANCH   6  17
ATOM     17  C   UNL     1      -0.107  11.638  18.992  0.00  0.00    +0.000 C 
BRANCH  17  18
ATOM     18  C   UNL     1       0.520  10.278  19.338  0.00  0.00    +0.000 A 
ATOM     19  C   UNL     1       0.285   9.668  20.585  0.00  0.00    +0.000 A 
ATOM     20  C   UNL     1       0.897   8.458  20.911  0.00  0.00    +0.000 A 
ATOM     21  C   UNL     1       1.751   7.855  19.997  0.00  0.00    +0.000 A 
ATOM     22  F   UNL     1       2.348   6.699  20.316  0.00  0.00    +0.000 F 
ATOM     23  C   UNL     1       2.004   8.437  18.761  0.00  0.00    +0.000 A 
ATOM     24  C   UNL     1       1.387   9.645  18.428  0.00  0.00    +0.000 A 
ENDBRANCH  17  18
BRANCH  17  25
ATOM     25  C   UNL     1      -1.586  11.452  18.621  0.00  0.00    +0.000 A 
ATOM     26  C   UNL     1      -1.914  10.681  17.488  0.00  0.00    +0.000 A 
ATOM     27  C   UNL     1      -3.246  10.486  17.117  0.00  0.00    +0.000 A 
ATOM     28  C   UNL     1      -4.258  11.055  17.877  0.00  0.00    +0.000 A 
ATOM     29  F   UNL     1      -5.536  10.878  17.513  0.00  0.00    +0.000 F 
ATOM     30  C   UNL     1      -3.966  11.801  19.011  0.00  0.00    +0.000 A 
ATOM     31  C   UNL     1      -2.635  11.988  19.391  0.00  0.00    +0.000 A 
ENDBRANCH  17  25
ENDBRANCH   6  17
TORSDOF 4
ENDMDL
MODEL 4
REMARK VINA RESULT:      -7.6      1.969      2.461
REMARK  Name = 
REMARK  4 active torsions:
REMARK  status: ('A' for Active; 'I' for Inactive)
REMARK    1  A    between atoms: C_2  and  C_3
REMARK    2  A    between atoms: N_12  and  C_13
REMARK    3  A    between atoms: C_13  and  C_14
REMARK    4  A    between atoms: C_13  and  C_21
REMARK                            x       y       z     vdW  Elec       q    Type
REMARK                         _______ _______ _______ _____ _____    ______ ____
ROOT
ATOM      1  O   UNL     1       0.836   8.772  20.898  0.00  0.00    +0.000 OA
ATOM      2  C   UNL     1       1.194   8.926  19.733  0.00  0.00    +0.000 C 
ATOM      3  N   UNL     1       2.053   8.072  19.053  0.00  0.00    +0.000 N 
ATOM      4  C   UNL     1       2.327   6.749  19.609  0.00  0.00    +0.000 C 
ATOM      5  C   UNL     1       3.817   6.393  19.499  0.00  0.00    +0.000 C 
ATOM      6  N   UNL     1       4.394   6.522  18.136  0.00  0.00    +0.000 NA
ATOM      7  C   UNL     1       4.122   7.915  17.683  0.00  0.00    +0.000 C 
ATOM      8  C   UNL     1       2.639   8.341  17.737  0.00  0.00    +0.000 C 
ENDROOT
BRANCH   2   9
ATOM      9  C   UNL     1       0.701  10.172  19.026  0.00  0.00    +0.000 A 
ATOM     10  N   UNL     1       1.080  11.377  19.373  0.00  0.00    +0.000 NA
ATOM     11  C   UNL     1       0.319  12.207  18.584  0.00  0.00    +0.000 A 
ATOM     12  O   UNL     1       0.429  13.420  18.488  0.00  0.00    +0.000 OA
ATOM     13  N   UNL     1      -0.601  11.455  17.872  0.00  0.00    +0.000 N 
ATOM     14  N   UNL     1      -0.213  10.118  17.991  0.00  0.00    +0.000 N 
ATOM     15  H   UNL     1      -0.876  11.824  16.969  0.00  0.00    +0.000 HD
ATOM     16  H   UNL     1      -0.944   9.415  18.084  0.00  0.00    +0.000 HD
ENDBRANCH   2   9
BRANCH   6  17
ATOM     17  C   UNL     1       3.872   5.521  17.157  0.00  0.00    +0.000 C 
BRANCH  17  18
ATOM     18  C   UNL     1       4.945   5.146  16.123  0.00  0.00    +0.000 A 
ATOM     19  C   UNL     1       6.284   5.548  16.291  0.00  0.00    +0.000 A 
ATOM     20  C   UNL     1       7.243   5.247  15.324  0.00  0.00    +0.000 A 
ATOM     21  C   UNL     1       6.870   4.549  14.184  0.00  0.00    +0.000 A 
ATOM     22  F   UNL     1       7.789   4.270  13.250  0.00  0.00    +0.000 F 
ATOM     23  C   UNL     1       5.555   4.143  13.991  0.00  0.00    +0.000 A 
ATOM     24  C   UNL     1       4.593   4.436  14.960  0.00  0.00    +0.000 A 
ENDBRANCH  17  18
BRANCH  17  25
ATOM     25  C   UNL     1       3.272   4.248  17.773  0.00  0.00    +0.000 A 
ATOM     26  C   UNL     1       1.875   4.065  17.740  0.00  0.00    +0.000 A 
ATOM     27  C   UNL     1       1.291   2.922  18.287  0.00  0.00    +0.000 A 
ATOM     28  C   UNL     1       2.096   1.952  18.867  0.00  0.00    +0.000 A 
ATOM     29  F   UNL     1       1.534   0.861  19.405  0.00  0.00    +0.000 F 
ATOM     30  C   UNL     1       3.478   2.095  18.895  0.00  0.00    +0.000 A 
ATOM     31  C   UNL     1       4.065   3.233  18.338  0.00  0.00    +0.000 A 
ENDBRANCH  17  25
ENDBRANCH   6  17
TORSDOF 4
ENDMDL
MODEL 5
REMARK VINA RESULT:      -7.3      5.266      8.116
REMARK  Name = 
REMARK  4 active torsions:
REMARK  status: ('A' for Active; 'I' for Inactive)
REMARK    1  A    between atoms: C_2  and  C_3
REMARK    2  A    between atoms: N_12  and  C_13
REMARK    3  A    between atoms: C_13  and  C_14
REMARK    4  A    between atoms: C_13  and  C_21
REMARK                            x       y       z     vdW  Elec       q    Type
REMARK                         _______ _______ _______ _____ _____    ______ ____
ROOT
ATOM      1  O   UNL     1       2.946  17.164  18.581  0.00  0.00    +0.000 OA
ATOM      2  C   UNL     1       3.267  15.993  18.763  0.00  0.00    +0.000 C 
ATOM      3  N   UNL     1       2.373  14.960  19.013  0.00  0.00    +0.000 N 
ATOM      4  C   UNL     1       0.951  15.173  18.755  0.00  0.00    +0.000 C 
ATOM      5  C   UNL     1       0.084  14.591  19.882  0.00  0.00    +0.000 C 
ATOM      6  N   UNL     1       0.353  13.167  20.209  0.00  0.00    +0.000 NA
ATOM      7  C   UNL     1       1.806  13.063  20.518  0.00  0.00    +0.000 C 
ATOM      8  C   UNL     1       2.748  13.602  19.419  0.00  0.00    +0.000 C 
ENDROOT
BRANCH   2   9
ATOM      9  C   UNL     1       4.751  15.684  18.767  0.00  0.00    +0.000 A 
ATOM     10  N   UNL     1       5.357  15.119  17.753  0.00  0.00    +0.000 NA
ATOM     11  C   UNL     1       6.637  14.903  18.206  0.00  0.00    +0.000 A 
ATOM     12  O   UNL     1       7.584  14.504  17.546  0.00  0.00    +0.000 OA
ATOM     13  N   UNL     1       6.715  15.236  19.549  0.00  0.00    +0.000 N 
ATOM     14  N   UNL     1       5.554  15.946  19.861  0.00  0.00    +0.000 N 
ATOM     15  H   UNL     1       7.616  15.569  19.874  0.00  0.00    +0.000 HD
ATOM     16  H   UNL     1       5.126  15.786  20.771  0.00  0.00    +0.000 HD
ENDBRANCH   2   9
BRANCH   6  17
ATOM     17  C   UNL     1      -0.042  12.209  19.131  0.00  0.00    +0.000 C 
BRANCH  17  18
ATOM     18  C   UNL     1       0.585  10.825  19.363  0.00  0.00    +0.000 A 
ATOM     19  C   UNL     1       1.353  10.202  18.361  0.00  0.00    +0.000 A 
ATOM     20  C   UNL     1       1.878   8.925  18.559  0.00  0.00    +0.000 A 
ATOM     21  C   UNL     1       1.633   8.263  19.754  0.00  0.00    +0.000 A 
ATOM     22  F   UNL     1       2.127   7.031  19.939  0.00  0.00    +0.000 F 
ATOM     23  C   UNL     1       0.875   8.853  20.758  0.00  0.00    +0.000 A 
ATOM     24  C   UNL     1       0.354  10.134  20.567  0.00  0.00    +0.000 A 
ENDBRANCH  17  18
BRANCH  17  25
ATOM     25  C   UNL     1      -1.555  12.066  18.901  0.00  0.00    +0.000 A 
ATOM     26  C   UNL     1      -2.011  11.509  17.689  0.00  0.00    +0.000 A 
ATOM     27  C   UNL     1      -3.376  11.360  17.441  0.00  0.00    +0.000 A 
ATOM     28  C   UNL     1      -4.295  11.760  18.402  0.00  0.00    +0.000 A 
ATOM     29  F   UNL     1      -5.605  11.629  18.158  0.00  0.00    +0.000 F 
ATOM     30  C   UNL     1      -3.873  12.292  19.614  0.00  0.00    +0.000 A 
ATOM     31  C   UNL     1      -2.508  12.431  19.869  0.00  0.00    +0.000 A 
ENDBRANCH  17  25
ENDBRANCH   6  17
TORSDOF 4
ENDMDL
MODEL 6
REMARK VINA RESULT:      -7.3      1.731      2.156
REMARK  Name = 
REMARK  4 active torsions:
REMARK  status: ('A' for Active; 'I' for Inactive)
REMARK    1  A    between atoms: C_2  and  C_3
REMARK    2  A    between atoms: N_12  and  C_13
REMARK    3  A    between atoms: C_13  and  C_14
REMARK    4  A    between atoms: C_13  and  C_21
REMARK                            x       y       z     vdW  Elec       q    Type
REMARK                         _______ _______ _______ _____ _____    ______ ____
ROOT
ATOM      1  O   UNL     1       0.970   8.555  21.170  0.00  0.00    +0.000 OA
ATOM      2  C   UNL     1       1.226   8.756  19.986  0.00  0.00    +0.000 C 
ATOM      3  N   UNL     1       2.070   7.965  19.217  0.00  0.00    +0.000 N 
ATOM      4  C   UNL     1       2.454   6.646  19.712  0.00  0.00    +0.000 C 
ATOM      5  C   UNL     1       3.948   6.372  19.475  0.00  0.00    +0.000 C 
ATOM      6  N   UNL     1       4.406   6.564  18.075  0.00  0.00    +0.000 NA
ATOM      7  C   UNL     1       4.028   7.951  17.684  0.00  0.00    +0.000 C 
ATOM      8  C   UNL     1       2.534   8.297  17.866  0.00  0.00    +0.000 C 
ENDROOT
BRANCH   2   9
ATOM      9  C   UNL     1       0.614   9.991  19.355  0.00  0.00    +0.000 A 
ATOM     10  N   UNL     1      -0.616  10.018  18.908  0.00  0.00    +0.000 NA
ATOM     11  C   UNL     1      -0.728  11.252  18.311  0.00  0.00    +0.000 A 
ATOM     12  O   UNL     1      -1.748  11.753  17.864  0.00  0.00    +0.000 OA
ATOM     13  N   UNL     1       0.507  11.879  18.309  0.00  0.00    +0.000 N 
ATOM     14  N   UNL     1       1.331  11.159  19.177  0.00  0.00    +0.000 N 
ATOM     15  H   UNL     1       0.494  12.892  18.347  0.00  0.00    +0.000 HD
ATOM     16  H   UNL     1       2.309  11.041  18.919  0.00  0.00    +0.000 HD
ENDBRANCH   2   9
BRANCH   6  17
ATOM     17  C   UNL     1       3.858   5.560  17.112  0.00  0.00    +0.000 C 
BRANCH  17  18
ATOM     18  C   UNL     1       4.899   5.195  16.041  0.00  0.00    +0.000 A 
ATOM     19  C   UNL     1       4.541   4.429  14.916  0.00  0.00    +0.000 A 
ATOM     20  C   UNL     1       5.500   4.059  13.973  0.00  0.00    +0.000 A 
ATOM     21  C   UNL     1       6.821   4.447  14.154  0.00  0.00    +0.000 A 
ATOM     22  F   UNL     1       7.745   4.081  13.254  0.00  0.00    +0.000 F 
ATOM     23  C   UNL     1       7.203   5.199  15.257  0.00  0.00    +0.000 A 
ATOM     24  C   UNL     1       6.244   5.578  16.199  0.00  0.00    +0.000 A 
ENDBRANCH  17  18
BRANCH  17  25
ATOM     25  C   UNL     1       3.290   4.282  17.746  0.00  0.00    +0.000 A 
ATOM     26  C   UNL     1       1.898   4.065  17.716  0.00  0.00    +0.000 A 
ATOM     27  C   UNL     1       1.342   2.916  18.280  0.00  0.00    +0.000 A 
ATOM     28  C   UNL     1       2.171   1.973  18.872  0.00  0.00    +0.000 A 
ATOM     29  F   UNL     1       1.636   0.876  19.425  0.00  0.00    +0.000 F 
ATOM     30  C   UNL     1       3.549   2.150  18.897  0.00  0.00    +0.000 A 
ATOM     31  C   UNL     1       4.108   3.294  18.324  0.00  0.00    +0.000 A 
ENDBRANCH  17  25
ENDBRANCH   6  17
TORSDOF 4
ENDMDL
MODEL 7
REMARK VINA RESULT:      -7.3      5.183      8.343
REMARK  Name = 
REMARK  4 active torsions:
REMARK  status: ('A' for Active; 'I' for Inactive)
REMARK    1  A    between atoms: C_2  and  C_3
REMARK    2  A    between atoms: N_12  and  C_13
REMARK    3  A    between atoms: C_13  and  C_14
REMARK    4  A    between atoms: C_13  and  C_21
REMARK                            x       y       z     vdW  Elec       q    Type
REMARK                         _______ _______ _______ _____ _____    ______ ____
ROOT
ATOM      1  O   UNL     1       2.640  16.865  18.348  0.00  0.00    +0.000 OA
ATOM      2  C   UNL     1       2.928  15.708  18.645  0.00  0.00    +0.000 C 
ATOM      3  N   UNL     1       2.011  14.748  19.054  0.00  0.00    +0.000 N 
ATOM      4  C   UNL     1       0.586  14.991  18.843  0.00  0.00    +0.000 C 
ATOM      5  C   UNL     1      -0.240  14.575  20.069  0.00  0.00    +0.000 C 
ATOM      6  N   UNL     1      -0.007  13.186  20.542  0.00  0.00    +0.000 NA
ATOM      7  C   UNL     1       1.456  13.056  20.790  0.00  0.00    +0.000 C 
ATOM      8  C   UNL     1       2.358  13.430  19.593  0.00  0.00    +0.000 C 
ENDROOT
BRANCH   2   9
ATOM      9  C   UNL     1       4.398  15.340  18.613  0.00  0.00    +0.000 A 
ATOM     10  N   UNL     1       5.231  15.683  19.563  0.00  0.00    +0.000 NA
ATOM     11  C   UNL     1       6.459  15.276  19.095  0.00  0.00    +0.000 A 
ATOM     12  O   UNL     1       7.512  15.288  19.712  0.00  0.00    +0.000 OA
ATOM     13  N   UNL     1       6.327  14.812  17.796  0.00  0.00    +0.000 N 
ATOM     14  N   UNL     1       4.961  14.649  17.557  0.00  0.00    +0.000 N 
ATOM     15  H   UNL     1       6.981  14.091  17.512  0.00  0.00    +0.000 HD
ATOM     16  H   UNL     1       4.606  14.889  16.634  0.00  0.00    +0.000 HD
ENDBRANCH   2   9
BRANCH   6  17
ATOM     17  C   UNL     1      -0.493  12.132  19.600  0.00  0.00    +0.000 C 
BRANCH  17  18
ATOM     18  C   UNL     1       0.011  10.742  20.017  0.00  0.00    +0.000 A 
ATOM     19  C   UNL     1      -0.340  10.188  21.262  0.00  0.00    +0.000 A 
ATOM     20  C   UNL     1       0.161   8.947  21.655  0.00  0.00    +0.000 A 
ATOM     21  C   UNL     1       1.020   8.257  20.810  0.00  0.00    +0.000 A 
ATOM     22  F   UNL     1       1.512   7.071  21.193  0.00  0.00    +0.000 F 
ATOM     23  C   UNL     1       1.387   8.783  19.578  0.00  0.00    +0.000 A 
ATOM     24  C   UNL     1       0.881  10.021  19.177  0.00  0.00    +0.000 A 
ENDBRANCH  17  18
BRANCH  17  25
ATOM     25  C   UNL     1      -2.014  12.094  19.385  0.00  0.00    +0.000 A 
ATOM     26  C   UNL     1      -2.856  12.673  20.355  0.00  0.00    +0.000 A 
ATOM     27  C   UNL     1      -4.243  12.661  20.196  0.00  0.00    +0.000 A 
ATOM     28  C   UNL     1      -4.798  12.076  19.067  0.00  0.00    +0.000 A 
ATOM     29  F   UNL     1      -6.129  12.052  18.921  0.00  0.00    +0.000 F 
ATOM     30  C   UNL     1      -3.991  11.516  18.084  0.00  0.00    +0.000 A 
ATOM     31  C   UNL     1      -2.603  11.537  18.235  0.00  0.00    +0.000 A 
ENDBRANCH  17  25
ENDBRANCH   6  17
TORSDOF 4
ENDMDL
MODEL 8
REMARK VINA RESULT:      -7.3      2.008      2.547
REMARK  Name = 
REMARK  4 active torsions:
REMARK  status: ('A' for Active; 'I' for Inactive)
REMARK    1  A    between atoms: C_2  and  C_3
REMARK    2  A    between atoms: N_12  and  C_13
REMARK    3  A    between atoms: C_13  and  C_14
REMARK    4  A    between atoms: C_13  and  C_21
REMARK                            x       y       z     vdW  Elec       q    Type
REMARK                         _______ _______ _______ _____ _____    ______ ____
ROOT
ATOM      1  O   UNL     1       0.924   8.749  20.938  0.00  0.00    +0.000 OA
ATOM      2  C   UNL     1       1.259   8.915  19.768  0.00  0.00    +0.000 C 
ATOM      3  N   UNL     1       2.101   8.066  19.061  0.00  0.00    +0.000 N 
ATOM      4  C   UNL     1       2.382   6.737  19.597  0.00  0.00    +0.000 C 
ATOM      5  C   UNL     1       3.869   6.378  19.451  0.00  0.00    +0.000 C 
ATOM      6  N   UNL     1       4.418   6.520  18.078  0.00  0.00    +0.000 NA
ATOM      7  C   UNL     1       4.140   7.918  17.647  0.00  0.00    +0.000 C 
ATOM      8  C   UNL     1       2.660   8.349  17.736  0.00  0.00    +0.000 C 
ENDROOT
BRANCH   2   9
ATOM      9  C   UNL     1       0.755  10.171  19.085  0.00  0.00    +0.000 A 
ATOM     10  N   UNL     1       1.193  11.366  19.394  0.00  0.00    +0.000 NA
ATOM     11  C   UNL     1       0.404  12.214  18.653  0.00  0.00    +0.000 A 
ATOM     12  O   UNL     1       0.543  13.421  18.538  0.00  0.00    +0.000 OA
ATOM     13  N   UNL     1      -0.584  11.484  18.012  0.00  0.00    +0.000 N 
ATOM     14  N   UNL     1      -0.229  10.137  18.116  0.00  0.00    +0.000 N 
ATOM     15  H   UNL     1      -0.910  11.855  17.126  0.00  0.00    +0.000 HD
ATOM     16  H   UNL     1      -0.972   9.458  18.265  0.00  0.00    +0.000 HD
ENDBRANCH   2   9
BRANCH   6  17
ATOM     17  C   UNL     1       3.872   5.532  17.099  0.00  0.00    +0.000 C 
BRANCH  17  18
ATOM     18  C   UNL     1       4.917   5.178  16.029  0.00  0.00    +0.000 A 
ATOM     19  C   UNL     1       4.567   4.411  14.901  0.00  0.00    +0.000 A 
ATOM     20  C   UNL     1       5.531   4.051  13.959  0.00  0.00    +0.000 A 
ATOM     21  C   UNL     1       6.848   4.451  14.142  0.00  0.00    +0.000 A 
ATOM     22  F   UNL     1       7.776   4.095  13.243  0.00  0.00    +0.000 F 
ATOM     23  C   UNL     1       7.221   5.205  15.247  0.00  0.00    +0.000 A 
ATOM     24  C   UNL     1       6.258   5.574  16.188  0.00  0.00    +0.000 A 
ENDBRANCH  17  18
BRANCH  17  25
ATOM     25  C   UNL     1       3.296   4.246  17.712  0.00  0.00    +0.000 A 
ATOM     26  C   UNL     1       4.171   3.342  18.347  0.00  0.00    +0.000 A 
ATOM     27  C   UNL     1       3.689   2.163  18.919  0.00  0.00    +0.000 A 
ATOM     28  C   UNL     1       2.330   1.882  18.866  0.00  0.00    +0.000 A 
ATOM     29  F   UNL     1       1.869   0.745  19.403  0.00  0.00    +0.000 F 
ATOM     30  C   UNL     1       1.442   2.766  18.266  0.00  0.00    +0.000 A 
ATOM     31  C   UNL     1       1.921   3.951  17.703  0.00  0.00    +0.000 A 
ENDBRANCH  17  25
ENDBRANCH   6  17
TORSDOF 4
ENDMDL
MODEL 9
REMARK VINA RESULT:      -7.3      1.757      2.516
REMARK  Name = 
REMARK  4 active torsions:
REMARK  status: ('A' for Active; 'I' for Inactive)
REMARK    1  A    between atoms: C_2  and  C_3
REMARK    2  A    between atoms: N_12  and  C_13
REMARK    3  A    between atoms: C_13  and  C_14
REMARK    4  A    between atoms: C_13  and  C_21
REMARK                            x       y       z     vdW  Elec       q    Type
REMARK                         _______ _______ _______ _____ _____    ______ ____
ROOT
ATOM      1  O   UNL     1       1.167   8.354  21.239  0.00  0.00    +0.000 OA
ATOM      2  C   UNL     1       1.365   8.581  20.049  0.00  0.00    +0.000 C 
ATOM      3  N   UNL     1       2.188   7.822  19.228  0.00  0.00    +0.000 N 
ATOM      4  C   UNL     1       2.620   6.502  19.680  0.00  0.00    +0.000 C 
ATOM      5  C   UNL     1       4.106   6.263  19.371  0.00  0.00    +0.000 C 
ATOM      6  N   UNL     1       4.497   6.489  17.955  0.00  0.00    +0.000 NA
ATOM      7  C   UNL     1       4.075   7.874  17.609  0.00  0.00    +0.000 C 
ATOM      8  C   UNL     1       2.584   8.187  17.864  0.00  0.00    +0.000 C 
ENDROOT
BRANCH   2   9
ATOM      9  C   UNL     1       0.702   9.815  19.469  0.00  0.00    +0.000 A 
ATOM     10  N   UNL     1      -0.566   9.846  19.142  0.00  0.00    +0.000 NA
ATOM     11  C   UNL     1      -0.729  11.075  18.549  0.00  0.00    +0.000 A 
ATOM     12  O   UNL     1      -1.785  11.579  18.199  0.00  0.00    +0.000 OA
ATOM     13  N   UNL     1       0.504  11.695  18.423  0.00  0.00    +0.000 N 
ATOM     14  N   UNL     1       1.404  10.977  19.214  0.00  0.00    +0.000 N 
ATOM     15  H   UNL     1       0.499  12.709  18.455  0.00  0.00    +0.000 HD
ATOM     16  H   UNL     1       2.352  10.851  18.864  0.00  0.00    +0.000 HD
ENDBRANCH   2   9
BRANCH   6  17
ATOM     17  C   UNL     1       3.926   5.492  16.999  0.00  0.00    +0.000 C 
BRANCH  17  18
ATOM     18  C   UNL     1       4.968   5.070  15.951  0.00  0.00    +0.000 A 
ATOM     19  C   UNL     1       6.319   5.443  16.084  0.00  0.00    +0.000 A 
ATOM     20  C   UNL     1       7.251   5.099  15.104  0.00  0.00    +0.000 A 
ATOM     21  C   UNL     1       6.837   4.388  13.986  0.00  0.00    +0.000 A 
ATOM     22  F   UNL     1       7.729   4.068  13.039  0.00  0.00    +0.000 F 
ATOM     23  C   UNL     1       5.509   4.011  13.828  0.00  0.00    +0.000 A 
ATOM     24  C   UNL     1       4.575   4.346  14.810  0.00  0.00    +0.000 A 
ENDBRANCH  17  18
BRANCH  17  25
ATOM     25  C   UNL     1       3.299   4.247  17.644  0.00  0.00    +0.000 A 
ATOM     26  C   UNL     1       4.141   3.298  18.259  0.00  0.00    +0.000 A 
ATOM     27  C   UNL     1       3.611   2.154  18.857  0.00  0.00    +0.000 A 
ATOM     28  C   UNL     1       2.238   1.951  18.850  0.00  0.00    +0.000 A 
ATOM     29  F   UNL     1       1.731   0.846  19.413  0.00  0.00    +0.000 F 
ATOM     30  C   UNL     1       1.382   2.880  18.271  0.00  0.00    +0.000 A 
ATOM     31  C   UNL     1       1.909   4.030  17.682  0.00  0.00    +0.000 A 
ENDBRANCH  17  25
ENDBRANCH   6  17
TORSDOF 4
ENDMDL
