MODEL 1
REMARK VINA RESULT:      -7.9      0.000      0.000
REMARK  Name = 
REMARK  6 active torsions:
REMARK  status: ('A' for Active; 'I' for Inactive)
REMARK    1  A    between atoms: C_1  and  C_2
REMARK    2  A    between atoms: C_6  and  N_7
REMARK    3  A    between atoms: C_8  and  C_10
REMARK    4  A    between atoms: C_15  and  N_16
REMARK    5  A    between atoms: N_16  and  C_17
REMARK    6  A    between atoms: C_18  and  C_20
REMARK                            x       y       z     vdW  Elec       q    Type
REMARK                         _______ _______ _______ _____ _____    ______ ____
ROOT
ATOM      1  N   UNL     1       3.159   6.699  17.867  0.00  0.00    +0.000 N 
ATOM      2  C   UNL     1       4.442   6.879  17.353  0.00  0.00    +0.000 C 
ATOM      3  O   UNL     1       5.153   7.861  17.522  0.00  0.00    +0.000 OA
ATOM      4  H   UNL     1       2.763   5.769  17.821  0.00  0.00    +0.000 HD
ENDROOT
BRANCH   1  10
ATOM      5  C   UNL     1      -0.658  10.379  22.864  0.00  0.00    +0.000 C 
ATOM      6  C   UNL     1       0.115   9.769  21.769  0.00  0.00    +0.000 A 
ATOM      7  N   UNL     1       0.843   8.670  21.800  0.00  0.00    +0.000 NA
ATOM      8  C   UNL     1       1.293   8.546  20.514  0.00  0.00    +0.000 A 
ATOM      9  C   UNL     1       2.090   7.563  19.916  0.00  0.00    +0.000 A 
ATOM     10  C   UNL     1       2.387   7.668  18.551  0.00  0.00    +0.000 A 
ATOM     11  C   UNL     1       1.923   8.777  17.817  0.00  0.00    +0.000 A 
ATOM     12  C   UNL     1       1.127   9.777  18.401  0.00  0.00    +0.000 A 
ATOM     13  C   UNL     1       0.837   9.604  19.747  0.00  0.00    +0.000 A 
ATOM     14  O   UNL     1       0.074  10.402  20.552  0.00  0.00    +0.000 OA
ENDBRANCH   1  10
BRANCH   2  15
ATOM     15  C   UNL     1       4.964   5.762  16.506  0.00  0.00    +0.000 A 
ATOM     16  C   UNL     1       5.112   6.027  15.127  0.00  0.00    +0.000 A 
ATOM     17  C   UNL     1       5.766   5.127  14.292  0.00  0.00    +0.000 A 
ATOM     18  C   UNL     1       6.321   3.973  14.828  0.00  0.00    +0.000 A 
ATOM     19  C   UNL     1       6.184   3.698  16.191  0.00  0.00    +0.000 A 
ATOM     20  C   UNL     1       5.478   4.563  17.052  0.00  0.00    +0.000 A 
BRANCH  20  21
ATOM     21  N   UNL     1       5.307   4.127  18.406  0.00  0.00    +0.000 N 
ATOM     22  C   UNL     1       6.264   4.568  19.413  0.00  0.00    +0.000 C 
ATOM     23  C   UNL     1       4.314   3.243  18.866  0.00  0.00    +0.000 C 
ATOM     24  O   UNL     1       4.218   2.915  20.045  0.00  0.00    +0.000 OA
BRANCH  23  25
ATOM     25  C   UNL     1       3.394   2.616  17.864  0.00  0.00    +0.000 C 
ATOM     26  C   UNL     1       2.175   3.406  17.441  0.00  0.00    +0.000 C 
ATOM     27  C   UNL     1       2.003   2.148  18.235  0.00  0.00    +0.000 C 
ENDBRANCH  23  25
ENDBRANCH  20  21
ENDBRANCH   2  15
TORSDOF 4
ENDMDL
MODEL 2
REMARK VINA RESULT:      -7.8      1.574      3.208
REMARK  Name = 
REMARK  6 active torsions:
REMARK  status: ('A' for Active; 'I' for Inactive)
REMARK    1  A    between atoms: C_1  and  C_2
REMARK    2  A    between atoms: C_6  and  N_7
REMARK    3  A    between atoms: C_8  and  C_10
REMARK    4  A    between atoms: C_15  and  N_16
REMARK    5  A    between atoms: N_16  and  C_17
REMARK    6  A    between atoms: C_18  and  C_20
REMARK                            x       y       z     vdW  Elec       q    Type
REMARK                         _______ _______ _______ _____ _____    ______ ____
ROOT
ATOM      1  N   UNL     1       2.208   6.703  19.356  0.00  0.00    +0.000 N 
ATOM      2  C   UNL     1       2.972   6.110  18.353  0.00  0.00    +0.000 C 
ATOM      3  O   UNL     1       3.544   6.696  17.443  0.00  0.00    +0.000 OA
ATOM      4  H   UNL     1       1.959   6.133  20.154  0.00  0.00    +0.000 HD
ENDROOT
BRANCH   1  10
ATOM      5  C   UNL     1      -0.143  13.225  21.597  0.00  0.00    +0.000 C 
ATOM      6  C   UNL     1       0.388  11.980  21.016  0.00  0.00    +0.000 A 
ATOM      7  N   UNL     1       0.646  10.842  21.627  0.00  0.00    +0.000 NA
ATOM      8  C   UNL     1       1.069  10.023  20.615  0.00  0.00    +0.000 A 
ATOM      9  C   UNL     1       1.461   8.679  20.632  0.00  0.00    +0.000 A 
ATOM     10  C   UNL     1       1.831   8.066  19.427  0.00  0.00    +0.000 A 
ATOM     11  C   UNL     1       1.849   8.816  18.236  0.00  0.00    +0.000 A 
ATOM     12  C   UNL     1       1.465  10.168  18.201  0.00  0.00    +0.000 A 
ATOM     13  C   UNL     1       1.077  10.713  19.416  0.00  0.00    +0.000 A 
ATOM     14  O   UNL     1       0.638  11.983  19.666  0.00  0.00    +0.000 OA
ENDBRANCH   1  10
BRANCH   2  15
ATOM     15  C   UNL     1       3.069   4.618  18.408  0.00  0.00    +0.000 A 
ATOM     16  C   UNL     1       1.856   3.908  18.528  0.00  0.00    +0.000 A 
ATOM     17  C   UNL     1       1.821   2.523  18.394  0.00  0.00    +0.000 A 
ATOM     18  C   UNL     1       2.988   1.834  18.093  0.00  0.00    +0.000 A 
ATOM     19  C   UNL     1       4.197   2.524  17.970  0.00  0.00    +0.000 A 
ATOM     20  C   UNL     1       4.273   3.920  18.156  0.00  0.00    +0.000 A 
BRANCH  20  21
ATOM     21  N   UNL     1       5.580   4.505  18.115  0.00  0.00    +0.000 N 
ATOM     22  C   UNL     1       6.114   5.116  19.326  0.00  0.00    +0.000 C 
ATOM     23  C   UNL     1       6.401   4.606  16.977  0.00  0.00    +0.000 C 
ATOM     24  O   UNL     1       7.517   5.115  17.013  0.00  0.00    +0.000 OA
BRANCH  23  25
ATOM     25  C   UNL     1       5.856   4.151  15.659  0.00  0.00    +0.000 C 
ATOM     26  C   UNL     1       6.706   4.385  14.430  0.00  0.00    +0.000 C 
ATOM     27  C   UNL     1       5.418   5.130  14.591  0.00  0.00    +0.000 C 
ENDBRANCH  23  25
ENDBRANCH  20  21
ENDBRANCH   2  15
TORSDOF 4
ENDMDL
MODEL 3
REMARK VINA RESULT:      -7.8      1.774      2.936
REMARK  Name = 
REMARK  6 active torsions:
REMARK  status: ('A' for Active; 'I' for Inactive)
REMARK    1  A    between atoms: C_1  and  C_2
REMARK    2  A    between atoms: C_6  and  N_7
REMARK    3  A    between atoms: C_8  and  C_10
REMARK    4  A    between atoms: C_15  and  N_16
REMARK    5  A    between atoms: N_16  and  C_17
REMARK    6  A    between atoms: C_18  and  C_20
REMARK                            x       y       z     vdW  Elec       q    Type
REMARK                         _______ _______ _______ _____ _____    ______ ____
ROOT
ATOM      1  N   UNL     1       3.683   6.841  17.421  0.00  0.00    +0.000 N 
ATOM      2  C   UNL     1       3.597   5.466  17.212  0.00  0.00    +0.000 C 
ATOM      3  O   UNL     1       2.688   4.738  17.585  0.00  0.00    +0.000 OA
ATOM      4  H   UNL     1       4.380   7.352  16.894  0.00  0.00    +0.000 HD
ENDROOT
BRANCH   1  10
ATOM      5  C   UNL     1      -0.490   9.380  22.827  0.00  0.00    +0.000 C 
ATOM      6  C   UNL     1       0.342   9.011  21.669  0.00  0.00    +0.000 A 
ATOM      7  N   UNL     1       1.176   7.996  21.556  0.00  0.00    +0.000 NA
ATOM      8  C   UNL     1       1.638   8.101  20.272  0.00  0.00    +0.000 A 
ATOM      9  C   UNL     1       2.530   7.296  19.554  0.00  0.00    +0.000 A 
ATOM     10  C   UNL     1       2.817   7.623  18.222  0.00  0.00    +0.000 A 
ATOM     11  C   UNL     1       2.246   8.773  17.645  0.00  0.00    +0.000 A 
ATOM     12  C   UNL     1       1.353   9.597  18.351  0.00  0.00    +0.000 A 
ATOM     13  C   UNL     1       1.080   9.207  19.655  0.00  0.00    +0.000 A 
ATOM     14  O   UNL     1       0.240   9.803  20.552  0.00  0.00    +0.000 OA
ENDBRANCH   1  10
BRANCH   2  15
ATOM     15  C   UNL     1       4.746   4.848  16.480  0.00  0.00    +0.000 A 
ATOM     16  C   UNL     1       4.563   4.607  15.101  0.00  0.00    +0.000 A 
ATOM     17  C   UNL     1       5.628   4.218  14.294  0.00  0.00    +0.000 A 
ATOM     18  C   UNL     1       6.898   4.110  14.843  0.00  0.00    +0.000 A 
ATOM     19  C   UNL     1       7.096   4.347  16.205  0.00  0.00    +0.000 A 
ATOM     20  C   UNL     1       6.026   4.688  17.059  0.00  0.00    +0.000 A 
BRANCH  20  21
ATOM     21  N   UNL     1       6.326   4.800  18.455  0.00  0.00    +0.000 N 
ATOM     22  C   UNL     1       5.548   4.014  19.405  0.00  0.00    +0.000 C 
ATOM     23  C   UNL     1       7.282   5.659  19.025  0.00  0.00    +0.000 C 
ATOM     24  O   UNL     1       7.495   5.700  20.233  0.00  0.00    +0.000 OA
BRANCH  23  25
ATOM     25  C   UNL     1       8.007   6.617  18.130  0.00  0.00    +0.000 C 
ATOM     26  C   UNL     1       8.342   7.982  18.689  0.00  0.00    +0.000 C 
ATOM     27  C   UNL     1       7.342   7.861  17.582  0.00  0.00    +0.000 C 
ENDBRANCH  23  25
ENDBRANCH  20  21
ENDBRANCH   2  15
TORSDOF 4
ENDMDL
MODEL 4
REMARK VINA RESULT:      -7.5      1.819      3.586
REMARK  Name = 
REMARK  6 active torsions:
REMARK  status: ('A' for Active; 'I' for Inactive)
REMARK    1  A    between atoms: C_1  and  C_2
REMARK    2  A    between atoms: C_6  and  N_7
REMARK    3  A    between atoms: C_8  and  C_10
REMARK    4  A    between atoms: C_15  and  N_16
REMARK    5  A    between atoms: N_16  and  C_17
REMARK    6  A    between atoms: C_18  and  C_20
REMARK                            x       y       z     vdW  Elec       q    Type
REMARK                         _______ _______ _______ _____ _____    ______ ____
ROOT
ATOM      1  N   UNL     1       2.014   6.785  19.735  0.00  0.00    +0.000 N 
ATOM      2  C   UNL     1       2.801   6.379  18.658  0.00  0.00    +0.000 C 
ATOM      3  O   UNL     1       3.369   7.117  17.865  0.00  0.00    +0.000 OA
ATOM      4  H   UNL     1       1.769   6.087  20.424  0.00  0.00    +0.000 HD
ENDROOT
BRANCH   1  10
ATOM      5  C   UNL     1       0.296  13.852  19.285  0.00  0.00    +0.000 C 
ATOM      6  C   UNL     1       0.573  12.424  19.518  0.00  0.00    +0.000 A 
ATOM      7  N   UNL     1       0.881  11.499  18.631  0.00  0.00    +0.000 NA
ATOM      8  C   UNL     1       1.077  10.377  19.390  0.00  0.00    +0.000 A 
ATOM      9  C   UNL     1       1.452   9.080  19.023  0.00  0.00    +0.000 A 
ATOM     10  C   UNL     1       1.607   8.110  20.022  0.00  0.00    +0.000 A 
ATOM     11  C   UNL     1       1.341   8.439  21.365  0.00  0.00    +0.000 A 
ATOM     12  C   UNL     1       0.958   9.735  21.752  0.00  0.00    +0.000 A 
ATOM     13  C   UNL     1       0.852  10.662  20.725  0.00  0.00    +0.000 A 
ATOM     14  O   UNL     1       0.524  11.986  20.818  0.00  0.00    +0.000 OA
ENDBRANCH   1  10
BRANCH   2  15
ATOM     15  C   UNL     1       2.929   4.901  18.470  0.00  0.00    +0.000 A 
ATOM     16  C   UNL     1       1.734   4.150  18.512  0.00  0.00    +0.000 A 
ATOM     17  C   UNL     1       1.721   2.804  18.159  0.00  0.00    +0.000 A 
ATOM     18  C   UNL     1       2.890   2.201  17.715  0.00  0.00    +0.000 A 
ATOM     19  C   UNL     1       4.080   2.931  17.666  0.00  0.00    +0.000 A 
ATOM     20  C   UNL     1       4.136   4.281  18.071  0.00  0.00    +0.000 A 
BRANCH  20  21
ATOM     21  N   UNL     1       5.429   4.897  18.083  0.00  0.00    +0.000 N 
ATOM     22  C   UNL     1       6.009   5.286  19.363  0.00  0.00    +0.000 C 
ATOM     23  C   UNL     1       6.193   5.229  16.950  0.00  0.00    +0.000 C 
ATOM     24  O   UNL     1       7.301   5.751  17.032  0.00  0.00    +0.000 OA
BRANCH  23  25
ATOM     25  C   UNL     1       5.594   5.012  15.595  0.00  0.00    +0.000 C 
ATOM     26  C   UNL     1       5.968   3.745  14.858  0.00  0.00    +0.000 C 
ATOM     27  C   UNL     1       6.427   5.069  14.332  0.00  0.00    +0.000 C 
ENDBRANCH  23  25
ENDBRANCH  20  21
ENDBRANCH   2  15
TORSDOF 4
ENDMDL
MODEL 5
REMARK VINA RESULT:      -7.4      1.113      1.553
REMARK  Name = 
REMARK  6 active torsions:
REMARK  status: ('A' for Active; 'I' for Inactive)
REMARK    1  A    between atoms: C_1  and  C_2
REMARK    2  A    between atoms: C_6  and  N_7
REMARK    3  A    between atoms: C_8  and  C_10
REMARK    4  A    between atoms: C_15  and  N_16
REMARK    5  A    between atoms: N_16  and  C_17
REMARK    6  A    between atoms: C_18  and  C_20
REMARK                            x       y       z     vdW  Elec       q    Type
REMARK                         _______ _______ _______ _____ _____    ______ ____
ROOT
ATOM      1  N   UNL     1       3.133   6.698  17.900  0.00  0.00    +0.000 N 
ATOM      2  C   UNL     1       4.420   6.895  17.402  0.00  0.00    +0.000 C 
ATOM      3  O   UNL     1       5.125   7.876  17.599  0.00  0.00    +0.000 OA
ATOM      4  H   UNL     1       2.741   5.768  17.830  0.00  0.00    +0.000 HD
ENDROOT
BRANCH   1  10
ATOM      5  C   UNL     1      -0.783  12.555  19.759  0.00  0.00    +0.000 C 
ATOM      6  C   UNL     1      -0.045  11.303  19.516  0.00  0.00    +0.000 A 
ATOM      7  N   UNL     1       0.466  10.866  18.382  0.00  0.00    +0.000 NA
ATOM      8  C   UNL     1       1.073   9.692  18.734  0.00  0.00    +0.000 A 
ATOM      9  C   UNL     1       1.810   8.780  17.970  0.00  0.00    +0.000 A 
ATOM     10  C   UNL     1       2.351   7.650  18.597  0.00  0.00    +0.000 A 
ATOM     11  C   UNL     1       2.107   7.424  19.965  0.00  0.00    +0.000 A 
ATOM     12  C   UNL     1       1.364   8.325  20.748  0.00  0.00    +0.000 A 
ATOM     13  C   UNL     1       0.881   9.443  20.082  0.00  0.00    +0.000 A 
ATOM     14  O   UNL     1       0.157  10.481  20.597  0.00  0.00    +0.000 OA
ENDBRANCH   1  10
BRANCH   2  15
ATOM     15  C   UNL     1       4.955   5.799  16.536  0.00  0.00    +0.000 A 
ATOM     16  C   UNL     1       5.093   6.087  15.161  0.00  0.00    +0.000 A 
ATOM     17  C   UNL     1       5.757   5.209  14.309  0.00  0.00    +0.000 A 
ATOM     18  C   UNL     1       6.330   4.055  14.826  0.00  0.00    +0.000 A 
ATOM     19  C   UNL     1       6.203   3.757  16.184  0.00  0.00    +0.000 A 
ATOM     20  C   UNL     1       5.488   4.599  17.061  0.00  0.00    +0.000 A 
BRANCH  20  21
ATOM     21  N   UNL     1       5.329   4.139  18.409  0.00  0.00    +0.000 N 
ATOM     22  C   UNL     1       6.283   4.581  19.419  0.00  0.00    +0.000 C 
ATOM     23  C   UNL     1       4.352   3.233  18.859  0.00  0.00    +0.000 C 
ATOM     24  O   UNL     1       4.265   2.886  20.033  0.00  0.00    +0.000 OA
BRANCH  23  25
ATOM     25  C   UNL     1       3.438   2.607  17.851  0.00  0.00    +0.000 C 
ATOM     26  C   UNL     1       2.218   3.395  17.426  0.00  0.00    +0.000 C 
ATOM     27  C   UNL     1       2.047   2.134  18.215  0.00  0.00    +0.000 C 
ENDBRANCH  23  25
ENDBRANCH  20  21
ENDBRANCH   2  15
TORSDOF 4
ENDMDL
MODEL 6
REMARK VINA RESULT:      -7.4      2.000      3.258
REMARK  Name = 
REMARK  6 active torsions:
REMARK  status: ('A' for Active; 'I' for Inactive)
REMARK    1  A    between atoms: C_1  and  C_2
REMARK    2  A    between atoms: C_6  and  N_7
REMARK    3  A    between atoms: C_8  and  C_10
REMARK    4  A    between atoms: C_15  and  N_16
REMARK    5  A    between atoms: N_16  and  C_17
REMARK    6  A    between atoms: C_18  and  C_20
REMARK                            x       y       z     vdW  Elec       q    Type
REMARK                         _______ _______ _______ _____ _____    ______ ____
ROOT
ATOM      1  N   UNL     1       3.663   6.772  17.482  0.00  0.00    +0.000 N 
ATOM      2  C   UNL     1       3.590   5.406  17.218  0.00  0.00    +0.000 C 
ATOM      3  O   UNL     1       2.681   4.657  17.552  0.00  0.00    +0.000 OA
ATOM      4  H   UNL     1       4.362   7.308  16.983  0.00  0.00    +0.000 HD
ENDROOT
BRANCH   1  10
ATOM      5  C   UNL     1      -0.837  11.835  20.166  0.00  0.00    +0.000 C 
ATOM      6  C   UNL     1       0.025  10.718  19.741  0.00  0.00    +0.000 A 
ATOM      7  N   UNL     1       0.587  10.525  18.565  0.00  0.00    +0.000 NA
ATOM      8  C   UNL     1       1.306   9.373  18.737  0.00  0.00    +0.000 A 
ATOM      9  C   UNL     1       2.137   8.675  17.854  0.00  0.00    +0.000 A 
ATOM     10  C   UNL     1       2.783   7.516  18.304  0.00  0.00    +0.000 A 
ATOM     11  C   UNL     1       2.551   7.048  19.611  0.00  0.00    +0.000 A 
ATOM     12  C   UNL     1       1.715   7.732  20.511  0.00  0.00    +0.000 A 
ATOM     13  C   UNL     1       1.129   8.890  20.022  0.00  0.00    +0.000 A 
ATOM     14  O   UNL     1       0.299   9.755  20.680  0.00  0.00    +0.000 OA
ENDBRANCH   1  10
BRANCH   2  15
ATOM     15  C   UNL     1       4.750   4.825  16.474  0.00  0.00    +0.000 A 
ATOM     16  C   UNL     1       4.567   4.594  15.094  0.00  0.00    +0.000 A 
ATOM     17  C   UNL     1       5.639   4.241  14.279  0.00  0.00    +0.000 A 
ATOM     18  C   UNL     1       6.914   4.159  14.821  0.00  0.00    +0.000 A 
ATOM     19  C   UNL     1       7.111   4.387  16.185  0.00  0.00    +0.000 A 
ATOM     20  C   UNL     1       6.037   4.692  17.046  0.00  0.00    +0.000 A 
BRANCH  20  21
ATOM     21  N   UNL     1       6.340   4.797  18.443  0.00  0.00    +0.000 N 
ATOM     22  C   UNL     1       5.570   3.999  19.390  0.00  0.00    +0.000 C 
ATOM     23  C   UNL     1       7.291   5.659  19.016  0.00  0.00    +0.000 C 
ATOM     24  O   UNL     1       7.507   5.694  20.223  0.00  0.00    +0.000 OA
BRANCH  23  25
ATOM     25  C   UNL     1       8.006   6.629  18.125  0.00  0.00    +0.000 C 
ATOM     26  C   UNL     1       8.343   7.988  18.696  0.00  0.00    +0.000 C 
ATOM     27  C   UNL     1       7.333   7.878  17.596  0.00  0.00    +0.000 C 
ENDBRANCH  23  25
ENDBRANCH  20  21
ENDBRANCH   2  15
TORSDOF 4
ENDMDL
MODEL 7
REMARK VINA RESULT:      -7.4      1.983      3.590
REMARK  Name = 
REMARK  6 active torsions:
REMARK  status: ('A' for Active; 'I' for Inactive)
REMARK    1  A    between atoms: C_1  and  C_2
REMARK    2  A    between atoms: C_6  and  N_7
REMARK    3  A    between atoms: C_8  and  C_10
REMARK    4  A    between atoms: C_15  and  N_16
REMARK    5  A    between atoms: N_16  and  C_17
REMARK    6  A    between atoms: C_18  and  C_20
REMARK                            x       y       z     vdW  Elec       q    Type
REMARK                         _______ _______ _______ _____ _____    ______ ____
ROOT
ATOM      1  N   UNL     1       2.054   7.486  19.535  0.00  0.00    +0.000 N 
ATOM      2  C   UNL     1       2.666   7.214  18.313  0.00  0.00    +0.000 C 
ATOM      3  O   UNL     1       2.871   8.021  17.416  0.00  0.00    +0.000 OA
ATOM      4  H   UNL     1       2.125   6.784  20.260  0.00  0.00    +0.000 HD
ENDROOT
BRANCH   1  10
ATOM      5  C   UNL     1      -1.322  12.807  23.192  0.00  0.00    +0.000 C 
ATOM      6  C   UNL     1      -0.610  11.839  22.340  0.00  0.00    +0.000 A 
ATOM      7  N   UNL     1      -0.086  10.681  22.687  0.00  0.00    +0.000 NA
ATOM      8  C   UNL     1       0.402  10.182  21.509  0.00  0.00    +0.000 A 
ATOM      9  C   UNL     1       1.047   8.973  21.227  0.00  0.00    +0.000 A 
ATOM     10  C   UNL     1       1.427   8.699  19.906  0.00  0.00    +0.000 A 
ATOM     11  C   UNL     1       1.200   9.657  18.899  0.00  0.00    +0.000 A 
ATOM     12  C   UNL     1       0.559  10.880  19.165  0.00  0.00    +0.000 A 
ATOM     13  C   UNL     1       0.176  11.082  20.483  0.00  0.00    +0.000 A 
ATOM     14  O   UNL     1      -0.479  12.160  21.011  0.00  0.00    +0.000 OA
ENDBRANCH   1  10
BRANCH   2  15
ATOM     15  C   UNL     1       3.084   5.794  18.099  0.00  0.00    +0.000 A 
ATOM     16  C   UNL     1       2.248   4.797  18.646  0.00  0.00    +0.000 A 
ATOM     17  C   UNL     1       2.442   3.453  18.341  0.00  0.00    +0.000 A 
ATOM     18  C   UNL     1       3.442   3.090  17.450  0.00  0.00    +0.000 A 
ATOM     19  C   UNL     1       4.277   4.065  16.898  0.00  0.00    +0.000 A 
ATOM     20  C   UNL     1       4.141   5.429  17.232  0.00  0.00    +0.000 A 
BRANCH  20  21
ATOM     21  N   UNL     1       5.121   6.325  16.694  0.00  0.00    +0.000 N 
ATOM     22  C   UNL     1       4.908   6.880  15.363  0.00  0.00    +0.000 C 
ATOM     23  C   UNL     1       6.330   6.690  17.312  0.00  0.00    +0.000 C 
ATOM     24  O   UNL     1       7.124   7.472  16.797  0.00  0.00    +0.000 OA
BRANCH  23  25
ATOM     25  C   UNL     1       6.698   6.034  18.607  0.00  0.00    +0.000 C 
ATOM     26  C   UNL     1       8.113   6.218  19.109  0.00  0.00    +0.000 C 
ATOM     27  C   UNL     1       7.655   4.862  18.668  0.00  0.00    +0.000 C 
ENDBRANCH  23  25
ENDBRANCH  20  21
ENDBRANCH   2  15
TORSDOF 4
ENDMDL
MODEL 8
REMARK VINA RESULT:      -7.3      2.430      8.312
REMARK  Name = 
REMARK  6 active torsions:
REMARK  status: ('A' for Active; 'I' for Inactive)
REMARK    1  A    between atoms: C_1  and  C_2
REMARK    2  A    between atoms: C_6  and  N_7
REMARK    3  A    between atoms: C_8  and  C_10
REMARK    4  A    between atoms: C_15  and  N_16
REMARK    5  A    between atoms: N_16  and  C_17
REMARK    6  A    between atoms: C_18  and  C_20
REMARK                            x       y       z     vdW  Elec       q    Type
REMARK                         _______ _______ _______ _____ _____    ______ ____
ROOT
ATOM      1  N   UNL     1       1.544   8.679  17.838  0.00  0.00    +0.000 N 
ATOM      2  C   UNL     1       0.881   9.450  18.791  0.00  0.00    +0.000 C 
ATOM      3  O   UNL     1       1.156   9.516  19.981  0.00  0.00    +0.000 OA
ATOM      4  H   UNL     1       1.345   8.866  16.864  0.00  0.00    +0.000 HD
ENDROOT
BRANCH   1  10
ATOM      5  C   UNL     1       7.559   4.579  17.526  0.00  0.00    +0.000 C 
ATOM      6  C   UNL     1       6.322   5.351  17.735  0.00  0.00    +0.000 A 
ATOM      7  N   UNL     1       5.904   6.414  17.078  0.00  0.00    +0.000 NA
ATOM      8  C   UNL     1       4.690   6.688  17.647  0.00  0.00    +0.000 A 
ATOM      9  C   UNL     1       3.750   7.683  17.358  0.00  0.00    +0.000 A 
ATOM     10  C   UNL     1       2.557   7.723  18.091  0.00  0.00    +0.000 A 
ATOM     11  C   UNL     1       2.343   6.799  19.132  0.00  0.00    +0.000 A 
ATOM     12  C   UNL     1       3.278   5.795  19.441  0.00  0.00    +0.000 A 
ATOM     13  C   UNL     1       4.426   5.784  18.660  0.00  0.00    +0.000 A 
ATOM     14  O   UNL     1       5.478   4.913  18.726  0.00  0.00    +0.000 OA
ENDBRANCH   1  10
BRANCH   2  15
ATOM     15  C   UNL     1      -0.282  10.245  18.287  0.00  0.00    +0.000 A 
ATOM     16  C   UNL     1      -1.121   9.614  17.344  0.00  0.00    +0.000 A 
ATOM     17  C   UNL     1      -2.329  10.189  16.960  0.00  0.00    +0.000 A 
ATOM     18  C   UNL     1      -2.736  11.379  17.547  0.00  0.00    +0.000 A 
ATOM     19  C   UNL     1      -1.917  12.016  18.483  0.00  0.00    +0.000 A 
ATOM     20  C   UNL     1      -0.663  11.485  18.849  0.00  0.00    +0.000 A 
BRANCH  20  21
ATOM     21  N   UNL     1       0.139  12.278  19.734  0.00  0.00    +0.000 N 
ATOM     22  C   UNL     1       1.299  12.975  19.193  0.00  0.00    +0.000 C 
ATOM     23  C   UNL     1      -0.050  12.408  21.121  0.00  0.00    +0.000 C 
ATOM     24  O   UNL     1       0.671  13.111  21.822  0.00  0.00    +0.000 OA
BRANCH  23  25
ATOM     25  C   UNL     1      -1.121  11.591  21.777  0.00  0.00    +0.000 C 
ATOM     26  C   UNL     1      -1.510  11.954  23.193  0.00  0.00    +0.000 C 
ATOM     27  C   UNL     1      -0.821  10.652  22.926  0.00  0.00    +0.000 C 
ENDBRANCH  23  25
ENDBRANCH  20  21
ENDBRANCH   2  15
TORSDOF 4
ENDMDL
MODEL 9
REMARK VINA RESULT:      -7.3      1.911      3.799
REMARK  Name = 
REMARK  6 active torsions:
REMARK  status: ('A' for Active; 'I' for Inactive)
REMARK    1  A    between atoms: C_1  and  C_2
REMARK    2  A    between atoms: C_6  and  N_7
REMARK    3  A    between atoms: C_8  and  C_10
REMARK    4  A    between atoms: C_15  and  N_16
REMARK    5  A    between atoms: N_16  and  C_17
REMARK    6  A    between atoms: C_18  and  C_20
REMARK                            x       y       z     vdW  Elec       q    Type
REMARK                         _______ _______ _______ _____ _____    ______ ____
ROOT
ATOM      1  N   UNL     1       2.649   6.937  19.682  0.00  0.00    +0.000 N 
ATOM      2  C   UNL     1       2.551   5.819  18.855  0.00  0.00    +0.000 C 
ATOM      3  O   UNL     1       1.880   5.736  17.835  0.00  0.00    +0.000 OA
ATOM      4  H   UNL     1       3.386   6.943  20.376  0.00  0.00    +0.000 HD
ENDROOT
BRANCH   1  10
ATOM      5  C   UNL     1      -1.898  12.483  20.964  0.00  0.00    +0.000 C 
ATOM      6  C   UNL     1      -0.923  11.447  20.584  0.00  0.00    +0.000 A 
ATOM      7  N   UNL     1      -0.469  10.449  21.314  0.00  0.00    +0.000 NA
ATOM      8  C   UNL     1       0.365   9.779  20.462  0.00  0.00    +0.000 A 
ATOM      9  C   UNL     1       1.121   8.616  20.649  0.00  0.00    +0.000 A 
ATOM     10  C   UNL     1       1.884   8.123  19.582  0.00  0.00    +0.000 A 
ATOM     11  C   UNL     1       1.916   8.825  18.362  0.00  0.00    +0.000 A 
ATOM     12  C   UNL     1       1.169   9.998  18.156  0.00  0.00    +0.000 A 
ATOM     13  C   UNL     1       0.407  10.420  19.236  0.00  0.00    +0.000 A 
ATOM     14  O   UNL     1      -0.424  11.503  19.306  0.00  0.00    +0.000 OA
ENDBRANCH   1  10
BRANCH   2  15
ATOM     15  C   UNL     1       3.335   4.621  19.289  0.00  0.00    +0.000 A 
ATOM     16  C   UNL     1       2.897   3.966  20.460  0.00  0.00    +0.000 A 
ATOM     17  C   UNL     1       3.434   2.739  20.838  0.00  0.00    +0.000 A 
ATOM     18  C   UNL     1       4.382   2.128  20.029  0.00  0.00    +0.000 A 
ATOM     19  C   UNL     1       4.825   2.763  18.866  0.00  0.00    +0.000 A 
ATOM     20  C   UNL     1       4.340   4.032  18.487  0.00  0.00    +0.000 A 
BRANCH  20  21
ATOM     21  N   UNL     1       4.945   4.636  17.337  0.00  0.00    +0.000 N 
ATOM     22  C   UNL     1       4.531   4.191  16.011  0.00  0.00    +0.000 C 
ATOM     23  C   UNL     1       5.968   5.601  17.356  0.00  0.00    +0.000 C 
ATOM     24  O   UNL     1       6.437   6.085  16.331  0.00  0.00    +0.000 OA
BRANCH  23  25
ATOM     25  C   UNL     1       6.561   5.988  18.676  0.00  0.00    +0.000 C 
ATOM     26  C   UNL     1       7.898   6.695  18.663  0.00  0.00    +0.000 C 
ATOM     27  C   UNL     1       7.797   5.312  19.229  0.00  0.00    +0.000 C 
ENDBRANCH  23  25
ENDBRANCH  20  21
ENDBRANCH   2  15
TORSDOF 4
ENDMDL
