MODEL 1
REMARK VINA RESULT:      -8.9      0.000      0.000
REMARK  Name = 
REMARK  6 active torsions:
REMARK  status: ('A' for Active; 'I' for Inactive)
REMARK    1  A    between atoms: C_1  and  C_2
REMARK    2  A    between atoms: C_6  and  O_7
REMARK    3  A    between atoms: O_7  and  C_8
REMARK    4  A    between atoms: C_11  and  N_12
REMARK    5  A    between atoms: C_13  and  C_15
REMARK    6  A    between atoms: N_17  and  C_18
REMARK                            x       y       z     vdW  Elec       q    Type
REMARK                         _______ _______ _______ _____ _____    ______ ____
ROOT
ATOM      1  N   UNL     1       1.032   8.332  21.475  0.00  0.00    +0.000 N 
ATOM      2  C   UNL     1       0.175   9.359  21.150  0.00  0.00    +0.000 C 
ATOM      3  O   UNL     1      -0.255   9.690  20.048  0.00  0.00    +0.000 OA
ATOM      4  H   UNL     1       1.261   8.251  22.468  0.00  0.00    +0.000 HD
ENDROOT
BRANCH   1   8
ATOM      5  C   UNL     1       2.669   5.700  18.615  0.00  0.00    +0.000 A 
ATOM      6  C   UNL     1       2.171   5.183  19.810  0.00  0.00    +0.000 A 
ATOM      7  C   UNL     1       1.646   6.049  20.771  0.00  0.00    +0.000 A 
ATOM      8  C   UNL     1       1.619   7.433  20.571  0.00  0.00    +0.000 A 
ATOM      9  C   UNL     1       2.198   7.949  19.404  0.00  0.00    +0.000 A 
ATOM     10  C   UNL     1       2.737   7.080  18.452  0.00  0.00    +0.000 A 
BRANCH   5  11
ATOM     11  O   UNL     1       3.089   4.805  17.650  0.00  0.00    +0.000 OA
BRANCH  11  17
ATOM     12  C   UNL     1       6.520   4.191  14.218  0.00  0.00    +0.000 C 
ATOM     13  C   UNL     1       6.142   4.432  15.650  0.00  0.00    +0.000 A 
ATOM     14  C   UNL     1       7.134   4.539  16.632  0.00  0.00    +0.000 A 
ATOM     15  C   UNL     1       6.788   4.748  17.965  0.00  0.00    +0.000 A 
ATOM     16  C   UNL     1       5.447   4.859  18.325  0.00  0.00    +0.000 A 
ATOM     17  C   UNL     1       4.440   4.733  17.361  0.00  0.00    +0.000 A 
ATOM     18  C   UNL     1       4.791   4.545  16.020  0.00  0.00    +0.000 A 
ENDBRANCH  11  17
ENDBRANCH   5  11
ENDBRANCH   1   8
BRANCH   2  19
ATOM     19  C   UNL     1      -0.290  10.188  22.342  0.00  0.00    +0.000 C 
ATOM     20  O   UNL     1       0.173   9.976  23.452  0.00  0.00    +0.000 OA
ATOM     21  N   UNL     1      -1.225  11.141  22.008  0.00  0.00    +0.000 N 
ATOM     22  H   UNL     1      -1.550  11.128  21.045  0.00  0.00    +0.000 HD
BRANCH  21  23
ATOM     23  C   UNL     1      -1.790  12.087  22.943  0.00  0.00    +0.000 C 
ATOM     24  C   UNL     1      -3.294  12.367  22.690  0.00  0.00    +0.000 C 
ATOM     25  C   UNL     1      -3.919  13.070  23.911  0.00  0.00    +0.000 C 
ATOM     26  C   UNL     1      -2.975  14.101  24.418  0.00  0.00    +0.000 A 
ATOM     27  N   UNL     1      -3.199  14.976  25.435  0.00  0.00    +0.000 N 
ATOM     28  N   UNL     1      -2.129  15.751  25.700  0.00  0.00    +0.000 NA
ATOM     29  C   UNL     1      -1.197  15.329  24.838  0.00  0.00    +0.000 A 
ATOM     30  C   UNL     1      -1.664  14.284  24.028  0.00  0.00    +0.000 A 
ATOM     31  C   UNL     1      -1.013  13.430  23.001  0.00  0.00    +0.000 C 
ATOM     32  H   UNL     1      -4.029  15.081  26.010  0.00  0.00    +0.000 HD
ENDBRANCH  21  23
ENDBRANCH   2  19
TORSDOF 5
ENDMDL
MODEL 2
REMARK VINA RESULT:      -8.8      0.935      1.347
REMARK  Name = 
REMARK  6 active torsions:
REMARK  status: ('A' for Active; 'I' for Inactive)
REMARK    1  A    between atoms: C_1  and  C_2
REMARK    2  A    between atoms: C_6  and  O_7
REMARK    3  A    between atoms: O_7  and  C_8
REMARK    4  A    between atoms: C_11  and  N_12
REMARK    5  A    between atoms: C_13  and  C_15
REMARK    6  A    between atoms: N_17  and  C_18
REMARK                            x       y       z     vdW  Elec       q    Type
REMARK                         _______ _______ _______ _____ _____    ______ ____
ROOT
ATOM      1  N   UNL     1       1.478   8.272  21.222  0.00  0.00    +0.000 N 
ATOM      2  C   UNL     1       0.194   8.504  21.662  0.00  0.00    +0.000 C 
ATOM      3  O   UNL     1      -0.837   7.889  21.403  0.00  0.00    +0.000 OA
ATOM      4  H   UNL     1       2.183   8.927  21.565  0.00  0.00    +0.000 HD
ENDROOT
BRANCH   1   8
ATOM      5  C   UNL     1       2.810   5.152  18.715  0.00  0.00    +0.000 A 
ATOM      6  C   UNL     1       2.763   6.454  18.217  0.00  0.00    +0.000 A 
ATOM      7  C   UNL     1       2.304   7.489  19.034  0.00  0.00    +0.000 A 
ATOM      8  C   UNL     1       1.874   7.251  20.343  0.00  0.00    +0.000 A 
ATOM      9  C   UNL     1       1.845   5.929  20.805  0.00  0.00    +0.000 A 
ATOM     10  C   UNL     1       2.290   4.894  19.979  0.00  0.00    +0.000 A 
BRANCH   5  11
ATOM     11  O   UNL     1       3.362   4.173  17.912  0.00  0.00    +0.000 OA
BRANCH  11  17
ATOM     12  C   UNL     1       6.479   4.201  14.142  0.00  0.00    +0.000 C 
ATOM     13  C   UNL     1       6.215   4.345  15.612  0.00  0.00    +0.000 A 
ATOM     14  C   UNL     1       7.273   4.589  16.497  0.00  0.00    +0.000 A 
ATOM     15  C   UNL     1       7.036   4.708  17.864  0.00  0.00    +0.000 A 
ATOM     16  C   UNL     1       5.738   4.593  18.357  0.00  0.00    +0.000 A 
ATOM     17  C   UNL     1       4.671   4.328  17.490  0.00  0.00    +0.000 A 
ATOM     18  C   UNL     1       4.909   4.229  16.116  0.00  0.00    +0.000 A 
ENDBRANCH  11  17
ENDBRANCH   5  11
ENDBRANCH   1   8
BRANCH   2  19
ATOM     19  C   UNL     1       0.061   9.700  22.599  0.00  0.00    +0.000 C 
ATOM     20  O   UNL     1       0.723   9.752  23.623  0.00  0.00    +0.000 OA
ATOM     21  N   UNL     1      -0.836  10.642  22.150  0.00  0.00    +0.000 N 
ATOM     22  H   UNL     1      -1.353  10.400  21.308  0.00  0.00    +0.000 HD
BRANCH  21  23
ATOM     23  C   UNL     1      -1.111  11.889  22.826  0.00  0.00    +0.000 C 
ATOM     24  C   UNL     1      -2.626  12.148  23.032  0.00  0.00    +0.000 C 
ATOM     25  C   UNL     1      -2.839  13.274  24.064  0.00  0.00    +0.000 C 
ATOM     26  C   UNL     1      -1.856  14.360  23.811  0.00  0.00    +0.000 A 
ATOM     27  N   UNL     1      -1.778  15.551  24.465  0.00  0.00    +0.000 N 
ATOM     28  N   UNL     1      -0.742  16.306  24.050  0.00  0.00    +0.000 NA
ATOM     29  C   UNL     1      -0.137  15.553  23.125  0.00  0.00    +0.000 A 
ATOM     30  C   UNL     1      -0.778  14.317  22.952  0.00  0.00    +0.000 A 
ATOM     31  C   UNL     1      -0.462  13.118  22.133  0.00  0.00    +0.000 C 
ATOM     32  H   UNL     1      -2.363  15.901  25.217  0.00  0.00    +0.000 HD
ENDBRANCH  21  23
ENDBRANCH   2  19
TORSDOF 5
ENDMDL
MODEL 3
REMARK VINA RESULT:      -8.6      1.110      1.994
REMARK  Name = 
REMARK  6 active torsions:
REMARK  status: ('A' for Active; 'I' for Inactive)
REMARK    1  A    between atoms: C_1  and  C_2
REMARK    2  A    between atoms: C_6  and  O_7
REMARK    3  A    between atoms: O_7  and  C_8
REMARK    4  A    between atoms: C_11  and  N_12
REMARK    5  A    between atoms: C_13  and  C_15
REMARK    6  A    between atoms: N_17  and  C_18
REMARK                            x       y       z     vdW  Elec       q    Type
REMARK                         _______ _______ _______ _____ _____    ______ ____
ROOT
ATOM      1  N   UNL     1       1.424   8.396  21.180  0.00  0.00    +0.000 N 
ATOM      2  C   UNL     1       0.155   8.566  21.687  0.00  0.00    +0.000 C 
ATOM      3  O   UNL     1      -0.854   7.894  21.491  0.00  0.00    +0.000 OA
ATOM      4  H   UNL     1       2.110   9.093  21.478  0.00  0.00    +0.000 HD
ENDROOT
BRANCH   1   8
ATOM      5  C   UNL     1       2.774   5.307  18.646  0.00  0.00    +0.000 A 
ATOM      6  C   UNL     1       2.733   6.615  18.163  0.00  0.00    +0.000 A 
ATOM      7  C   UNL     1       2.267   7.640  18.989  0.00  0.00    +0.000 A 
ATOM      8  C   UNL     1       1.826   7.387  20.292  0.00  0.00    +0.000 A 
ATOM      9  C   UNL     1       1.793   6.059  20.737  0.00  0.00    +0.000 A 
ATOM     10  C   UNL     1       2.244   5.033  19.902  0.00  0.00    +0.000 A 
BRANCH   5  11
ATOM     11  O   UNL     1       3.333   4.338  17.835  0.00  0.00    +0.000 OA
BRANCH  11  17
ATOM     12  C   UNL     1       7.809   5.704  19.259  0.00  0.00    +0.000 C 
ATOM     13  C   UNL     1       6.896   5.124  18.220  0.00  0.00    +0.000 A 
ATOM     14  C   UNL     1       7.400   4.752  16.967  0.00  0.00    +0.000 A 
ATOM     15  C   UNL     1       6.555   4.227  15.993  0.00  0.00    +0.000 A 
ATOM     16  C   UNL     1       5.198   4.062  16.266  0.00  0.00    +0.000 A 
ATOM     17  C   UNL     1       4.672   4.447  17.504  0.00  0.00    +0.000 A 
ATOM     18  C   UNL     1       5.527   4.955  18.488  0.00  0.00    +0.000 A 
ENDBRANCH  11  17
ENDBRANCH   5  11
ENDBRANCH   1   8
BRANCH   2  19
ATOM     19  C   UNL     1       0.007   9.766  22.616  0.00  0.00    +0.000 C 
ATOM     20  O   UNL     1       0.466   9.723  23.748  0.00  0.00    +0.000 OA
ATOM     21  N   UNL     1      -0.655  10.823  22.036  0.00  0.00    +0.000 N 
ATOM     22  H   UNL     1      -1.032  10.656  21.106  0.00  0.00    +0.000 HD
BRANCH  21  23
ATOM     23  C   UNL     1      -0.884  12.093  22.686  0.00  0.00    +0.000 C 
ATOM     24  C   UNL     1      -2.386  12.387  22.933  0.00  0.00    +0.000 C 
ATOM     25  C   UNL     1      -2.544  13.545  23.939  0.00  0.00    +0.000 C 
ATOM     26  C   UNL     1      -1.550  14.605  23.624  0.00  0.00    +0.000 A 
ATOM     27  N   UNL     1      -1.428  15.812  24.241  0.00  0.00    +0.000 N 
ATOM     28  N   UNL     1      -0.393  16.534  23.771  0.00  0.00    +0.000 NA
ATOM     29  C   UNL     1       0.167  15.744  22.848  0.00  0.00    +0.000 A 
ATOM     30  C   UNL     1      -0.502  14.517  22.731  0.00  0.00    +0.000 A 
ATOM     31  C   UNL     1      -0.236  13.290  21.937  0.00  0.00    +0.000 C 
ATOM     32  H   UNL     1      -1.981  16.194  25.002  0.00  0.00    +0.000 HD
ENDBRANCH  21  23
ENDBRANCH   2  19
TORSDOF 5
ENDMDL
MODEL 4
REMARK VINA RESULT:      -8.6      8.078      9.714
REMARK  Name = 
REMARK  6 active torsions:
REMARK  status: ('A' for Active; 'I' for Inactive)
REMARK    1  A    between atoms: C_1  and  C_2
REMARK    2  A    between atoms: C_6  and  O_7
REMARK    3  A    between atoms: O_7  and  C_8
REMARK    4  A    between atoms: C_11  and  N_12
REMARK    5  A    between atoms: C_13  and  C_15
REMARK    6  A    between atoms: N_17  and  C_18
REMARK                            x       y       z     vdW  Elec       q    Type
REMARK                         _______ _______ _______ _____ _____    ______ ____
ROOT
ATOM      1  N   UNL     1       7.261   8.208  17.413  0.00  0.00    +0.000 N 
ATOM      2  C   UNL     1       8.252   8.544  18.306  0.00  0.00    +0.000 C 
ATOM      3  O   UNL     1       8.800   7.845  19.154  0.00  0.00    +0.000 OA
ATOM      4  H   UNL     1       6.948   8.965  16.801  0.00  0.00    +0.000 HD
ENDROOT
BRANCH   1   8
ATOM      5  C   UNL     1       5.249   4.509  17.167  0.00  0.00    +0.000 A 
ATOM      6  C   UNL     1       6.492   4.568  17.796  0.00  0.00    +0.000 A 
ATOM      7  C   UNL     1       7.174   5.784  17.863  0.00  0.00    +0.000 A 
ATOM      8  C   UNL     1       6.646   6.950  17.301  0.00  0.00    +0.000 A 
ATOM      9  C   UNL     1       5.436   6.863  16.599  0.00  0.00    +0.000 A 
ATOM     10  C   UNL     1       4.765   5.641  16.520  0.00  0.00    +0.000 A 
BRANCH   5  11
ATOM     11  O   UNL     1       4.561   3.311  17.208  0.00  0.00    +0.000 OA
BRANCH  11  17
ATOM     12  C   UNL     1       2.603   2.617  21.636  0.00  0.00    +0.000 C 
ATOM     13  C   UNL     1       2.439   2.899  20.172  0.00  0.00    +0.000 A 
ATOM     14  C   UNL     1       1.159   3.043  19.621  0.00  0.00    +0.000 A 
ATOM     15  C   UNL     1       1.000   3.289  18.260  0.00  0.00    +0.000 A 
ATOM     16  C   UNL     1       2.120   3.402  17.439  0.00  0.00    +0.000 A 
ATOM     17  C   UNL     1       3.406   3.240  17.967  0.00  0.00    +0.000 A 
ATOM     18  C   UNL     1       3.564   3.013  19.338  0.00  0.00    +0.000 A 
ENDBRANCH  11  17
ENDBRANCH   5  11
ENDBRANCH   1   8
BRANCH   2  19
ATOM     19  C   UNL     1       8.716   9.994  18.210  0.00  0.00    +0.000 C 
ATOM     20  O   UNL     1       8.192  10.752  17.409  0.00  0.00    +0.000 OA
ATOM     21  N   UNL     1       9.722  10.300  19.097  0.00  0.00    +0.000 N 
ATOM     22  H   UNL     1      10.088   9.524  19.642  0.00  0.00    +0.000 HD
BRANCH  21  23
ATOM     23  C   UNL     1      10.305  11.615  19.241  0.00  0.00    +0.000 C 
ATOM     24  C   UNL     1      11.822  11.646  18.921  0.00  0.00    +0.000 C 
ATOM     25  C   UNL     1      12.296  13.101  18.729  0.00  0.00    +0.000 C 
ATOM     26  C   UNL     1      11.667  13.961  19.765  0.00  0.00    +0.000 A 
ATOM     27  N   UNL     1      11.896  15.287  19.967  0.00  0.00    +0.000 N 
ATOM     28  N   UNL     1      11.130  15.804  20.948  0.00  0.00    +0.000 NA
ATOM     29  C   UNL     1      10.380  14.775  21.355  0.00  0.00    +0.000 A 
ATOM     30  C   UNL     1      10.658  13.604  20.635  0.00  0.00    +0.000 A 
ATOM     31  C   UNL     1      10.055  12.245  20.639  0.00  0.00    +0.000 C 
ATOM     32  H   UNL     1      12.523  15.906  19.463  0.00  0.00    +0.000 HD
ENDBRANCH  21  23
ENDBRANCH   2  19
TORSDOF 5
ENDMDL
MODEL 5
REMARK VINA RESULT:      -8.5      1.105      1.717
REMARK  Name = 
REMARK  6 active torsions:
REMARK  status: ('A' for Active; 'I' for Inactive)
REMARK    1  A    between atoms: C_1  and  C_2
REMARK    2  A    between atoms: C_6  and  O_7
REMARK    3  A    between atoms: O_7  and  C_8
REMARK    4  A    between atoms: C_11  and  N_12
REMARK    5  A    between atoms: C_13  and  C_15
REMARK    6  A    between atoms: N_17  and  C_18
REMARK                            x       y       z     vdW  Elec       q    Type
REMARK                         _______ _______ _______ _____ _____    ______ ____
ROOT
ATOM      1  N   UNL     1       1.021   8.939  21.111  0.00  0.00    +0.000 N 
ATOM      2  C   UNL     1      -0.093   9.737  20.977  0.00  0.00    +0.000 C 
ATOM      3  O   UNL     1      -0.806   9.913  19.993  0.00  0.00    +0.000 OA
ATOM      4  H   UNL     1       1.465   8.957  22.032  0.00  0.00    +0.000 HD
ENDROOT
BRANCH   1   8
ATOM      5  C   UNL     1       2.896   6.532  18.199  0.00  0.00    +0.000 A 
ATOM      6  C   UNL     1       2.489   7.821  17.857  0.00  0.00    +0.000 A 
ATOM      7  C   UNL     1       1.848   8.617  18.810  0.00  0.00    +0.000 A 
ATOM      8  C   UNL     1       1.592   8.147  20.101  0.00  0.00    +0.000 A 
ATOM      9  C   UNL     1       1.929   6.822  20.408  0.00  0.00    +0.000 A 
ATOM     10  C   UNL     1       2.555   6.024  19.448  0.00  0.00    +0.000 A 
BRANCH   5  11
ATOM     11  O   UNL     1       3.613   5.813  17.262  0.00  0.00    +0.000 OA
BRANCH  11  17
ATOM     12  C   UNL     1       7.877   8.181  17.641  0.00  0.00    +0.000 C 
ATOM     13  C   UNL     1       7.101   6.897  17.609  0.00  0.00    +0.000 A 
ATOM     14  C   UNL     1       7.768   5.668  17.697  0.00  0.00    +0.000 A 
ATOM     15  C   UNL     1       7.054   4.474  17.653  0.00  0.00    +0.000 A 
ATOM     16  C   UNL     1       5.667   4.497  17.528  0.00  0.00    +0.000 A 
ATOM     17  C   UNL     1       4.985   5.714  17.416  0.00  0.00    +0.000 A 
ATOM     18  C   UNL     1       5.702   6.913  17.482  0.00  0.00    +0.000 A 
ENDBRANCH  11  17
ENDBRANCH   5  11
ENDBRANCH   1   8
BRANCH   2  19
ATOM     19  C   UNL     1      -0.471  10.501  22.242  0.00  0.00    +0.000 C 
ATOM     20  O   UNL     1       0.058  10.221  23.306  0.00  0.00    +0.000 OA
ATOM     21  N   UNL     1      -1.413  11.479  22.022  0.00  0.00    +0.000 N 
ATOM     22  H   UNL     1      -1.798  11.524  21.082  0.00  0.00    +0.000 HD
BRANCH  21  23
ATOM     23  C   UNL     1      -1.906  12.375  23.043  0.00  0.00    +0.000 C 
ATOM     24  C   UNL     1      -3.436  12.616  22.953  0.00  0.00    +0.000 C 
ATOM     25  C   UNL     1      -3.952  13.259  24.256  0.00  0.00    +0.000 C 
ATOM     26  C   UNL     1      -2.990  14.301  24.701  0.00  0.00    +0.000 A 
ATOM     27  N   UNL     1      -3.134  15.135  25.767  0.00  0.00    +0.000 N 
ATOM     28  N   UNL     1      -2.065  15.933  25.951  0.00  0.00    +0.000 NA
ATOM     29  C   UNL     1      -1.214  15.570  24.985  0.00  0.00    +0.000 A 
ATOM     30  C   UNL     1      -1.732  14.539  24.189  0.00  0.00    +0.000 A 
ATOM     31  C   UNL     1      -1.165  13.740  23.071  0.00  0.00    +0.000 C 
ATOM     32  H   UNL     1      -3.903  15.194  26.426  0.00  0.00    +0.000 HD
ENDBRANCH  21  23
ENDBRANCH   2  19
TORSDOF 5
ENDMDL
MODEL 6
REMARK VINA RESULT:      -8.5      8.190     12.007
REMARK  Name = 
REMARK  6 active torsions:
REMARK  status: ('A' for Active; 'I' for Inactive)
REMARK    1  A    between atoms: C_1  and  C_2
REMARK    2  A    between atoms: C_6  and  O_7
REMARK    3  A    between atoms: O_7  and  C_8
REMARK    4  A    between atoms: C_11  and  N_12
REMARK    5  A    between atoms: C_13  and  C_15
REMARK    6  A    between atoms: N_17  and  C_18
REMARK                            x       y       z     vdW  Elec       q    Type
REMARK                         _______ _______ _______ _____ _____    ______ ____
ROOT
ATOM      1  N   UNL     1       9.008   9.107  19.171  0.00  0.00    +0.000 N 
ATOM      2  C   UNL     1       8.161   8.688  18.170  0.00  0.00    +0.000 C 
ATOM      3  O   UNL     1       7.713   9.322  17.219  0.00  0.00    +0.000 OA
ATOM      4  H   UNL     1       9.241   8.399  19.871  0.00  0.00    +0.000 HD
ENDROOT
BRANCH   1   8
ATOM      5  C   UNL     1      10.779  12.917  19.545  0.00  0.00    +0.000 A 
ATOM      6  C   UNL     1      10.099  12.372  20.634  0.00  0.00    +0.000 A 
ATOM      7  C   UNL     1       9.492  11.120  20.512  0.00  0.00    +0.000 A 
ATOM      8  C   UNL     1       9.537  10.399  19.314  0.00  0.00    +0.000 A 
ATOM      9  C   UNL     1      10.150  10.992  18.202  0.00  0.00    +0.000 A 
ATOM     10  C   UNL     1      10.742  12.252  18.323  0.00  0.00    +0.000 A 
BRANCH   5  11
ATOM     11  O   UNL     1      11.449  14.110  19.734  0.00  0.00    +0.000 OA
BRANCH  11  17
ATOM     12  C   UNL     1       8.063  17.406  18.467  0.00  0.00    +0.000 C 
ATOM     13  C   UNL     1       9.436  16.823  18.303  0.00  0.00    +0.000 A 
ATOM     14  C   UNL     1      10.312  17.343  17.342  0.00  0.00    +0.000 A 
ATOM     15  C   UNL     1      11.582  16.797  17.175  0.00  0.00    +0.000 A 
ATOM     16  C   UNL     1      11.990  15.731  17.974  0.00  0.00    +0.000 A 
ATOM     17  C   UNL     1      11.121  15.185  18.926  0.00  0.00    +0.000 A 
ATOM     18  C   UNL     1       9.855  15.748  19.105  0.00  0.00    +0.000 A 
ENDBRANCH  11  17
ENDBRANCH   5  11
ENDBRANCH   1   8
BRANCH   2  19
ATOM     19  C   UNL     1       7.731   7.229  18.283  0.00  0.00    +0.000 C 
ATOM     20  O   UNL     1       8.384   6.450  18.959  0.00  0.00    +0.000 OA
ATOM     21  N   UNL     1       6.585   6.947  17.577  0.00  0.00    +0.000 N 
ATOM     22  H   UNL     1       6.212   7.704  17.010  0.00  0.00    +0.000 HD
BRANCH  21  23
ATOM     23  C   UNL     1       5.941   5.652  17.557  0.00  0.00    +0.000 C 
ATOM     24  C   UNL     1       5.059   5.431  16.301  0.00  0.00    +0.000 C 
ATOM     25  C   UNL     1       4.711   3.937  16.151  0.00  0.00    +0.000 C 
ATOM     26  C   UNL     1       4.378   3.375  17.486  0.00  0.00    +0.000 A 
ATOM     27  N   UNL     1       3.951   2.111  17.751  0.00  0.00    +0.000 N 
ATOM     28  N   UNL     1       3.786   1.882  19.069  0.00  0.00    +0.000 NA
ATOM     29  C   UNL     1       4.148   3.032  19.649  0.00  0.00    +0.000 A 
ATOM     30  C   UNL     1       4.548   3.992  18.708  0.00  0.00    +0.000 A 
ATOM     31  C   UNL     1       5.108   5.363  18.836  0.00  0.00    +0.000 C 
ATOM     32  H   UNL     1       3.784   1.349  17.102  0.00  0.00    +0.000 HD
ENDBRANCH  21  23
ENDBRANCH   2  19
TORSDOF 5
ENDMDL
MODEL 7
REMARK VINA RESULT:      -8.4      0.633      1.708
REMARK  Name = 
REMARK  6 active torsions:
REMARK  status: ('A' for Active; 'I' for Inactive)
REMARK    1  A    between atoms: C_1  and  C_2
REMARK    2  A    between atoms: C_6  and  O_7
REMARK    3  A    between atoms: O_7  and  C_8
REMARK    4  A    between atoms: C_11  and  N_12
REMARK    5  A    between atoms: C_13  and  C_15
REMARK    6  A    between atoms: N_17  and  C_18
REMARK                            x       y       z     vdW  Elec       q    Type
REMARK                         _______ _______ _______ _____ _____    ______ ____
ROOT
ATOM      1  N   UNL     1       0.905   8.180  21.394  0.00  0.00    +0.000 N 
ATOM      2  C   UNL     1       0.599   9.496  21.127  0.00  0.00    +0.000 C 
ATOM      3  O   UNL     1       0.742  10.128  20.084  0.00  0.00    +0.000 OA
ATOM      4  H   UNL     1       0.706   7.870  22.348  0.00  0.00    +0.000 HD
ENDROOT
BRANCH   1   8
ATOM      5  C   UNL     1       2.749   5.382  18.833  0.00  0.00    +0.000 A 
ATOM      6  C   UNL     1       2.698   6.723  18.453  0.00  0.00    +0.000 A 
ATOM      7  C   UNL     1       2.070   7.653  19.286  0.00  0.00    +0.000 A 
ATOM      8  C   UNL     1       1.477   7.269  20.492  0.00  0.00    +0.000 A 
ATOM      9  C   UNL     1       1.460   5.908  20.824  0.00  0.00    +0.000 A 
ATOM     10  C   UNL     1       2.074   4.979  19.981  0.00  0.00    +0.000 A 
BRANCH   5  11
ATOM     11  O   UNL     1       3.463   4.512  18.032  0.00  0.00    +0.000 OA
BRANCH  11  17
ATOM     12  C   UNL     1       7.973   5.881  19.340  0.00  0.00    +0.000 C 
ATOM     13  C   UNL     1       6.970   5.563  18.271  0.00  0.00    +0.000 A 
ATOM     14  C   UNL     1       7.317   5.685  16.920  0.00  0.00    +0.000 A 
ATOM     15  C   UNL     1       6.385   5.407  15.923  0.00  0.00    +0.000 A 
ATOM     16  C   UNL     1       5.100   4.995  16.270  0.00  0.00    +0.000 A 
ATOM     17  C   UNL     1       4.728   4.888  17.615  0.00  0.00    +0.000 A 
ATOM     18  C   UNL     1       5.671   5.148  18.613  0.00  0.00    +0.000 A 
ENDBRANCH  11  17
ENDBRANCH   5  11
ENDBRANCH   1   8
BRANCH   2  19
ATOM     19  C   UNL     1       0.004  10.253  22.309  0.00  0.00    +0.000 C 
ATOM     20  O   UNL     1       0.370   9.998  23.446  0.00  0.00    +0.000 OA
ATOM     21  N   UNL     1      -0.924  11.197  21.935  0.00  0.00    +0.000 N 
ATOM     22  H   UNL     1      -1.160  11.224  20.946  0.00  0.00    +0.000 HD
BRANCH  21  23
ATOM     23  C   UNL     1      -1.600  12.081  22.857  0.00  0.00    +0.000 C 
ATOM     24  C   UNL     1      -3.106  12.261  22.533  0.00  0.00    +0.000 C 
ATOM     25  C   UNL     1      -3.838  12.893  23.735  0.00  0.00    +0.000 C 
ATOM     26  C   UNL     1      -2.995  13.976  24.306  0.00  0.00    +0.000 A 
ATOM     27  N   UNL     1      -3.330  14.812  25.326  0.00  0.00    +0.000 N 
ATOM     28  N   UNL     1      -2.331  15.654  25.658  0.00  0.00    +0.000 NA
ATOM     29  C   UNL     1      -1.331  15.316  24.837  0.00  0.00    +0.000 A 
ATOM     30  C   UNL     1      -1.683  14.259  23.986  0.00  0.00    +0.000 A 
ATOM     31  C   UNL     1      -0.924  13.474  22.978  0.00  0.00    +0.000 C 
ATOM     32  H   UNL     1      -4.192  14.847  25.860  0.00  0.00    +0.000 HD
ENDBRANCH  21  23
ENDBRANCH   2  19
TORSDOF 5
ENDMDL
MODEL 8
REMARK VINA RESULT:      -8.4      2.471      3.404
REMARK  Name = 
REMARK  6 active torsions:
REMARK  status: ('A' for Active; 'I' for Inactive)
REMARK    1  A    between atoms: C_1  and  C_2
REMARK    2  A    between atoms: C_6  and  O_7
REMARK    3  A    between atoms: O_7  and  C_8
REMARK    4  A    between atoms: C_11  and  N_12
REMARK    5  A    between atoms: C_13  and  C_15
REMARK    6  A    between atoms: N_17  and  C_18
REMARK                            x       y       z     vdW  Elec       q    Type
REMARK                         _______ _______ _______ _____ _____    ______ ____
ROOT
ATOM      1  N   UNL     1      -0.056  10.490  20.841  0.00  0.00    +0.000 N 
ATOM      2  C   UNL     1       0.372  11.718  21.295  0.00  0.00    +0.000 C 
ATOM      3  O   UNL     1       1.438  12.292  21.089  0.00  0.00    +0.000 OA
ATOM      4  H   UNL     1      -0.988  10.209  21.151  0.00  0.00    +0.000 HD
ENDROOT
BRANCH   1   8
ATOM      5  C   UNL     1       2.320   7.883  18.528  0.00  0.00    +0.000 A 
ATOM      6  C   UNL     1       1.660   8.940  17.901  0.00  0.00    +0.000 A 
ATOM      7  C   UNL     1       0.855   9.795  18.656  0.00  0.00    +0.000 A 
ATOM      8  C   UNL     1       0.681   9.611  20.031  0.00  0.00    +0.000 A 
ATOM      9  C   UNL     1       1.281   8.498  20.636  0.00  0.00    +0.000 A 
ATOM     10  C   UNL     1       2.072   7.635  19.874  0.00  0.00    +0.000 A 
BRANCH   5  11
ATOM     11  O   UNL     1       3.184   7.120  17.766  0.00  0.00    +0.000 OA
BRANCH  11  17
ATOM     12  C   UNL     1       1.274   2.671  18.465  0.00  0.00    +0.000 C 
ATOM     13  C   UNL     1       2.455   3.596  18.484  0.00  0.00    +0.000 A 
ATOM     14  C   UNL     1       3.708   3.132  18.903  0.00  0.00    +0.000 A 
ATOM     15  C   UNL     1       4.804   3.990  18.936  0.00  0.00    +0.000 A 
ATOM     16  C   UNL     1       4.658   5.319  18.544  0.00  0.00    +0.000 A 
ATOM     17  C   UNL     1       3.409   5.807  18.143  0.00  0.00    +0.000 A 
ATOM     18  C   UNL     1       2.315   4.938  18.090  0.00  0.00    +0.000 A 
ENDBRANCH  11  17
ENDBRANCH   5  11
ENDBRANCH   1   8
BRANCH   2  19
ATOM     19  C   UNL     1      -0.638  12.445  22.176  0.00  0.00    +0.000 C 
ATOM     20  O   UNL     1      -0.252  13.204  23.051  0.00  0.00    +0.000 OA
ATOM     21  N   UNL     1      -1.944  12.153  21.856  0.00  0.00    +0.000 N 
ATOM     22  H   UNL     1      -2.081  11.442  21.143  0.00  0.00    +0.000 HD
BRANCH  21  23
ATOM     23  C   UNL     1      -3.091  12.746  22.507  0.00  0.00    +0.000 C 
ATOM     24  C   UNL     1      -3.438  12.071  23.859  0.00  0.00    +0.000 C 
ATOM     25  C   UNL     1      -4.406  12.961  24.665  0.00  0.00    +0.000 C 
ATOM     26  C   UNL     1      -5.435  13.520  23.749  0.00  0.00    +0.000 A 
ATOM     27  N   UNL     1      -6.501  14.290  24.099  0.00  0.00    +0.000 N 
ATOM     28  N   UNL     1      -7.223  14.693  23.036  0.00  0.00    +0.000 NA
ATOM     29  C   UNL     1      -6.574  14.180  21.985  0.00  0.00    +0.000 A 
ATOM     30  C   UNL     1      -5.436  13.457  22.371  0.00  0.00    +0.000 A 
ATOM     31  C   UNL     1      -4.355  12.783  21.605  0.00  0.00    +0.000 C 
ATOM     32  H   UNL     1      -6.778  14.607  25.022  0.00  0.00    +0.000 HD
ENDBRANCH  21  23
ENDBRANCH   2  19
TORSDOF 5
ENDMDL
MODEL 9
REMARK VINA RESULT:      -8.3      2.292      3.769
REMARK  Name = 
REMARK  6 active torsions:
REMARK  status: ('A' for Active; 'I' for Inactive)
REMARK    1  A    between atoms: C_1  and  C_2
REMARK    2  A    between atoms: C_6  and  O_7
REMARK    3  A    between atoms: O_7  and  C_8
REMARK    4  A    between atoms: C_11  and  N_12
REMARK    5  A    between atoms: C_13  and  C_15
REMARK    6  A    between atoms: N_17  and  C_18
REMARK                            x       y       z     vdW  Elec       q    Type
REMARK                         _______ _______ _______ _____ _____    ______ ____
ROOT
ATOM      1  N   UNL     1       2.568   7.247  18.735  0.00  0.00    +0.000 N 
ATOM      2  C   UNL     1       2.049   8.468  18.367  0.00  0.00    +0.000 C 
ATOM      3  O   UNL     1       2.231   9.108  17.335  0.00  0.00    +0.000 OA
ATOM      4  H   UNL     1       2.281   6.910  19.656  0.00  0.00    +0.000 HD
ENDROOT
BRANCH   1   8
ATOM      5  C   UNL     1       5.259   4.787  16.614  0.00  0.00    +0.000 A 
ATOM      6  C   UNL     1       5.511   6.155  16.702  0.00  0.00    +0.000 A 
ATOM      7  C   UNL     1       4.614   6.980  17.385  0.00  0.00    +0.000 A 
ATOM      8  C   UNL     1       3.455   6.468  17.975  0.00  0.00    +0.000 A 
ATOM      9  C   UNL     1       3.168   5.107  17.809  0.00  0.00    +0.000 A 
ATOM     10  C   UNL     1       4.059   4.288  17.112  0.00  0.00    +0.000 A 
BRANCH   5  11
ATOM     11  O   UNL     1       6.217   3.991  16.018  0.00  0.00    +0.000 OA
BRANCH  11  17
ATOM     12  C   UNL     1       4.825   2.897  11.458  0.00  0.00    +0.000 C 
ATOM     13  C   UNL     1       5.755   3.605  12.399  0.00  0.00    +0.000 A 
ATOM     14  C   UNL     1       6.827   4.355  11.899  0.00  0.00    +0.000 A 
ATOM     15  C   UNL     1       7.702   5.001  12.768  0.00  0.00    +0.000 A 
ATOM     16  C   UNL     1       7.507   4.911  14.144  0.00  0.00    +0.000 A 
ATOM     17  C   UNL     1       6.454   4.148  14.663  0.00  0.00    +0.000 A 
ATOM     18  C   UNL     1       5.565   3.517  13.788  0.00  0.00    +0.000 A 
ENDBRANCH  11  17
ENDBRANCH   5  11
ENDBRANCH   1   8
BRANCH   2  19
ATOM     19  C   UNL     1       1.124   9.094  19.406  0.00  0.00    +0.000 C 
ATOM     20  O   UNL     1       1.168   8.720  20.568  0.00  0.00    +0.000 OA
ATOM     21  N   UNL     1       0.307  10.070  18.885  0.00  0.00    +0.000 N 
ATOM     22  H   UNL     1       0.355  10.202  17.878  0.00  0.00    +0.000 HD
BRANCH  21  23
ATOM     23  C   UNL     1      -0.627  10.850  19.666  0.00  0.00    +0.000 C 
ATOM     24  C   UNL     1      -1.558  11.733  18.796  0.00  0.00    +0.000 C 
ATOM     25  C   UNL     1      -2.749  12.239  19.635  0.00  0.00    +0.000 C 
ATOM     26  C   UNL     1      -2.262  12.649  20.978  0.00  0.00    +0.000 A 
ATOM     27  N   UNL     1      -3.001  13.215  21.970  0.00  0.00    +0.000 N 
ATOM     28  N   UNL     1      -2.290  13.422  23.095  0.00  0.00    +0.000 NA
ATOM     29  C   UNL     1      -1.074  12.946  22.807  0.00  0.00    +0.000 A 
ATOM     30  C   UNL     1      -1.006  12.431  21.504  0.00  0.00    +0.000 A 
ATOM     31  C   UNL     1       0.062  11.727  20.747  0.00  0.00    +0.000 C 
ATOM     32  H   UNL     1      -3.987  13.454  21.969  0.00  0.00    +0.000 HD
ENDBRANCH  21  23
ENDBRANCH   2  19
TORSDOF 5
ENDMDL
