MODEL 1
REMARK VINA RESULT:      -7.3      0.000      0.000
REMARK  Name = 
REMARK  7 active torsions:
REMARK  status: ('A' for Active; 'I' for Inactive)
REMARK    1  A    between atoms: C_1  and  C_2
REMARK    2  A    between atoms: C_5  and  S_6
REMARK    3  A    between atoms: S_6  and  C_7
REMARK    4  A    between atoms: C_11  and  S_12
REMARK    5  A    between atoms: S_12  and  N_15
REMARK    6  A    between atoms: C_20  and  C_21
REMARK    7  A    between atoms: C_21  and  O_23
REMARK                            x       y       z     vdW  Elec       q    Type
REMARK                         _______ _______ _______ _____ _____    ______ ____
ROOT
ATOM      1  S   UNL     1       2.588   5.697  19.478  0.00  0.00    +0.000 S 
ATOM      2  O   UNL     1       2.881   5.265  20.843  0.00  0.00    +0.000 OA
ATOM      3  O   UNL     1       1.559   5.030  18.721  0.00  0.00    +0.000 OA
ENDROOT
BRANCH   1  10
ATOM      4  C   UNL     1       2.531   8.381  17.175  0.00  0.00    +0.000 C 
ATOM      5  C   UNL     1       2.040   8.463  18.605  0.00  0.00    +0.000 A 
ATOM      6  C   UNL     1       1.517   9.754  18.906  0.00  0.00    +0.000 A 
ATOM      7  C   UNL     1       0.938  10.055  20.126  0.00  0.00    +0.000 A 
ATOM      8  C   UNL     1       0.858   9.050  21.079  0.00  0.00    +0.000 A 
ATOM      9  C   UNL     1       1.412   7.784  20.856  0.00  0.00    +0.000 A 
ATOM     10  C   UNL     1       2.046   7.464  19.630  0.00  0.00    +0.000 A 
BRANCH   8  11
ATOM     11  S   UNL     1       0.006   9.419  22.608  0.00  0.00    +0.000 S 
ATOM     12  C   UNL     1      -0.752  10.997  22.296  0.00  0.00    +0.000 C 
ATOM     13  O   UNL     1      -1.025   8.433  22.735  0.00  0.00    +0.000 OA
ATOM     14  O   UNL     1       1.020   9.609  23.618  0.00  0.00    +0.000 OA
ENDBRANCH   8  11
ENDBRANCH   1  10
BRANCH   1  15
ATOM     15  N   UNL     1       4.096   5.434  18.613  0.00  0.00    +0.000 NA
ATOM     16  C   UNL     1       5.113   4.582  19.269  0.00  0.00    +0.000 C 
ATOM     17  C   UNL     1       4.522   3.192  19.004  0.00  0.00    +0.000 C 
ATOM     18  C   UNL     1       3.801   3.337  17.643  0.00  0.00    +0.000 C 
ATOM     19  C   UNL     1       4.162   4.773  17.260  0.00  0.00    +0.000 C 
ATOM     20  C   UNL     1       5.693   4.687  16.952  0.00  0.00    +0.000 C 
ATOM     21  C   UNL     1       6.338   4.725  18.342  0.00  0.00    +0.000 C 
BRANCH  20  22
ATOM     22  C   UNL     1       6.261   5.653  15.949  0.00  0.00    +0.000 C 
ATOM     23  O   UNL     1       7.452   5.668  15.648  0.00  0.00    +0.000 OA
BRANCH  22  24
ATOM     24  O   UNL     1       5.391   6.541  15.445  0.00  0.00    +0.000 OA
ATOM     25  H   UNL     1       5.051   6.307  14.560  0.00  0.00    +0.000 HD
ENDBRANCH  22  24
ENDBRANCH  20  22
ENDBRANCH   1  15
TORSDOF 5
ENDMDL
MODEL 2
REMARK VINA RESULT:      -7.0      2.643      7.859
REMARK  Name = 
REMARK  7 active torsions:
REMARK  status: ('A' for Active; 'I' for Inactive)
REMARK    1  A    between atoms: C_1  and  C_2
REMARK    2  A    between atoms: C_5  and  S_6
REMARK    3  A    between atoms: S_6  and  C_7
REMARK    4  A    between atoms: C_11  and  S_12
REMARK    5  A    between atoms: S_12  and  N_15
REMARK    6  A    between atoms: C_20  and  C_21
REMARK    7  A    between atoms: C_21  and  O_23
REMARK                            x       y       z     vdW  Elec       q    Type
REMARK                         _______ _______ _______ _____ _____    ______ ____
ROOT
ATOM      1  S   UNL     1       1.582   9.327  18.186  0.00  0.00    +0.000 S 
ATOM      2  O   UNL     1       2.507  10.250  17.530  0.00  0.00    +0.000 OA
ATOM      3  O   UNL     1       0.402   8.879  17.489  0.00  0.00    +0.000 OA
ENDROOT
BRANCH   1  10
ATOM      4  C   UNL     1       1.423   6.914  20.767  0.00  0.00    +0.000 C 
ATOM      5  C   UNL     1       2.397   6.873  19.609  0.00  0.00    +0.000 A 
ATOM      6  C   UNL     1       3.230   5.718  19.666  0.00  0.00    +0.000 A 
ATOM      7  C   UNL     1       4.151   5.417  18.678  0.00  0.00    +0.000 A 
ATOM      8  C   UNL     1       4.248   6.272  17.590  0.00  0.00    +0.000 A 
ATOM      9  C   UNL     1       3.497   7.451  17.517  0.00  0.00    +0.000 A 
ATOM     10  C   UNL     1       2.578   7.802  18.535  0.00  0.00    +0.000 A 
BRANCH   8  11
ATOM     11  S   UNL     1       5.359   5.811  16.266  0.00  0.00    +0.000 S 
ATOM     12  C   UNL     1       6.974   6.018  16.983  0.00  0.00    +0.000 C 
ATOM     13  O   UNL     1       5.139   4.416  16.031  0.00  0.00    +0.000 OA
ATOM     14  O   UNL     1       5.208   6.801  15.228  0.00  0.00    +0.000 OA
ENDBRANCH   8  11
ENDBRANCH   1  10
BRANCH   1  15
ATOM     15  N   UNL     1       1.022  10.213  19.597  0.00  0.00    +0.000 NA
ATOM     16  C   UNL     1       1.106  11.690  19.547  0.00  0.00    +0.000 C 
ATOM     17  C   UNL     1      -0.104  12.006  18.659  0.00  0.00    +0.000 C 
ATOM     18  C   UNL     1      -1.123  10.890  18.993  0.00  0.00    +0.000 C 
ATOM     19  C   UNL     1      -0.394  10.137  20.107  0.00  0.00    +0.000 C 
ATOM     20  C   UNL     1      -0.425  11.146  21.301  0.00  0.00    +0.000 C 
ATOM     21  C   UNL     1       0.724  12.110  20.982  0.00  0.00    +0.000 C 
BRANCH  20  22
ATOM     22  C   UNL     1      -0.426  10.582  22.695  0.00  0.00    +0.000 C 
ATOM     23  O   UNL     1      -1.263  10.904  23.536  0.00  0.00    +0.000 OA
BRANCH  22  24
ATOM     24  O   UNL     1       0.583   9.746  22.982  0.00  0.00    +0.000 OA
ATOM     25  H   UNL     1       0.980   9.889  23.862  0.00  0.00    +0.000 HD
ENDBRANCH  22  24
ENDBRANCH  20  22
ENDBRANCH   1  15
TORSDOF 5
ENDMDL
MODEL 3
REMARK VINA RESULT:      -6.6      2.533      3.440
REMARK  Name = 
REMARK  7 active torsions:
REMARK  status: ('A' for Active; 'I' for Inactive)
REMARK    1  A    between atoms: C_1  and  C_2
REMARK    2  A    between atoms: C_5  and  S_6
REMARK    3  A    between atoms: S_6  and  C_7
REMARK    4  A    between atoms: C_11  and  S_12
REMARK    5  A    between atoms: S_12  and  N_15
REMARK    6  A    between atoms: C_20  and  C_21
REMARK    7  A    between atoms: C_21  and  O_23
REMARK                            x       y       z     vdW  Elec       q    Type
REMARK                         _______ _______ _______ _____ _____    ______ ____
ROOT
ATOM      1  S   UNL     1       3.671   4.783  18.256  0.00  0.00    +0.000 S 
ATOM      2  O   UNL     1       3.807   3.577  19.072  0.00  0.00    +0.000 OA
ATOM      3  O   UNL     1       3.092   4.695  16.939  0.00  0.00    +0.000 OA
ENDROOT
BRANCH   1  10
ATOM      4  C   UNL     1       2.179   4.485  21.450  0.00  0.00    +0.000 C 
ATOM      5  C   UNL     1       2.039   5.689  20.542  0.00  0.00    +0.000 A 
ATOM      6  C   UNL     1       1.254   6.713  21.148  0.00  0.00    +0.000 A 
ATOM      7  C   UNL     1       1.045   7.943  20.548  0.00  0.00    +0.000 A 
ATOM      8  C   UNL     1       1.639   8.180  19.317  0.00  0.00    +0.000 A 
ATOM      9  C   UNL     1       2.368   7.187  18.652  0.00  0.00    +0.000 A 
ATOM     10  C   UNL     1       2.561   5.907  19.228  0.00  0.00    +0.000 A 
BRANCH   8  11
ATOM     11  S   UNL     1       1.456   9.811  18.606  0.00  0.00    +0.000 S 
ATOM     12  C   UNL     1      -0.200   9.802  17.957  0.00  0.00    +0.000 C 
ATOM     13  O   UNL     1       1.512  10.730  19.703  0.00  0.00    +0.000 OA
ATOM     14  O   UNL     1       2.367   9.887  17.489  0.00  0.00    +0.000 OA
ENDBRANCH   8  11
ENDBRANCH   1  10
BRANCH   1  15
ATOM     15  N   UNL     1       5.323   5.341  18.040  0.00  0.00    +0.000 NA
ATOM     16  C   UNL     1       6.316   4.352  17.566  0.00  0.00    +0.000 C 
ATOM     17  C   UNL     1       5.962   4.297  16.075  0.00  0.00    +0.000 C 
ATOM     18  C   UNL     1       5.467   5.726  15.748  0.00  0.00    +0.000 C 
ATOM     19  C   UNL     1       5.701   6.440  17.080  0.00  0.00    +0.000 C 
ATOM     20  C   UNL     1       7.260   6.515  17.178  0.00  0.00    +0.000 C 
ATOM     21  C   UNL     1       7.652   5.118  17.674  0.00  0.00    +0.000 C 
BRANCH  20  22
ATOM     22  C   UNL     1       7.859   7.664  17.941  0.00  0.00    +0.000 C 
ATOM     23  O   UNL     1       7.757   8.829  17.567  0.00  0.00    +0.000 OA
BRANCH  22  24
ATOM     24  O   UNL     1       8.567   7.327  19.031  0.00  0.00    +0.000 OA
ATOM     25  H   UNL     1       8.353   7.857  19.823  0.00  0.00    +0.000 HD
ENDBRANCH  22  24
ENDBRANCH  20  22
ENDBRANCH   1  15
TORSDOF 5
ENDMDL
MODEL 4
REMARK VINA RESULT:      -6.6      2.267      3.050
REMARK  Name = 
REMARK  7 active torsions:
REMARK  status: ('A' for Active; 'I' for Inactive)
REMARK    1  A    between atoms: C_1  and  C_2
REMARK    2  A    between atoms: C_5  and  S_6
REMARK    3  A    between atoms: S_6  and  C_7
REMARK    4  A    between atoms: C_11  and  S_12
REMARK    5  A    between atoms: S_12  and  N_15
REMARK    6  A    between atoms: C_20  and  C_21
REMARK    7  A    between atoms: C_21  and  O_23
REMARK                            x       y       z     vdW  Elec       q    Type
REMARK                         _______ _______ _______ _____ _____    ______ ____
ROOT
ATOM      1  S   UNL     1       2.840   6.824  17.886  0.00  0.00    +0.000 S 
ATOM      2  O   UNL     1       2.031   5.679  17.471  0.00  0.00    +0.000 OA
ATOM      3  O   UNL     1       3.088   7.900  16.961  0.00  0.00    +0.000 OA
ENDROOT
BRANCH   1  10
ATOM      4  C   UNL     1       1.861   5.543  21.034  0.00  0.00    +0.000 C 
ATOM      5  C   UNL     1       1.611   6.961  20.566  0.00  0.00    +0.000 A 
ATOM      6  C   UNL     1       0.957   7.736  21.568  0.00  0.00    +0.000 A 
ATOM      7  C   UNL     1       0.688   9.084  21.406  0.00  0.00    +0.000 A 
ATOM      8  C   UNL     1       1.087   9.695  20.227  0.00  0.00    +0.000 A 
ATOM      9  C   UNL     1       1.677   8.966  19.188  0.00  0.00    +0.000 A 
ATOM     10  C   UNL     1       1.926   7.577  19.313  0.00  0.00    +0.000 A 
BRANCH   8  11
ATOM     11  S   UNL     1       0.836  11.460  20.078  0.00  0.00    +0.000 S 
ATOM     12  C   UNL     1      -0.918  11.615  19.833  0.00  0.00    +0.000 C 
ATOM     13  O   UNL     1       1.170  12.016  21.355  0.00  0.00    +0.000 OA
ATOM     14  O   UNL     1       1.490  11.876  18.861  0.00  0.00    +0.000 OA
ENDBRANCH   8  11
ENDBRANCH   1  10
BRANCH   1  15
ATOM     15  N   UNL     1       4.406   6.123  18.268  0.00  0.00    +0.000 NA
ATOM     16  C   UNL     1       4.496   4.646  18.308  0.00  0.00    +0.000 C 
ATOM     17  C   UNL     1       4.531   4.330  16.808  0.00  0.00    +0.000 C 
ATOM     18  C   UNL     1       5.260   5.542  16.181  0.00  0.00    +0.000 C 
ATOM     19  C   UNL     1       5.635   6.348  17.425  0.00  0.00    +0.000 C 
ATOM     20  C   UNL     1       6.733   5.467  18.106  0.00  0.00    +0.000 C 
ATOM     21  C   UNL     1       5.921   4.398  18.847  0.00  0.00    +0.000 C 
BRANCH  20  22
ATOM     22  C   UNL     1       7.783   6.164  18.926  0.00  0.00    +0.000 C 
ATOM     23  O   UNL     1       8.235   7.265  18.620  0.00  0.00    +0.000 OA
BRANCH  22  24
ATOM     24  O   UNL     1       8.238   5.479  19.986  0.00  0.00    +0.000 OA
ATOM     25  H   UNL     1       9.086   5.810  20.339  0.00  0.00    +0.000 HD
ENDBRANCH  22  24
ENDBRANCH  20  22
ENDBRANCH   1  15
TORSDOF 5
ENDMDL
MODEL 5
REMARK VINA RESULT:      -6.6      3.286      6.957
REMARK  Name = 
REMARK  7 active torsions:
REMARK  status: ('A' for Active; 'I' for Inactive)
REMARK    1  A    between atoms: C_1  and  C_2
REMARK    2  A    between atoms: C_5  and  S_6
REMARK    3  A    between atoms: S_6  and  C_7
REMARK    4  A    between atoms: C_11  and  S_12
REMARK    5  A    between atoms: S_12  and  N_15
REMARK    6  A    between atoms: C_20  and  C_21
REMARK    7  A    between atoms: C_21  and  O_23
REMARK                            x       y       z     vdW  Elec       q    Type
REMARK                         _______ _______ _______ _____ _____    ______ ____
ROOT
ATOM      1  S   UNL     1       0.988   8.663  20.846  0.00  0.00    +0.000 S 
ATOM      2  O   UNL     1      -0.369   8.245  21.191  0.00  0.00    +0.000 OA
ATOM      3  O   UNL     1       1.936   8.954  21.891  0.00  0.00    +0.000 OA
ENDROOT
BRANCH   1  10
ATOM      4  C   UNL     1       2.776   8.515  17.798  0.00  0.00    +0.000 C 
ATOM      5  C   UNL     1       2.447   7.316  18.662  0.00  0.00    +0.000 A 
ATOM      6  C   UNL     1       2.976   6.112  18.112  0.00  0.00    +0.000 A 
ATOM      7  C   UNL     1       2.873   4.892  18.757  0.00  0.00    +0.000 A 
ATOM      8  C   UNL     1       2.240   4.855  19.991  0.00  0.00    +0.000 A 
ATOM      9  C   UNL     1       1.649   5.997  20.545  0.00  0.00    +0.000 A 
ATOM     10  C   UNL     1       1.706   7.249  19.885  0.00  0.00    +0.000 A 
BRANCH   8  11
ATOM     11  S   UNL     1       2.213   3.295  20.865  0.00  0.00    +0.000 S 
ATOM     12  C   UNL     1       3.721   2.503  20.356  0.00  0.00    +0.000 C 
ATOM     13  O   UNL     1       2.315   3.620  22.257  0.00  0.00    +0.000 OA
ATOM     14  O   UNL     1       1.111   2.532  20.330  0.00  0.00    +0.000 OA
ENDBRANCH   8  11
ENDBRANCH   1  10
BRANCH   1  15
ATOM     15  N   UNL     1       0.759  10.157  19.948  0.00  0.00    +0.000 NA
ATOM     16  C   UNL     1      -0.632  10.555  19.637  0.00  0.00    +0.000 C 
ATOM     17  C   UNL     1      -1.073  11.107  20.998  0.00  0.00    +0.000 C 
ATOM     18  C   UNL     1       0.220  11.704  21.604  0.00  0.00    +0.000 C 
ATOM     19  C   UNL     1       1.213  11.501  20.459  0.00  0.00    +0.000 C 
ATOM     20  C   UNL     1       0.718  12.510  19.372  0.00  0.00    +0.000 C 
ATOM     21  C   UNL     1      -0.448  11.771  18.705  0.00  0.00    +0.000 C 
BRANCH  20  22
ATOM     22  C   UNL     1       1.741  13.085  18.431  0.00  0.00    +0.000 C 
ATOM     23  O   UNL     1       1.958  14.291  18.349  0.00  0.00    +0.000 OA
BRANCH  22  24
ATOM     24  O   UNL     1       2.364  12.196  17.642  0.00  0.00    +0.000 OA
ATOM     25  H   UNL     1       2.933  12.601  16.960  0.00  0.00    +0.000 HD
ENDBRANCH  22  24
ENDBRANCH  20  22
ENDBRANCH   1  15
TORSDOF 5
ENDMDL
MODEL 6
REMARK VINA RESULT:      -6.5      2.859      3.643
REMARK  Name = 
REMARK  7 active torsions:
REMARK  status: ('A' for Active; 'I' for Inactive)
REMARK    1  A    between atoms: C_1  and  C_2
REMARK    2  A    between atoms: C_5  and  S_6
REMARK    3  A    between atoms: S_6  and  C_7
REMARK    4  A    between atoms: C_11  and  S_12
REMARK    5  A    between atoms: S_12  and  N_15
REMARK    6  A    between atoms: C_20  and  C_21
REMARK    7  A    between atoms: C_21  and  O_23
REMARK                            x       y       z     vdW  Elec       q    Type
REMARK                         _______ _______ _______ _____ _____    ______ ____
ROOT
ATOM      1  S   UNL     1       4.185   5.469  18.194  0.00  0.00    +0.000 S 
ATOM      2  O   UNL     1       4.298   4.152  18.820  0.00  0.00    +0.000 OA
ATOM      3  O   UNL     1       3.845   5.572  16.798  0.00  0.00    +0.000 OA
ENDROOT
BRANCH   1  10
ATOM      4  C   UNL     1       2.457   4.689  21.180  0.00  0.00    +0.000 C 
ATOM      5  C   UNL     1       2.221   5.931  20.348  0.00  0.00    +0.000 A 
ATOM      6  C   UNL     1       1.232   6.774  20.935  0.00  0.00    +0.000 A 
ATOM      7  C   UNL     1       0.895   8.006  20.401  0.00  0.00    +0.000 A 
ATOM      8  C   UNL     1       1.560   8.431  19.261  0.00  0.00    +0.000 A 
ATOM      9  C   UNL     1       2.495   7.615  18.612  0.00  0.00    +0.000 A 
ATOM     10  C   UNL     1       2.827   6.333  19.116  0.00  0.00    +0.000 A 
BRANCH   8  11
ATOM     11  S   UNL     1       1.197  10.071  18.647  0.00  0.00    +0.000 S 
ATOM     12  C   UNL     1       1.015  11.041  20.127  0.00  0.00    +0.000 C 
ATOM     13  O   UNL     1       2.375  10.506  17.958  0.00  0.00    +0.000 OA
ATOM     14  O   UNL     1      -0.092  10.003  18.003  0.00  0.00    +0.000 OA
ENDBRANCH   8  11
ENDBRANCH   1  10
BRANCH   1  15
ATOM     15  N   UNL     1       5.790   6.165  18.371  0.00  0.00    +0.000 NA
ATOM     16  C   UNL     1       6.885   5.251  18.764  0.00  0.00    +0.000 C 
ATOM     17  C   UNL     1       7.153   4.548  17.428  0.00  0.00    +0.000 C 
ATOM     18  C   UNL     1       6.836   5.623  16.362  0.00  0.00    +0.000 C 
ATOM     19  C   UNL     1       6.523   6.837  17.239  0.00  0.00    +0.000 C 
ATOM     20  C   UNL     1       7.914   7.205  17.850  0.00  0.00    +0.000 C 
ATOM     21  C   UNL     1       8.070   6.209  19.005  0.00  0.00    +0.000 C 
BRANCH  20  22
ATOM     22  C   UNL     1       8.166   8.646  18.201  0.00  0.00    +0.000 C 
ATOM     23  O   UNL     1       7.652   9.575  17.583  0.00  0.00    +0.000 OA
BRANCH  22  24
ATOM     24  O   UNL     1       9.039   8.854  19.199  0.00  0.00    +0.000 OA
ATOM     25  H   UNL     1       9.175   8.079  19.777  0.00  0.00    +0.000 HD
ENDBRANCH  22  24
ENDBRANCH  20  22
ENDBRANCH   1  15
TORSDOF 5
ENDMDL
MODEL 7
REMARK VINA RESULT:      -6.5      2.621      3.434
REMARK  Name = 
REMARK  7 active torsions:
REMARK  status: ('A' for Active; 'I' for Inactive)
REMARK    1  A    between atoms: C_1  and  C_2
REMARK    2  A    between atoms: C_5  and  S_6
REMARK    3  A    between atoms: S_6  and  C_7
REMARK    4  A    between atoms: C_11  and  S_12
REMARK    5  A    between atoms: S_12  and  N_15
REMARK    6  A    between atoms: C_20  and  C_21
REMARK    7  A    between atoms: C_21  and  O_23
REMARK                            x       y       z     vdW  Elec       q    Type
REMARK                         _______ _______ _______ _____ _____    ______ ____
ROOT
ATOM      1  S   UNL     1       3.202   4.262  17.845  0.00  0.00    +0.000 S 
ATOM      2  O   UNL     1       3.896   3.347  18.749  0.00  0.00    +0.000 OA
ATOM      3  O   UNL     1       2.155   3.766  16.987  0.00  0.00    +0.000 OA
ENDROOT
BRANCH   1  10
ATOM      4  C   UNL     1       2.438   4.278  21.298  0.00  0.00    +0.000 C 
ATOM      5  C   UNL     1       2.176   5.431  20.353  0.00  0.00    +0.000 A 
ATOM      6  C   UNL     1       1.609   6.548  21.033  0.00  0.00    +0.000 A 
ATOM      7  C   UNL     1       1.349   7.751  20.399  0.00  0.00    +0.000 A 
ATOM      8  C   UNL     1       1.669   7.865  19.055  0.00  0.00    +0.000 A 
ATOM      9  C   UNL     1       2.171   6.779  18.326  0.00  0.00    +0.000 A 
ATOM     10  C   UNL     1       2.407   5.526  18.943  0.00  0.00    +0.000 A 
BRANCH   8  11
ATOM     11  S   UNL     1       1.435   9.458  18.276  0.00  0.00    +0.000 S 
ATOM     12  C   UNL     1       1.244  10.572  19.649  0.00  0.00    +0.000 C 
ATOM     13  O   UNL     1       2.667   9.760  17.611  0.00  0.00    +0.000 OA
ATOM     14  O   UNL     1       0.174   9.402  17.575  0.00  0.00    +0.000 OA
ENDBRANCH   8  11
ENDBRANCH   1  10
BRANCH   1  15
ATOM     15  N   UNL     1       4.472   4.861  16.787  0.00  0.00    +0.000 NA
ATOM     16  C   UNL     1       4.921   6.256  16.990  0.00  0.00    +0.000 C 
ATOM     17  C   UNL     1       5.803   6.086  18.232  0.00  0.00    +0.000 C 
ATOM     18  C   UNL     1       6.394   4.663  18.087  0.00  0.00    +0.000 C 
ATOM     19  C   UNL     1       5.847   4.245  16.722  0.00  0.00    +0.000 C 
ATOM     20  C   UNL     1       6.629   5.161  15.725  0.00  0.00    +0.000 C 
ATOM     21  C   UNL     1       5.874   6.493  15.799  0.00  0.00    +0.000 C 
BRANCH  20  22
ATOM     22  C   UNL     1       6.878   4.635  14.339  0.00  0.00    +0.000 C 
ATOM     23  O   UNL     1       7.525   5.261  13.502  0.00  0.00    +0.000 OA
BRANCH  22  24
ATOM     24  O   UNL     1       6.298   3.460  14.053  0.00  0.00    +0.000 OA
ATOM     25  H   UNL     1       5.322   3.477  14.096  0.00  0.00    +0.000 HD
ENDBRANCH  22  24
ENDBRANCH  20  22
ENDBRANCH   1  15
TORSDOF 5
ENDMDL
MODEL 8
REMARK VINA RESULT:      -6.5      2.743      3.622
REMARK  Name = 
REMARK  7 active torsions:
REMARK  status: ('A' for Active; 'I' for Inactive)
REMARK    1  A    between atoms: C_1  and  C_2
REMARK    2  A    between atoms: C_5  and  S_6
REMARK    3  A    between atoms: S_6  and  C_7
REMARK    4  A    between atoms: C_11  and  S_12
REMARK    5  A    between atoms: S_12  and  N_15
REMARK    6  A    between atoms: C_20  and  C_21
REMARK    7  A    between atoms: C_21  and  O_23
REMARK                            x       y       z     vdW  Elec       q    Type
REMARK                         _______ _______ _______ _____ _____    ______ ____
ROOT
ATOM      1  S   UNL     1       3.427   4.392  18.157  0.00  0.00    +0.000 S 
ATOM      2  O   UNL     1       3.386   3.158  18.939  0.00  0.00    +0.000 OA
ATOM      3  O   UNL     1       2.885   4.412  16.821  0.00  0.00    +0.000 OA
ENDROOT
BRANCH   1  10
ATOM      4  C   UNL     1       2.224   4.388  21.483  0.00  0.00    +0.000 C 
ATOM      5  C   UNL     1       2.029   5.522  20.498  0.00  0.00    +0.000 A 
ATOM      6  C   UNL     1       1.325   6.612  21.087  0.00  0.00    +0.000 A 
ATOM      7  C   UNL     1       1.090   7.797  20.410  0.00  0.00    +0.000 A 
ATOM      8  C   UNL     1       1.575   7.920  19.117  0.00  0.00    +0.000 A 
ATOM      9  C   UNL     1       2.219   6.857  18.472  0.00  0.00    +0.000 A 
ATOM     10  C   UNL     1       2.435   5.621  19.129  0.00  0.00    +0.000 A 
BRANCH   8  11
ATOM     11  S   UNL     1       1.365   9.495  18.296  0.00  0.00    +0.000 S 
ATOM     12  C   UNL     1       1.222  10.652  19.639  0.00  0.00    +0.000 C 
ATOM     13  O   UNL     1       2.593   9.748  17.604  0.00  0.00    +0.000 OA
ATOM     14  O   UNL     1       0.093   9.449  17.617  0.00  0.00    +0.000 OA
ENDBRANCH   8  11
ENDBRANCH   1  10
BRANCH   1  15
ATOM     15  N   UNL     1       5.143   4.745  18.005  0.00  0.00    +0.000 NA
ATOM     16  C   UNL     1       5.834   4.240  16.799  0.00  0.00    +0.000 C 
ATOM     17  C   UNL     1       5.360   5.262  15.759  0.00  0.00    +0.000 C 
ATOM     18  C   UNL     1       5.192   6.573  16.563  0.00  0.00    +0.000 C 
ATOM     19  C   UNL     1       5.691   6.148  17.945  0.00  0.00    +0.000 C 
ATOM     20  C   UNL     1       7.226   5.949  17.726  0.00  0.00    +0.000 C 
ATOM     21  C   UNL     1       7.317   4.558  17.087  0.00  0.00    +0.000 C 
BRANCH  20  22
ATOM     22  C   UNL     1       8.138   6.182  18.899  0.00  0.00    +0.000 C 
ATOM     23  O   UNL     1       8.386   5.308  19.725  0.00  0.00    +0.000 OA
BRANCH  22  24
ATOM     24  O   UNL     1       8.619   7.428  19.018  0.00  0.00    +0.000 OA
ATOM     25  H   UNL     1       8.020   8.120  18.678  0.00  0.00    +0.000 HD
ENDBRANCH  22  24
ENDBRANCH  20  22
ENDBRANCH   1  15
TORSDOF 5
ENDMDL
MODEL 9
REMARK VINA RESULT:      -6.4      2.469      3.369
REMARK  Name = 
REMARK  7 active torsions:
REMARK  status: ('A' for Active; 'I' for Inactive)
REMARK    1  A    between atoms: C_1  and  C_2
REMARK    2  A    between atoms: C_5  and  S_6
REMARK    3  A    between atoms: S_6  and  C_7
REMARK    4  A    between atoms: C_11  and  S_12
REMARK    5  A    between atoms: S_12  and  N_15
REMARK    6  A    between atoms: C_20  and  C_21
REMARK    7  A    between atoms: C_21  and  O_23
REMARK                            x       y       z     vdW  Elec       q    Type
REMARK                         _______ _______ _______ _____ _____    ______ ____
ROOT
ATOM      1  S   UNL     1       3.137   4.347  17.866  0.00  0.00    +0.000 S 
ATOM      2  O   UNL     1       3.790   3.382  18.750  0.00  0.00    +0.000 OA
ATOM      3  O   UNL     1       2.094   3.911  16.974  0.00  0.00    +0.000 OA
ENDROOT
BRANCH   1  10
ATOM      4  C   UNL     1       2.300   4.258  21.302  0.00  0.00    +0.000 C 
ATOM      5  C   UNL     1       2.091   5.453  20.395  0.00  0.00    +0.000 A 
ATOM      6  C   UNL     1       1.543   6.560  21.106  0.00  0.00    +0.000 A 
ATOM      7  C   UNL     1       1.332   7.792  20.513  0.00  0.00    +0.000 A 
ATOM      8  C   UNL     1       1.684   7.947  19.180  0.00  0.00    +0.000 A 
ATOM      9  C   UNL     1       2.169   6.875  18.422  0.00  0.00    +0.000 A 
ATOM     10  C   UNL     1       2.356   5.593  18.996  0.00  0.00    +0.000 A 
BRANCH   8  11
ATOM     11  S   UNL     1       1.514   9.575  18.458  0.00  0.00    +0.000 S 
ATOM     12  C   UNL     1      -0.169   9.604  17.883  0.00  0.00    +0.000 C 
ATOM     13  O   UNL     1       1.643  10.504  19.540  0.00  0.00    +0.000 OA
ATOM     14  O   UNL     1       2.375   9.613  17.301  0.00  0.00    +0.000 OA
ENDBRANCH   8  11
ENDBRANCH   1  10
BRANCH   1  15
ATOM     15  N   UNL     1       4.442   4.948  16.853  0.00  0.00    +0.000 NA
ATOM     16  C   UNL     1       4.924   6.323  17.114  0.00  0.00    +0.000 C 
ATOM     17  C   UNL     1       5.779   6.084  18.365  0.00  0.00    +0.000 C 
ATOM     18  C   UNL     1       6.334   4.652  18.179  0.00  0.00    +0.000 C 
ATOM     19  C   UNL     1       5.800   4.297  16.790  0.00  0.00    +0.000 C 
ATOM     20  C   UNL     1       6.625   5.227  15.841  0.00  0.00    +0.000 C 
ATOM     21  C   UNL     1       5.905   6.576  15.950  0.00  0.00    +0.000 C 
BRANCH  20  22
ATOM     22  C   UNL     1       6.886   4.744  14.441  0.00  0.00    +0.000 C 
ATOM     23  O   UNL     1       6.310   3.772  13.960  0.00  0.00    +0.000 OA
BRANCH  22  24
ATOM     24  O   UNL     1       7.835   5.412  13.766  0.00  0.00    +0.000 OA
ATOM     25  H   UNL     1       7.489   6.111  13.180  0.00  0.00    +0.000 HD
ENDBRANCH  22  24
ENDBRANCH  20  22
ENDBRANCH   1  15
TORSDOF 5
ENDMDL
