MODEL 1
REMARK VINA RESULT:      -8.6      0.000      0.000
REMARK  Name = 
REMARK  5 active torsions:
REMARK  status: ('A' for Active; 'I' for Inactive)
REMARK    1  A    between atoms: C_1  and  C_2
REMARK    2  A    between atoms: C_2  and  N_3
REMARK    3  A    between atoms: C_2  and  C_19
REMARK    4  A    between atoms: C_4  and  C_6
REMARK    5  A    between atoms: C_12  and  C_13
REMARK                            x       y       z     vdW  Elec       q    Type
REMARK                         _______ _______ _______ _____ _____    ______ ____
ROOT
ATOM      1  N   UNL     1       3.927   5.710  17.133  0.00  0.00    +0.000 N 
ATOM      2  C   UNL     1       4.423   4.463  16.806  0.00  0.00    +0.000 C 
ATOM      3  O   UNL     1       4.095   3.451  17.413  0.00  0.00    +0.000 OA
ATOM      4  H   UNL     1       4.186   6.540  16.612  0.00  0.00    +0.000 HD
ENDROOT
BRANCH   2   5
ATOM      5  C   UNL     1       5.406   4.401  15.683  0.00  0.00    +0.000 A 
ATOM      6  C   UNL     1       4.982   3.713  14.528  0.00  0.00    +0.000 A 
ATOM      7  C   UNL     1       5.758   3.732  13.379  0.00  0.00    +0.000 A 
ATOM      8  F   UNL     1       5.331   3.094  12.282  0.00  0.00    +0.000 F 
ATOM      9  C   UNL     1       6.955   4.422  13.345  0.00  0.00    +0.000 A 
ATOM     10  C   UNL     1       7.401   5.078  14.495  0.00  0.00    +0.000 A 
ATOM     11  C   UNL     1       6.652   5.094  15.700  0.00  0.00    +0.000 A 
BRANCH  11  12
ATOM     12  C   UNL     1       7.222   5.811  16.881  0.00  0.00    +0.000 A 
ATOM     13  C   UNL     1       7.565   5.123  18.065  0.00  0.00    +0.000 A 
ATOM     14  C   UNL     1       8.105   5.780  19.177  0.00  0.00    +0.000 A 
ATOM     15  C   UNL     1       8.346   7.147  19.128  0.00  0.00    +0.000 A 
ATOM     16  C   UNL     1       8.007   7.860  17.983  0.00  0.00    +0.000 A 
ATOM     17  C   UNL     1       7.424   7.204  16.891  0.00  0.00    +0.000 A 
ENDBRANCH  11  12
ENDBRANCH   2   5
BRANCH   1  19
ATOM     18  C   UNL     1       1.746   4.955  17.944  0.00  0.00    +0.000 C 
ATOM     19  C   UNL     1       2.937   5.879  18.186  0.00  0.00    +0.000 C 
BRANCH  19  20
ATOM     20  C   UNL     1       2.494   7.304  18.210  0.00  0.00    +0.000 A 
ATOM     21  N   UNL     1       2.542   8.166  17.207  0.00  0.00    +0.000 NA
ATOM     22  N   UNL     1       1.972   9.346  17.626  0.00  0.00    +0.000 NA
ATOM     23  C   UNL     1       1.587   9.192  18.872  0.00  0.00    +0.000 A 
ATOM     24  C   UNL     1       0.927  10.053  19.795  0.00  0.00    +0.000 A 
ATOM     25  C   UNL     1       0.648   9.607  21.034  0.00  0.00    +0.000 A 
ATOM     26  C   UNL     1       1.010   8.266  21.463  0.00  0.00    +0.000 A 
ATOM     27  C   UNL     1       1.628   7.449  20.592  0.00  0.00    +0.000 A 
ATOM     28  N   UNL     1       1.909   7.912  19.305  0.00  0.00    +0.000 N 
ENDBRANCH  19  20
ENDBRANCH   1  19
TORSDOF 4
ENDMDL
MODEL 2
REMARK VINA RESULT:      -8.4      3.064      4.783
REMARK  Name = 
REMARK  5 active torsions:
REMARK  status: ('A' for Active; 'I' for Inactive)
REMARK    1  A    between atoms: C_1  and  C_2
REMARK    2  A    between atoms: C_2  and  N_3
REMARK    3  A    between atoms: C_2  and  C_19
REMARK    4  A    between atoms: C_4  and  C_6
REMARK    5  A    between atoms: C_12  and  C_13
REMARK                            x       y       z     vdW  Elec       q    Type
REMARK                         _______ _______ _______ _____ _____    ______ ____
ROOT
ATOM      1  N   UNL     1       2.232   6.845  19.537  0.00  0.00    +0.000 N 
ATOM      2  C   UNL     1       2.278   5.644  18.858  0.00  0.00    +0.000 C 
ATOM      3  O   UNL     1       1.818   5.514  17.730  0.00  0.00    +0.000 OA
ATOM      4  H   UNL     1       2.635   6.951  20.462  0.00  0.00    +0.000 HD
ENDROOT
BRANCH   2   5
ATOM      5  C   UNL     1       2.900   4.488  19.571  0.00  0.00    +0.000 A 
ATOM      6  C   UNL     1       2.126   3.903  20.595  0.00  0.00    +0.000 A 
ATOM      7  C   UNL     1       2.548   2.734  21.208  0.00  0.00    +0.000 A 
ATOM      8  F   UNL     1       1.791   2.178  22.161  0.00  0.00    +0.000 F 
ATOM      9  C   UNL     1       3.729   2.124  20.831  0.00  0.00    +0.000 A 
ATOM     10  C   UNL     1       4.520   2.713  19.842  0.00  0.00    +0.000 A 
ATOM     11  C   UNL     1       4.142   3.909  19.178  0.00  0.00    +0.000 A 
BRANCH  11  12
ATOM     12  C   UNL     1       5.066   4.470  18.145  0.00  0.00    +0.000 A 
ATOM     13  C   UNL     1       6.061   5.412  18.483  0.00  0.00    +0.000 A 
ATOM     14  C   UNL     1       6.937   5.942  17.526  0.00  0.00    +0.000 A 
ATOM     15  C   UNL     1       6.861   5.522  16.205  0.00  0.00    +0.000 A 
ATOM     16  C   UNL     1       5.883   4.607  15.834  0.00  0.00    +0.000 A 
ATOM     17  C   UNL     1       4.980   4.115  16.786  0.00  0.00    +0.000 A 
ENDBRANCH  11  12
ENDBRANCH   2   5
BRANCH   1  19
ATOM     18  C   UNL     1       2.743   8.732  18.066  0.00  0.00    +0.000 C 
ATOM     19  C   UNL     1       1.682   8.043  18.921  0.00  0.00    +0.000 C 
BRANCH  19  20
ATOM     20  C   UNL     1       1.202   8.962  19.994  0.00  0.00    +0.000 A 
ATOM     21  N   UNL     1       1.608   8.993  21.253  0.00  0.00    +0.000 NA
ATOM     22  N   UNL     1       0.967  10.032  21.888  0.00  0.00    +0.000 NA
ATOM     23  C   UNL     1       0.181  10.618  21.015  0.00  0.00    +0.000 A 
ATOM     24  C   UNL     1      -0.689  11.743  21.098  0.00  0.00    +0.000 A 
ATOM     25  C   UNL     1      -1.382  12.127  20.010  0.00  0.00    +0.000 A 
ATOM     26  C   UNL     1      -1.272  11.419  18.745  0.00  0.00    +0.000 A 
ATOM     27  C   UNL     1      -0.447  10.361  18.662  0.00  0.00    +0.000 A 
ATOM     28  N   UNL     1       0.276   9.969  19.791  0.00  0.00    +0.000 N 
ENDBRANCH  19  20
ENDBRANCH   1  19
TORSDOF 4
ENDMDL
MODEL 3
REMARK VINA RESULT:      -8.2      2.703      4.957
REMARK  Name = 
REMARK  5 active torsions:
REMARK  status: ('A' for Active; 'I' for Inactive)
REMARK    1  A    between atoms: C_1  and  C_2
REMARK    2  A    between atoms: C_2  and  N_3
REMARK    3  A    between atoms: C_2  and  C_19
REMARK    4  A    between atoms: C_4  and  C_6
REMARK    5  A    between atoms: C_12  and  C_13
REMARK                            x       y       z     vdW  Elec       q    Type
REMARK                         _______ _______ _______ _____ _____    ______ ____
ROOT
ATOM      1  N   UNL     1       2.686   8.189  18.678  0.00  0.00    +0.000 N 
ATOM      2  C   UNL     1       2.697   6.950  18.071  0.00  0.00    +0.000 C 
ATOM      3  O   UNL     1       1.689   6.453  17.583  0.00  0.00    +0.000 OA
ATOM      4  H   UNL     1       3.530   8.604  19.059  0.00  0.00    +0.000 HD
ENDROOT
BRANCH   2   5
ATOM      5  C   UNL     1       4.000   6.218  18.051  0.00  0.00    +0.000 A 
ATOM      6  C   UNL     1       5.070   6.876  17.411  0.00  0.00    +0.000 A 
ATOM      7  C   UNL     1       6.351   6.351  17.475  0.00  0.00    +0.000 A 
ATOM      8  F   UNL     1       7.361   7.000  16.883  0.00  0.00    +0.000 F 
ATOM      9  C   UNL     1       6.602   5.179  18.162  0.00  0.00    +0.000 A 
ATOM     10  C   UNL     1       5.543   4.500  18.771  0.00  0.00    +0.000 A 
ATOM     11  C   UNL     1       4.210   4.987  18.739  0.00  0.00    +0.000 A 
BRANCH  11  12
ATOM     12  C   UNL     1       3.143   4.179  19.407  0.00  0.00    +0.000 A 
ATOM     13  C   UNL     1       2.432   3.181  18.708  0.00  0.00    +0.000 A 
ATOM     14  C   UNL     1       1.434   2.413  19.321  0.00  0.00    +0.000 A 
ATOM     15  C   UNL     1       1.137   2.602  20.665  0.00  0.00    +0.000 A 
ATOM     16  C   UNL     1       1.809   3.587  21.380  0.00  0.00    +0.000 A 
ATOM     17  C   UNL     1       2.773   4.384  20.749  0.00  0.00    +0.000 A 
ENDBRANCH  11  12
ENDBRANCH   2   5
BRANCH   1  19
ATOM     18  C   UNL     1       1.743  10.368  18.088  0.00  0.00    +0.000 C 
ATOM     19  C   UNL     1       1.481   9.003  18.720  0.00  0.00    +0.000 C 
BRANCH  19  20
ATOM     20  C   UNL     1       1.052   9.161  20.140  0.00  0.00    +0.000 A 
ATOM     21  N   UNL     1       1.506   8.488  21.186  0.00  0.00    +0.000 NA
ATOM     22  N   UNL     1       0.901   8.987  22.316  0.00  0.00    +0.000 NA
ATOM     23  C   UNL     1       0.089   9.952  21.949  0.00  0.00    +0.000 A 
ATOM     24  C   UNL     1      -0.765  10.828  22.679  0.00  0.00    +0.000 A 
ATOM     25  C   UNL     1      -1.494  11.746  22.017  0.00  0.00    +0.000 A 
ATOM     26  C   UNL     1      -1.440  11.866  20.569  0.00  0.00    +0.000 A 
ATOM     27  C   UNL     1      -0.631  11.044  19.879  0.00  0.00    +0.000 A 
ATOM     28  N   UNL     1       0.130  10.098  20.568  0.00  0.00    +0.000 N 
ENDBRANCH  19  20
ENDBRANCH   1  19
TORSDOF 4
ENDMDL
MODEL 4
REMARK VINA RESULT:      -8.0      2.228      3.557
REMARK  Name = 
REMARK  5 active torsions:
REMARK  status: ('A' for Active; 'I' for Inactive)
REMARK    1  A    between atoms: C_1  and  C_2
REMARK    2  A    between atoms: C_2  and  N_3
REMARK    3  A    between atoms: C_2  and  C_19
REMARK    4  A    between atoms: C_4  and  C_6
REMARK    5  A    between atoms: C_12  and  C_13
REMARK                            x       y       z     vdW  Elec       q    Type
REMARK                         _______ _______ _______ _____ _____    ______ ____
ROOT
ATOM      1  N   UNL     1       4.325   5.346  16.774  0.00  0.00    +0.000 N 
ATOM      2  C   UNL     1       4.514   4.212  16.011  0.00  0.00    +0.000 C 
ATOM      3  O   UNL     1       3.851   3.195  16.177  0.00  0.00    +0.000 OA
ATOM      4  H   UNL     1       4.862   6.192  16.616  0.00  0.00    +0.000 HD
ENDROOT
BRANCH   2   5
ATOM      5  C   UNL     1       5.590   4.266  14.975  0.00  0.00    +0.000 A 
ATOM      6  C   UNL     1       5.279   3.684  13.729  0.00  0.00    +0.000 A 
ATOM      7  C   UNL     1       6.150   3.820  12.659  0.00  0.00    +0.000 A 
ATOM      8  F   UNL     1       5.830   3.282  11.475  0.00  0.00    +0.000 F 
ATOM      9  C   UNL     1       7.331   4.524  12.792  0.00  0.00    +0.000 A 
ATOM     10  C   UNL     1       7.665   5.075  14.032  0.00  0.00    +0.000 A 
ATOM     11  C   UNL     1       6.816   4.969  15.164  0.00  0.00    +0.000 A 
BRANCH  11  12
ATOM     12  C   UNL     1       7.270   5.580  16.451  0.00  0.00    +0.000 A 
ATOM     13  C   UNL     1       7.346   6.980  16.614  0.00  0.00    +0.000 A 
ATOM     14  C   UNL     1       7.764   7.566  17.816  0.00  0.00    +0.000 A 
ATOM     15  C   UNL     1       8.093   6.767  18.903  0.00  0.00    +0.000 A 
ATOM     16  C   UNL     1       8.043   5.384  18.773  0.00  0.00    +0.000 A 
ATOM     17  C   UNL     1       7.669   4.802  17.554  0.00  0.00    +0.000 A 
ENDBRANCH  11  12
ENDBRANCH   2   5
BRANCH   1  19
ATOM     18  C   UNL     1       3.173   6.834  18.338  0.00  0.00    +0.000 C 
ATOM     19  C   UNL     1       3.280   5.415  17.785  0.00  0.00    +0.000 C 
BRANCH  19  20
ATOM     20  C   UNL     1       3.601   4.452  18.879  0.00  0.00    +0.000 A 
ATOM     21  N   UNL     1       4.806   4.070  19.272  0.00  0.00    +0.000 NA
ATOM     22  N   UNL     1       4.661   3.231  20.352  0.00  0.00    +0.000 NA
ATOM     23  C   UNL     1       3.378   3.111  20.604  0.00  0.00    +0.000 A 
ATOM     24  C   UNL     1       2.650   2.401  21.602  0.00  0.00    +0.000 A 
ATOM     25  C   UNL     1       1.305   2.471  21.617  0.00  0.00    +0.000 A 
ATOM     26  C   UNL     1       0.570   3.248  20.633  0.00  0.00    +0.000 A 
ATOM     27  C   UNL     1       1.255   3.923  19.694  0.00  0.00    +0.000 A 
ATOM     28  N   UNL     1       2.650   3.856  19.685  0.00  0.00    +0.000 N 
ENDBRANCH  19  20
ENDBRANCH   1  19
TORSDOF 4
ENDMDL
MODEL 5
REMARK VINA RESULT:      -7.9      2.946      4.633
REMARK  Name = 
REMARK  5 active torsions:
REMARK  status: ('A' for Active; 'I' for Inactive)
REMARK    1  A    between atoms: C_1  and  C_2
REMARK    2  A    between atoms: C_2  and  N_3
REMARK    3  A    between atoms: C_2  and  C_19
REMARK    4  A    between atoms: C_4  and  C_6
REMARK    5  A    between atoms: C_12  and  C_13
REMARK                            x       y       z     vdW  Elec       q    Type
REMARK                         _______ _______ _______ _____ _____    ______ ____
ROOT
ATOM      1  N   UNL     1       2.406   6.858  18.950  0.00  0.00    +0.000 N 
ATOM      2  C   UNL     1       2.122   5.544  18.637  0.00  0.00    +0.000 C 
ATOM      3  O   UNL     1       1.549   5.229  17.601  0.00  0.00    +0.000 OA
ATOM      4  H   UNL     1       2.901   7.109  19.799  0.00  0.00    +0.000 HD
ENDROOT
BRANCH   2   5
ATOM      5  C   UNL     1       2.528   4.509  19.635  0.00  0.00    +0.000 A 
ATOM      6  C   UNL     1       1.530   4.102  20.544  0.00  0.00    +0.000 A 
ATOM      7  C   UNL     1       1.761   3.040  21.405  0.00  0.00    +0.000 A 
ATOM      8  F   UNL     1       0.795   2.649  22.246  0.00  0.00    +0.000 F 
ATOM      9  C   UNL     1       2.966   2.365  21.390  0.00  0.00    +0.000 A 
ATOM     10  C   UNL     1       3.975   2.783  20.517  0.00  0.00    +0.000 A 
ATOM     11  C   UNL     1       3.798   3.863  19.613  0.00  0.00    +0.000 A 
BRANCH  11  12
ATOM     12  C   UNL     1       4.944   4.244  18.731  0.00  0.00    +0.000 A 
ATOM     13  C   UNL     1       6.037   4.987  19.225  0.00  0.00    +0.000 A 
ATOM     14  C   UNL     1       7.119   5.346  18.412  0.00  0.00    +0.000 A 
ATOM     15  C   UNL     1       7.153   4.947  17.082  0.00  0.00    +0.000 A 
ATOM     16  C   UNL     1       6.086   4.227  16.558  0.00  0.00    +0.000 A 
ATOM     17  C   UNL     1       4.985   3.910  17.364  0.00  0.00    +0.000 A 
ENDBRANCH  11  12
ENDBRANCH   2   5
BRANCH   1  19
ATOM     18  C   UNL     1       3.305   8.278  17.172  0.00  0.00    +0.000 C 
ATOM     19  C   UNL     1       2.088   7.942  18.032  0.00  0.00    +0.000 C 
BRANCH  19  20
ATOM     20  C   UNL     1       1.661   9.135  18.819  0.00  0.00    +0.000 A 
ATOM     21  N   UNL     1       1.709  10.400  18.432  0.00  0.00    +0.000 NA
ATOM     22  N   UNL     1       1.156  11.175  19.424  0.00  0.00    +0.000 NA
ATOM     23  C   UNL     1       0.781  10.380  20.400  0.00  0.00    +0.000 A 
ATOM     24  C   UNL     1       0.140  10.618  21.650  0.00  0.00    +0.000 A 
ATOM     25  C   UNL     1      -0.132   9.580  22.463  0.00  0.00    +0.000 A 
ATOM     26  C   UNL     1       0.219   8.215  22.103  0.00  0.00    +0.000 A 
ATOM     27  C   UNL     1       0.820   7.988  20.922  0.00  0.00    +0.000 A 
ATOM     28  N   UNL     1       1.094   9.066  20.077  0.00  0.00    +0.000 N 
ENDBRANCH  19  20
ENDBRANCH   1  19
TORSDOF 4
ENDMDL
MODEL 6
REMARK VINA RESULT:      -7.9      2.834      7.344
REMARK  Name = 
REMARK  5 active torsions:
REMARK  status: ('A' for Active; 'I' for Inactive)
REMARK    1  A    between atoms: C_1  and  C_2
REMARK    2  A    between atoms: C_2  and  N_3
REMARK    3  A    between atoms: C_2  and  C_19
REMARK    4  A    between atoms: C_4  and  C_6
REMARK    5  A    between atoms: C_12  and  C_13
REMARK                            x       y       z     vdW  Elec       q    Type
REMARK                         _______ _______ _______ _____ _____    ______ ____
ROOT
ATOM      1  N   UNL     1       5.488   5.603  17.570  0.00  0.00    +0.000 N 
ATOM      2  C   UNL     1       4.124   5.397  17.577  0.00  0.00    +0.000 C 
ATOM      3  O   UNL     1       3.616   4.371  17.140  0.00  0.00    +0.000 OA
ATOM      4  H   UNL     1       5.902   6.446  17.954  0.00  0.00    +0.000 HD
ENDROOT
BRANCH   2   5
ATOM      5  C   UNL     1       3.276   6.499  18.126  0.00  0.00    +0.000 A 
ATOM      6  C   UNL     1       3.459   7.769  17.542  0.00  0.00    +0.000 A 
ATOM      7  C   UNL     1       2.615   8.817  17.873  0.00  0.00    +0.000 A 
ATOM      8  F   UNL     1       2.785  10.012  17.292  0.00  0.00    +0.000 F 
ATOM      9  C   UNL     1       1.585   8.639  18.777  0.00  0.00    +0.000 A 
ATOM     10  C   UNL     1       1.417   7.393  19.388  0.00  0.00    +0.000 A 
ATOM     11  C   UNL     1       2.249   6.282  19.090  0.00  0.00    +0.000 A 
BRANCH  11  12
ATOM     12  C   UNL     1       1.998   4.996  19.809  0.00  0.00    +0.000 A 
ATOM     13  C   UNL     1       1.214   3.973  19.234  0.00  0.00    +0.000 A 
ATOM     14  C   UNL     1       0.975   2.760  19.893  0.00  0.00    +0.000 A 
ATOM     15  C   UNL     1       1.540   2.523  21.140  0.00  0.00    +0.000 A 
ATOM     16  C   UNL     1       2.306   3.514  21.742  0.00  0.00    +0.000 A 
ATOM     17  C   UNL     1       2.503   4.742  21.098  0.00  0.00    +0.000 A 
ENDBRANCH  11  12
ENDBRANCH   2   5
BRANCH   1  19
ATOM     18  C   UNL     1       7.562   4.409  18.077  0.00  0.00    +0.000 C 
ATOM     19  C   UNL     1       6.407   4.581  17.093  0.00  0.00    +0.000 C 
BRANCH  19  20
ATOM     20  C   UNL     1       6.923   4.981  15.751  0.00  0.00    +0.000 A 
ATOM     21  N   UNL     1       7.869   5.871  15.498  0.00  0.00    +0.000 NA
ATOM     22  N   UNL     1       8.092   5.889  14.140  0.00  0.00    +0.000 NA
ATOM     23  C   UNL     1       7.284   5.016  13.585  0.00  0.00    +0.000 A 
ATOM     24  C   UNL     1       7.091   4.596  12.237  0.00  0.00    +0.000 A 
ATOM     25  C   UNL     1       6.170   3.654  11.961  0.00  0.00    +0.000 A 
ATOM     26  C   UNL     1       5.355   3.053  13.006  0.00  0.00    +0.000 A 
ATOM     27  C   UNL     1       5.539   3.444  14.279  0.00  0.00    +0.000 A 
ATOM     28  N   UNL     1       6.500   4.416  14.563  0.00  0.00    +0.000 N 
ENDBRANCH  19  20
ENDBRANCH   1  19
TORSDOF 4
ENDMDL
MODEL 7
REMARK VINA RESULT:      -7.9      2.043      3.215
REMARK  Name = 
REMARK  5 active torsions:
REMARK  status: ('A' for Active; 'I' for Inactive)
REMARK    1  A    between atoms: C_1  and  C_2
REMARK    2  A    between atoms: C_2  and  N_3
REMARK    3  A    between atoms: C_2  and  C_19
REMARK    4  A    between atoms: C_4  and  C_6
REMARK    5  A    between atoms: C_12  and  C_13
REMARK                            x       y       z     vdW  Elec       q    Type
REMARK                         _______ _______ _______ _____ _____    ______ ____
ROOT
ATOM      1  N   UNL     1       4.130   5.681  16.730  0.00  0.00    +0.000 N 
ATOM      2  C   UNL     1       4.402   4.445  16.178  0.00  0.00    +0.000 C 
ATOM      3  O   UNL     1       3.804   3.431  16.519  0.00  0.00    +0.000 OA
ATOM      4  H   UNL     1       4.614   6.519  16.425  0.00  0.00    +0.000 HD
ENDROOT
BRANCH   2   5
ATOM      5  C   UNL     1       5.484   4.388  15.149  0.00  0.00    +0.000 A 
ATOM      6  C   UNL     1       5.143   3.776  13.925  0.00  0.00    +0.000 A 
ATOM      7  C   UNL     1       6.026   3.811  12.857  0.00  0.00    +0.000 A 
ATOM      8  F   UNL     1       5.678   3.247  11.694  0.00  0.00    +0.000 F 
ATOM      9  C   UNL     1       7.249   4.443  12.971  0.00  0.00    +0.000 A 
ATOM     10  C   UNL     1       7.611   5.023  14.189  0.00  0.00    +0.000 A 
ATOM     11  C   UNL     1       6.752   5.018  15.319  0.00  0.00    +0.000 A 
BRANCH  11  12
ATOM     12  C   UNL     1       7.237   5.650  16.583  0.00  0.00    +0.000 A 
ATOM     13  C   UNL     1       7.585   4.872  17.708  0.00  0.00    +0.000 A 
ATOM     14  C   UNL     1       8.047   5.450  18.897  0.00  0.00    +0.000 A 
ATOM     15  C   UNL     1       8.202   6.828  18.987  0.00  0.00    +0.000 A 
ATOM     16  C   UNL     1       7.855   7.626  17.903  0.00  0.00    +0.000 A 
ATOM     17  C   UNL     1       7.350   7.045  16.733  0.00  0.00    +0.000 A 
ENDBRANCH  11  12
ENDBRANCH   2   5
BRANCH   1  19
ATOM     18  C   UNL     1       2.925   7.333  18.073  0.00  0.00    +0.000 C 
ATOM     19  C   UNL     1       3.071   5.856  17.712  0.00  0.00    +0.000 C 
BRANCH  19  20
ATOM     20  C   UNL     1       3.399   5.054  18.927  0.00  0.00    +0.000 A 
ATOM     21  N   UNL     1       4.547   5.045  19.586  0.00  0.00    +0.000 NA
ATOM     22  N   UNL     1       4.409   4.226  20.682  0.00  0.00    +0.000 NA
ATOM     23  C   UNL     1       3.186   3.746  20.679  0.00  0.00    +0.000 A 
ATOM     24  C   UNL     1       2.484   2.880  21.566  0.00  0.00    +0.000 A 
ATOM     25  C   UNL     1       1.204   2.559  21.303  0.00  0.00    +0.000 A 
ATOM     26  C   UNL     1       0.515   3.067  20.128  0.00  0.00    +0.000 A 
ATOM     27  C   UNL     1       1.173   3.888  19.292  0.00  0.00    +0.000 A 
ATOM     28  N   UNL     1       2.499   4.227  19.572  0.00  0.00    +0.000 N 
ENDBRANCH  19  20
ENDBRANCH   1  19
TORSDOF 4
ENDMDL
MODEL 8
REMARK VINA RESULT:      -7.9      2.766      4.990
REMARK  Name = 
REMARK  5 active torsions:
REMARK  status: ('A' for Active; 'I' for Inactive)
REMARK    1  A    between atoms: C_1  and  C_2
REMARK    2  A    between atoms: C_2  and  N_3
REMARK    3  A    between atoms: C_2  and  C_19
REMARK    4  A    between atoms: C_4  and  C_6
REMARK    5  A    between atoms: C_12  and  C_13
REMARK                            x       y       z     vdW  Elec       q    Type
REMARK                         _______ _______ _______ _____ _____    ______ ____
ROOT
ATOM      1  N   UNL     1       1.757   8.543  17.934  0.00  0.00    +0.000 N 
ATOM      2  C   UNL     1       2.408   7.550  18.639  0.00  0.00    +0.000 C 
ATOM      3  O   UNL     1       2.305   7.438  19.855  0.00  0.00    +0.000 OA
ATOM      4  H   UNL     1       1.829   8.616  16.925  0.00  0.00    +0.000 HD
ENDROOT
BRANCH   2   5
ATOM      5  C   UNL     1       3.272   6.619  17.852  0.00  0.00    +0.000 A 
ATOM      6  C   UNL     1       4.059   7.210  16.843  0.00  0.00    +0.000 A 
ATOM      7  C   UNL     1       5.005   6.456  16.165  0.00  0.00    +0.000 A 
ATOM      8  F   UNL     1       5.762   7.037  15.225  0.00  0.00    +0.000 F 
ATOM      9  C   UNL     1       5.192   5.120  16.463  0.00  0.00    +0.000 A 
ATOM     10  C   UNL     1       4.394   4.517  17.438  0.00  0.00    +0.000 A 
ATOM     11  C   UNL     1       3.409   5.235  18.165  0.00  0.00    +0.000 A 
BRANCH  11  12
ATOM     12  C   UNL     1       2.594   4.495  19.177  0.00  0.00    +0.000 A 
ATOM     13  C   UNL     1       1.414   3.811  18.812  0.00  0.00    +0.000 A 
ATOM     14  C   UNL     1       0.643   3.109  19.748  0.00  0.00    +0.000 A 
ATOM     15  C   UNL     1       1.047   3.047  21.076  0.00  0.00    +0.000 A 
ATOM     16  C   UNL     1       2.196   3.721  21.472  0.00  0.00    +0.000 A 
ATOM     17  C   UNL     1       2.937   4.460  20.541  0.00  0.00    +0.000 A 
ENDBRANCH  11  12
ENDBRANCH   2   5
BRANCH   1  19
ATOM     18  C   UNL     1      -0.453   9.588  17.826  0.00  0.00    +0.000 C 
ATOM     19  C   UNL     1       0.862   9.480  18.596  0.00  0.00    +0.000 C 
BRANCH  19  20
ATOM     20  C   UNL     1       1.528  10.812  18.677  0.00  0.00    +0.000 A 
ATOM     21  N   UNL     1       2.438  11.296  17.846  0.00  0.00    +0.000 NA
ATOM     22  N   UNL     1       2.739  12.581  18.237  0.00  0.00    +0.000 NA
ATOM     23  C   UNL     1       2.014  12.864  19.295  0.00  0.00    +0.000 A 
ATOM     24  C   UNL     1       1.891  14.033  20.099  0.00  0.00    +0.000 A 
ATOM     25  C   UNL     1       1.042  14.033  21.144  0.00  0.00    +0.000 A 
ATOM     26  C   UNL     1       0.247  12.863  21.481  0.00  0.00    +0.000 A 
ATOM     27  C   UNL     1       0.357  11.760  20.721  0.00  0.00    +0.000 A 
ATOM     28  N   UNL     1       1.233  11.766  19.633  0.00  0.00    +0.000 N 
ENDBRANCH  19  20
ENDBRANCH   1  19
TORSDOF 4
ENDMDL
MODEL 9
REMARK VINA RESULT:      -7.8      2.083      3.555
REMARK  Name = 
REMARK  5 active torsions:
REMARK  status: ('A' for Active; 'I' for Inactive)
REMARK    1  A    between atoms: C_1  and  C_2
REMARK    2  A    between atoms: C_2  and  N_3
REMARK    3  A    between atoms: C_2  and  C_19
REMARK    4  A    between atoms: C_4  and  C_6
REMARK    5  A    between atoms: C_12  and  C_13
REMARK                            x       y       z     vdW  Elec       q    Type
REMARK                         _______ _______ _______ _____ _____    ______ ____
ROOT
ATOM      1  N   UNL     1       3.372   6.162  18.258  0.00  0.00    +0.000 N 
ATOM      2  C   UNL     1       4.658   6.260  17.765  0.00  0.00    +0.000 C 
ATOM      3  O   UNL     1       5.457   7.087  18.187  0.00  0.00    +0.000 OA
ATOM      4  H   UNL     1       2.723   5.460  17.919  0.00  0.00    +0.000 HD
ENDROOT
BRANCH   2   5
ATOM      5  C   UNL     1       5.033   5.321  16.665  0.00  0.00    +0.000 A 
ATOM      6  C   UNL     1       5.868   5.848  15.659  0.00  0.00    +0.000 A 
ATOM      7  C   UNL     1       6.395   5.017  14.683  0.00  0.00    +0.000 A 
ATOM      8  F   UNL     1       7.205   5.527  13.747  0.00  0.00    +0.000 F 
ATOM      9  C   UNL     1       6.114   3.664  14.678  0.00  0.00    +0.000 A 
ATOM     10  C   UNL     1       5.261   3.137  15.650  0.00  0.00    +0.000 A 
ATOM     11  C   UNL     1       4.690   3.937  16.674  0.00  0.00    +0.000 A 
BRANCH  11  12
ATOM     12  C   UNL     1       3.775   3.282  17.660  0.00  0.00    +0.000 A 
ATOM     13  C   UNL     1       4.227   2.903  18.942  0.00  0.00    +0.000 A 
ATOM     14  C   UNL     1       3.381   2.294  19.877  0.00  0.00    +0.000 A 
ATOM     15  C   UNL     1       2.045   2.071  19.566  0.00  0.00    +0.000 A 
ATOM     16  C   UNL     1       1.571   2.418  18.307  0.00  0.00    +0.000 A 
ATOM     17  C   UNL     1       2.433   2.985  17.359  0.00  0.00    +0.000 A 
ENDBRANCH  11  12
ENDBRANCH   2   5
BRANCH   1  19
ATOM     18  C   UNL     1       1.987   6.212  20.274  0.00  0.00    +0.000 C 
ATOM     19  C   UNL     1       2.914   7.003  19.354  0.00  0.00    +0.000 C 
BRANCH  19  20
ATOM     20  C   UNL     1       2.202   8.187  18.791  0.00  0.00    +0.000 A 
ATOM     21  N   UNL     1       2.238   8.613  17.538  0.00  0.00    +0.000 NA
ATOM     22  N   UNL     1       1.389   9.689  17.424  0.00  0.00    +0.000 NA
ATOM     23  C   UNL     1       0.848   9.906  18.601  0.00  0.00    +0.000 A 
ATOM     24  C   UNL     1      -0.106  10.855  19.067  0.00  0.00    +0.000 A 
ATOM     25  C   UNL     1      -0.487  10.834  20.358  0.00  0.00    +0.000 A 
ATOM     26  C   UNL     1       0.059   9.868  21.299  0.00  0.00    +0.000 A 
ATOM     27  C   UNL     1       0.956   8.968  20.860  0.00  0.00    +0.000 A 
ATOM     28  N   UNL     1       1.342   8.988  19.518  0.00  0.00    +0.000 N 
ENDBRANCH  19  20
ENDBRANCH   1  19
TORSDOF 4
ENDMDL
