MODEL 1
REMARK VINA RESULT:      -8.2      0.000      0.000
REMARK  Name = 
REMARK  5 active torsions:
REMARK  status: ('A' for Active; 'I' for Inactive)
REMARK    1  A    between atoms: C_2  and  C_16
REMARK    2  A    between atoms: N_3  and  C_4
REMARK    3  A    between atoms: C_8  and  N_9
REMARK    4  A    between atoms: C_10  and  C_12
REMARK    5  A    between atoms: C_21  and  C_22
REMARK                            x       y       z     vdW  Elec       q    Type
REMARK                         _______ _______ _______ _____ _____    ______ ____
ROOT
ATOM      1  O   UNL     1       5.413   3.746  19.159  0.00  0.00    +0.000 OA
ATOM      2  C   UNL     1       4.370   3.930  18.547  0.00  0.00    +0.000 C 
ATOM      3  N   UNL     1       4.209   4.306  17.222  0.00  0.00    +0.000 N 
ATOM      4  H   UNL     1       3.264   4.441  16.888  0.00  0.00    +0.000 HD
ENDROOT
BRANCH   3   5
ATOM      5  C   UNL     1       5.242   4.594  16.294  0.00  0.00    +0.000 A 
ATOM      6  C   UNL     1       6.108   5.676  16.441  0.00  0.00    +0.000 A 
ATOM      7  C   UNL     1       7.077   5.943  15.475  0.00  0.00    +0.000 A 
ATOM      8  C   UNL     1       7.199   5.120  14.357  0.00  0.00    +0.000 A 
ATOM      9  C   UNL     1       6.367   4.010  14.195  0.00  0.00    +0.000 A 
ATOM     10  C   UNL     1       5.390   3.753  15.174  0.00  0.00    +0.000 A 
BRANCH   9  11
ATOM     11  N   UNL     1       6.468   3.125  13.099  0.00  0.00    +0.000 N 
ATOM     12  C   UNL     1       5.545   2.955  12.074  0.00  0.00    +0.000 C 
ATOM     13  O   UNL     1       4.465   3.516  11.967  0.00  0.00    +0.000 OA
ATOM     14  H   UNL     1       7.306   2.567  13.047  0.00  0.00    +0.000 HD
BRANCH  12  15
ATOM     15  C   UNL     1       5.916   1.988  10.998  0.00  0.00    +0.000 C 
ATOM     16  C   UNL     1       6.084   0.512  11.260  0.00  0.00    +0.000 C 
ATOM     17  C   UNL     1       7.274   1.345  10.871  0.00  0.00    +0.000 C 
ENDBRANCH  12  15
ENDBRANCH   9  11
ENDBRANCH   3   5
BRANCH   2  18
ATOM     18  C   UNL     1       3.110   3.697  19.296  0.00  0.00    +0.000 A 
ATOM     19  C   UNL     1       2.769   2.368  19.606  0.00  0.00    +0.000 A 
ATOM     20  C   UNL     1       1.663   2.090  20.410  0.00  0.00    +0.000 A 
ATOM     21  C   UNL     1       0.911   3.134  20.937  0.00  0.00    +0.000 A 
ATOM     22  C   UNL     1       1.244   4.454  20.633  0.00  0.00    +0.000 A 
ATOM     23  C   UNL     1       2.332   4.760  19.788  0.00  0.00    +0.000 A 
BRANCH  23  24
ATOM     24  C   UNL     1       2.560   6.215  19.455  0.00  0.00    +0.000 C 
ATOM     25  F   UNL     1       3.848   6.632  19.385  0.00  0.00    +0.000 F 
ATOM     26  F   UNL     1       2.047   6.504  18.217  0.00  0.00    +0.000 F 
ATOM     27  F   UNL     1       1.913   7.058  20.307  0.00  0.00    +0.000 F 
ENDBRANCH  23  24
ENDBRANCH   2  18
TORSDOF 5
ENDMDL
MODEL 2
REMARK VINA RESULT:      -8.0      1.956      2.432
REMARK  Name = 
REMARK  5 active torsions:
REMARK  status: ('A' for Active; 'I' for Inactive)
REMARK    1  A    between atoms: C_2  and  C_16
REMARK    2  A    between atoms: N_3  and  C_4
REMARK    3  A    between atoms: C_8  and  N_9
REMARK    4  A    between atoms: C_10  and  C_12
REMARK    5  A    between atoms: C_21  and  C_22
REMARK                            x       y       z     vdW  Elec       q    Type
REMARK                         _______ _______ _______ _____ _____    ______ ____
ROOT
ATOM      1  O   UNL     1       5.601   4.032  19.103  0.00  0.00    +0.000 OA
ATOM      2  C   UNL     1       4.574   4.341  18.515  0.00  0.00    +0.000 C 
ATOM      3  N   UNL     1       4.426   4.703  17.184  0.00  0.00    +0.000 N 
ATOM      4  H   UNL     1       3.498   4.956  16.871  0.00  0.00    +0.000 HD
ENDROOT
BRANCH   3   5
ATOM      5  C   UNL     1       5.460   4.827  16.222  0.00  0.00    +0.000 A 
ATOM      6  C   UNL     1       6.444   5.811  16.294  0.00  0.00    +0.000 A 
ATOM      7  C   UNL     1       7.412   5.918  15.296  0.00  0.00    +0.000 A 
ATOM      8  C   UNL     1       7.412   5.033  14.220  0.00  0.00    +0.000 A 
ATOM      9  C   UNL     1       6.459   4.016  14.134  0.00  0.00    +0.000 A 
ATOM     10  C   UNL     1       5.485   3.920  15.144  0.00  0.00    +0.000 A 
BRANCH   9  11
ATOM     11  N   UNL     1       6.432   3.072  13.084  0.00  0.00    +0.000 N 
ATOM     12  C   UNL     1       5.452   2.933  12.108  0.00  0.00    +0.000 C 
ATOM     13  O   UNL     1       4.420   3.582  12.016  0.00  0.00    +0.000 OA
ATOM     14  H   UNL     1       7.216   2.439  13.028  0.00  0.00    +0.000 HD
BRANCH  12  15
ATOM     15  C   UNL     1       5.688   1.884  11.072  0.00  0.00    +0.000 C 
ATOM     16  C   UNL     1       6.013   0.455  11.427  0.00  0.00    +0.000 C 
ATOM     17  C   UNL     1       7.043   1.311  10.744  0.00  0.00    +0.000 C 
ENDBRANCH  12  15
ENDBRANCH   9  11
ENDBRANCH   3   5
BRANCH   2  18
ATOM     18  C   UNL     1       3.317   4.297  19.302  0.00  0.00    +0.000 A 
ATOM     19  C   UNL     1       2.948   5.455  20.010  0.00  0.00    +0.000 A 
ATOM     20  C   UNL     1       1.721   5.519  20.671  0.00  0.00    +0.000 A 
ATOM     21  C   UNL     1       0.840   4.445  20.602  0.00  0.00    +0.000 A 
ATOM     22  C   UNL     1       1.201   3.294  19.901  0.00  0.00    +0.000 A 
ATOM     23  C   UNL     1       2.454   3.188  19.260  0.00  0.00    +0.000 A 
BRANCH  23  24
ATOM     24  C   UNL     1       2.782   1.871  18.598  0.00  0.00    +0.000 C 
ATOM     25  F   UNL     1       2.944   1.887  17.252  0.00  0.00    +0.000 F 
ATOM     26  F   UNL     1       3.972   1.384  19.074  0.00  0.00    +0.000 F 
ATOM     27  F   UNL     1       1.869   0.899  18.879  0.00  0.00    +0.000 F 
ENDBRANCH  23  24
ENDBRANCH   2  18
TORSDOF 5
ENDMDL
MODEL 3
REMARK VINA RESULT:      -7.9      2.991      8.285
REMARK  Name = 
REMARK  5 active torsions:
REMARK  status: ('A' for Active; 'I' for Inactive)
REMARK    1  A    between atoms: C_2  and  C_16
REMARK    2  A    between atoms: N_3  and  C_4
REMARK    3  A    between atoms: C_8  and  N_9
REMARK    4  A    between atoms: C_10  and  C_12
REMARK    5  A    between atoms: C_21  and  C_22
REMARK                            x       y       z     vdW  Elec       q    Type
REMARK                         _______ _______ _______ _____ _____    ______ ____
ROOT
ATOM      1  O   UNL     1       5.767   3.758  18.509  0.00  0.00    +0.000 OA
ATOM      2  C   UNL     1       5.210   4.328  17.581  0.00  0.00    +0.000 C 
ATOM      3  N   UNL     1       3.923   4.846  17.543  0.00  0.00    +0.000 N 
ATOM      4  H   UNL     1       3.616   5.263  16.674  0.00  0.00    +0.000 HD
ENDROOT
BRANCH   3   5
ATOM      5  C   UNL     1       2.958   4.788  18.579  0.00  0.00    +0.000 A 
ATOM      6  C   UNL     1       2.162   3.667  18.807  0.00  0.00    +0.000 A 
ATOM      7  C   UNL     1       1.194   3.680  19.812  0.00  0.00    +0.000 A 
ATOM      8  C   UNL     1       1.022   4.811  20.607  0.00  0.00    +0.000 A 
ATOM      9  C   UNL     1       1.824   5.939  20.425  0.00  0.00    +0.000 A 
ATOM     10  C   UNL     1       2.795   5.917  19.406  0.00  0.00    +0.000 A 
BRANCH   9  11
ATOM     11  N   UNL     1       1.715   7.100  21.222  0.00  0.00    +0.000 N 
ATOM     12  C   UNL     1       1.288   8.358  20.815  0.00  0.00    +0.000 C 
ATOM     13  O   UNL     1       0.970   8.686  19.681  0.00  0.00    +0.000 OA
ATOM     14  H   UNL     1       1.960   7.001  22.196  0.00  0.00    +0.000 HD
BRANCH  12  15
ATOM     15  C   UNL     1       1.211   9.410  21.872  0.00  0.00    +0.000 C 
ATOM     16  C   UNL     1      -0.074   9.746  22.586  0.00  0.00    +0.000 C 
ATOM     17  C   UNL     1       0.565  10.758  21.677  0.00  0.00    +0.000 C 
ENDBRANCH  12  15
ENDBRANCH   9  11
ENDBRANCH   3   5
BRANCH   2  18
ATOM     18  C   UNL     1       6.008   4.525  16.346  0.00  0.00    +0.000 A 
ATOM     19  C   UNL     1       5.763   3.661  15.263  0.00  0.00    +0.000 A 
ATOM     20  C   UNL     1       6.393   3.867  14.036  0.00  0.00    +0.000 A 
ATOM     21  C   UNL     1       7.243   4.956  13.869  0.00  0.00    +0.000 A 
ATOM     22  C   UNL     1       7.489   5.816  14.938  0.00  0.00    +0.000 A 
ATOM     23  C   UNL     1       6.898   5.604  16.202  0.00  0.00    +0.000 A 
BRANCH  23  24
ATOM     24  C   UNL     1       7.293   6.544  17.316  0.00  0.00    +0.000 C 
ATOM     25  F   UNL     1       8.026   7.630  16.969  0.00  0.00    +0.000 F 
ATOM     26  F   UNL     1       6.175   7.070  17.911  0.00  0.00    +0.000 F 
ATOM     27  F   UNL     1       7.961   5.916  18.323  0.00  0.00    +0.000 F 
ENDBRANCH  23  24
ENDBRANCH   2  18
TORSDOF 5
ENDMDL
MODEL 4
REMARK VINA RESULT:      -7.6      4.820      9.042
REMARK  Name = 
REMARK  5 active torsions:
REMARK  status: ('A' for Active; 'I' for Inactive)
REMARK    1  A    between atoms: C_2  and  C_16
REMARK    2  A    between atoms: N_3  and  C_4
REMARK    3  A    between atoms: C_8  and  N_9
REMARK    4  A    between atoms: C_10  and  C_12
REMARK    5  A    between atoms: C_21  and  C_22
REMARK                            x       y       z     vdW  Elec       q    Type
REMARK                         _______ _______ _______ _____ _____    ______ ____
ROOT
ATOM      1  O   UNL     1       1.577   5.386  17.735  0.00  0.00    +0.000 OA
ATOM      2  C   UNL     1       2.341   5.531  18.679  0.00  0.00    +0.000 C 
ATOM      3  N   UNL     1       2.596   6.686  19.403  0.00  0.00    +0.000 N 
ATOM      4  H   UNL     1       3.287   6.630  20.141  0.00  0.00    +0.000 HD
ENDROOT
BRANCH   3   5
ATOM      5  C   UNL     1       2.039   7.969  19.172  0.00  0.00    +0.000 A 
ATOM      6  C   UNL     1       2.302   8.709  18.020  0.00  0.00    +0.000 A 
ATOM      7  C   UNL     1       1.765   9.987  17.863  0.00  0.00    +0.000 A 
ATOM      8  C   UNL     1       0.950  10.532  18.852  0.00  0.00    +0.000 A 
ATOM      9  C   UNL     1       0.642   9.805  20.004  0.00  0.00    +0.000 A 
ATOM     10  C   UNL     1       1.191   8.519  20.154  0.00  0.00    +0.000 A 
BRANCH   9  11
ATOM     11  N   UNL     1      -0.205  10.295  21.022  0.00  0.00    +0.000 N 
ATOM     12  C   UNL     1      -0.055  11.477  21.738  0.00  0.00    +0.000 C 
ATOM     13  O   UNL     1       0.862  12.277  21.636  0.00  0.00    +0.000 OA
ATOM     14  H   UNL     1      -1.014   9.734  21.243  0.00  0.00    +0.000 HD
BRANCH  12  15
ATOM     15  C   UNL     1      -1.125  11.795  22.730  0.00  0.00    +0.000 C 
ATOM     16  C   UNL     1      -2.420  12.461  22.337  0.00  0.00    +0.000 C 
ATOM     17  C   UNL     1      -1.440  13.186  23.217  0.00  0.00    +0.000 C 
ENDBRANCH  12  15
ENDBRANCH   9  11
ENDBRANCH   3   5
BRANCH   2  18
ATOM     18  C   UNL     1       3.071   4.323  19.137  0.00  0.00    +0.000 A 
ATOM     19  C   UNL     1       4.403   4.163  18.715  0.00  0.00    +0.000 A 
ATOM     20  C   UNL     1       5.181   3.114  19.206  0.00  0.00    +0.000 A 
ATOM     21  C   UNL     1       4.647   2.238  20.146  0.00  0.00    +0.000 A 
ATOM     22  C   UNL     1       3.326   2.392  20.568  0.00  0.00    +0.000 A 
ATOM     23  C   UNL     1       2.507   3.419  20.054  0.00  0.00    +0.000 A 
BRANCH  23  24
ATOM     24  C   UNL     1       1.068   3.450  20.514  0.00  0.00    +0.000 C 
ATOM     25  F   UNL     1       0.520   4.671  20.725  0.00  0.00    +0.000 F 
ATOM     26  F   UNL     1       0.256   2.876  19.570  0.00  0.00    +0.000 F 
ATOM     27  F   UNL     1       0.861   2.718  21.644  0.00  0.00    +0.000 F 
ENDBRANCH  23  24
ENDBRANCH   2  18
TORSDOF 5
ENDMDL
MODEL 5
REMARK VINA RESULT:      -7.5      2.877      8.188
REMARK  Name = 
REMARK  5 active torsions:
REMARK  status: ('A' for Active; 'I' for Inactive)
REMARK    1  A    between atoms: C_2  and  C_16
REMARK    2  A    between atoms: N_3  and  C_4
REMARK    3  A    between atoms: C_8  and  N_9
REMARK    4  A    between atoms: C_10  and  C_12
REMARK    5  A    between atoms: C_21  and  C_22
REMARK                            x       y       z     vdW  Elec       q    Type
REMARK                         _______ _______ _______ _____ _____    ______ ____
ROOT
ATOM      1  O   UNL     1       4.058   6.288  17.171  0.00  0.00    +0.000 OA
ATOM      2  C   UNL     1       4.337   5.111  16.987  0.00  0.00    +0.000 C 
ATOM      3  N   UNL     1       3.787   3.995  17.600  0.00  0.00    +0.000 N 
ATOM      4  H   UNL     1       4.162   3.091  17.343  0.00  0.00    +0.000 HD
ENDROOT
BRANCH   3   5
ATOM      5  C   UNL     1       2.794   3.990  18.612  0.00  0.00    +0.000 A 
ATOM      6  C   UNL     1       1.963   2.896  18.847  0.00  0.00    +0.000 A 
ATOM      7  C   UNL     1       0.971   2.960  19.825  0.00  0.00    +0.000 A 
ATOM      8  C   UNL     1       0.808   4.115  20.586  0.00  0.00    +0.000 A 
ATOM      9  C   UNL     1       1.644   5.217  20.397  0.00  0.00    +0.000 A 
ATOM     10  C   UNL     1       2.640   5.143  19.405  0.00  0.00    +0.000 A 
BRANCH   9  11
ATOM     11  N   UNL     1       1.546   6.401  21.162  0.00  0.00    +0.000 N 
ATOM     12  C   UNL     1       1.571   7.707  20.688  0.00  0.00    +0.000 C 
ATOM     13  O   UNL     1       1.725   8.057  19.528  0.00  0.00    +0.000 OA
ATOM     14  H   UNL     1       1.430   6.284  22.157  0.00  0.00    +0.000 HD
BRANCH  12  15
ATOM     15  C   UNL     1       1.393   8.787  21.704  0.00  0.00    +0.000 C 
ATOM     16  C   UNL     1       0.042   9.153  22.266  0.00  0.00    +0.000 C 
ATOM     17  C   UNL     1       0.788  10.135  21.406  0.00  0.00    +0.000 C 
ENDBRANCH  12  15
ENDBRANCH   9  11
ENDBRANCH   3   5
BRANCH   2  18
ATOM     18  C   UNL     1       5.369   4.825  15.960  0.00  0.00    +0.000 A 
ATOM     19  C   UNL     1       4.932   4.536  14.654  0.00  0.00    +0.000 A 
ATOM     20  C   UNL     1       5.853   4.376  13.619  0.00  0.00    +0.000 A 
ATOM     21  C   UNL     1       7.211   4.539  13.869  0.00  0.00    +0.000 A 
ATOM     22  C   UNL     1       7.650   4.826  15.161  0.00  0.00    +0.000 A 
ATOM     23  C   UNL     1       6.742   4.950  16.234  0.00  0.00    +0.000 A 
BRANCH  23  24
ATOM     24  C   UNL     1       7.324   5.181  17.609  0.00  0.00    +0.000 C 
ATOM     25  F   UNL     1       6.493   4.998  18.664  0.00  0.00    +0.000 F 
ATOM     26  F   UNL     1       8.356   4.307  17.840  0.00  0.00    +0.000 F 
ATOM     27  F   UNL     1       7.878   6.418  17.745  0.00  0.00    +0.000 F 
ENDBRANCH  23  24
ENDBRANCH   2  18
TORSDOF 5
ENDMDL
MODEL 6
REMARK VINA RESULT:      -7.4      4.833      8.275
REMARK  Name = 
REMARK  5 active torsions:
REMARK  status: ('A' for Active; 'I' for Inactive)
REMARK    1  A    between atoms: C_2  and  C_16
REMARK    2  A    between atoms: N_3  and  C_4
REMARK    3  A    between atoms: C_8  and  N_9
REMARK    4  A    between atoms: C_10  and  C_12
REMARK    5  A    between atoms: C_21  and  C_22
REMARK                            x       y       z     vdW  Elec       q    Type
REMARK                         _______ _______ _______ _____ _____    ______ ____
ROOT
ATOM      1  O   UNL     1       1.875   5.579  17.862  0.00  0.00    +0.000 OA
ATOM      2  C   UNL     1       2.886   6.257  17.980  0.00  0.00    +0.000 C 
ATOM      3  N   UNL     1       3.005   7.531  18.515  0.00  0.00    +0.000 N 
ATOM      4  H   UNL     1       3.923   7.956  18.507  0.00  0.00    +0.000 HD
ENDROOT
BRANCH   3   5
ATOM      5  C   UNL     1       1.952   8.340  19.013  0.00  0.00    +0.000 A 
ATOM      6  C   UNL     1       1.693   8.486  20.375  0.00  0.00    +0.000 A 
ATOM      7  C   UNL     1       0.615   9.257  20.810  0.00  0.00    +0.000 A 
ATOM      8  C   UNL     1      -0.206   9.900  19.887  0.00  0.00    +0.000 A 
ATOM      9  C   UNL     1       0.045   9.800  18.518  0.00  0.00    +0.000 A 
ATOM     10  C   UNL     1       1.132   9.017  18.089  0.00  0.00    +0.000 A 
BRANCH   9  11
ATOM     11  N   UNL     1      -0.735  10.457  17.540  0.00  0.00    +0.000 N 
ATOM     12  C   UNL     1      -2.082  10.252  17.268  0.00  0.00    +0.000 C 
ATOM     13  O   UNL     1      -2.816   9.435  17.804  0.00  0.00    +0.000 OA
ATOM     14  H   UNL     1      -0.266  11.161  16.990  0.00  0.00    +0.000 HD
BRANCH  12  15
ATOM     15  C   UNL     1      -2.688  11.120  16.215  0.00  0.00    +0.000 C 
ATOM     16  C   UNL     1      -4.173  11.149  15.947  0.00  0.00    +0.000 C 
ATOM     17  C   UNL     1      -3.233  10.605  14.907  0.00  0.00    +0.000 C 
ENDBRANCH  12  15
ENDBRANCH   9  11
ENDBRANCH   3   5
BRANCH   2  18
ATOM     18  C   UNL     1       4.157   5.640  17.526  0.00  0.00    +0.000 A 
ATOM     19  C   UNL     1       4.843   6.259  16.465  0.00  0.00    +0.000 A 
ATOM     20  C   UNL     1       6.100   5.800  16.071  0.00  0.00    +0.000 A 
ATOM     21  C   UNL     1       6.697   4.745  16.754  0.00  0.00    +0.000 A 
ATOM     22  C   UNL     1       6.022   4.128  17.807  0.00  0.00    +0.000 A 
ATOM     23  C   UNL     1       4.731   4.546  18.196  0.00  0.00    +0.000 A 
BRANCH  23  24
ATOM     24  C   UNL     1       4.053   3.760  19.293  0.00  0.00    +0.000 C 
ATOM     25  F   UNL     1       3.005   2.980  18.929  0.00  0.00    +0.000 F 
ATOM     26  F   UNL     1       4.938   2.884  19.867  0.00  0.00    +0.000 F 
ATOM     27  F   UNL     1       3.626   4.548  20.319  0.00  0.00    +0.000 F 
ENDBRANCH  23  24
ENDBRANCH   2  18
TORSDOF 5
ENDMDL
MODEL 7
REMARK VINA RESULT:      -7.4      5.380      8.720
REMARK  Name = 
REMARK  5 active torsions:
REMARK  status: ('A' for Active; 'I' for Inactive)
REMARK    1  A    between atoms: C_2  and  C_16
REMARK    2  A    between atoms: N_3  and  C_4
REMARK    3  A    between atoms: C_8  and  N_9
REMARK    4  A    between atoms: C_10  and  C_12
REMARK    5  A    between atoms: C_21  and  C_22
REMARK                            x       y       z     vdW  Elec       q    Type
REMARK                         _______ _______ _______ _____ _____    ______ ____
ROOT
ATOM      1  O   UNL     1       2.690   7.192  19.523  0.00  0.00    +0.000 OA
ATOM      2  C   UNL     1       2.822   7.317  18.314  0.00  0.00    +0.000 C 
ATOM      3  N   UNL     1       2.372   8.351  17.506  0.00  0.00    +0.000 N 
ATOM      4  H   UNL     1       2.548   8.276  16.513  0.00  0.00    +0.000 HD
ENDROOT
BRANCH   3   5
ATOM      5  C   UNL     1       1.621   9.480  17.919  0.00  0.00    +0.000 A 
ATOM      6  C   UNL     1       2.213  10.637  18.423  0.00  0.00    +0.000 A 
ATOM      7  C   UNL     1       1.425  11.703  18.859  0.00  0.00    +0.000 A 
ATOM      8  C   UNL     1       0.037  11.626  18.784  0.00  0.00    +0.000 A 
ATOM      9  C   UNL     1      -0.587  10.493  18.256  0.00  0.00    +0.000 A 
ATOM     10  C   UNL     1       0.216   9.423  17.823  0.00  0.00    +0.000 A 
BRANCH   9  11
ATOM     11  N   UNL     1      -1.989  10.375  18.126  0.00  0.00    +0.000 N 
ATOM     12  C   UNL     1      -2.755  10.688  17.010  0.00  0.00    +0.000 C 
ATOM     13  O   UNL     1      -2.349  11.160  15.959  0.00  0.00    +0.000 OA
ATOM     14  H   UNL     1      -2.485  10.011  18.925  0.00  0.00    +0.000 HD
BRANCH  12  15
ATOM     15  C   UNL     1      -4.221  10.420  17.112  0.00  0.00    +0.000 C 
ATOM     16  C   UNL     1      -5.244  11.527  17.165  0.00  0.00    +0.000 C 
ATOM     17  C   UNL     1      -5.035  10.640  18.361  0.00  0.00    +0.000 C 
ENDBRANCH  12  15
ENDBRANCH   9  11
ENDBRANCH   3   5
BRANCH   2  18
ATOM     18  C   UNL     1       3.583   6.253  17.613  0.00  0.00    +0.000 A 
ATOM     19  C   UNL     1       4.850   6.583  17.100  0.00  0.00    +0.000 A 
ATOM     20  C   UNL     1       5.664   5.600  16.538  0.00  0.00    +0.000 A 
ATOM     21  C   UNL     1       5.236   4.276  16.516  0.00  0.00    +0.000 A 
ATOM     22  C   UNL     1       3.981   3.943  17.024  0.00  0.00    +0.000 A 
ATOM     23  C   UNL     1       3.121   4.926  17.559  0.00  0.00    +0.000 A 
BRANCH  23  24
ATOM     24  C   UNL     1       1.752   4.475  18.008  0.00  0.00    +0.000 C 
ATOM     25  F   UNL     1       1.400   4.765  19.284  0.00  0.00    +0.000 F 
ATOM     26  F   UNL     1       0.782   5.076  17.248  0.00  0.00    +0.000 F 
ATOM     27  F   UNL     1       1.553   3.138  17.832  0.00  0.00    +0.000 F 
ENDBRANCH  23  24
ENDBRANCH   2  18
TORSDOF 5
ENDMDL
MODEL 8
REMARK VINA RESULT:      -7.3      1.941      2.452
REMARK  Name = 
REMARK  5 active torsions:
REMARK  status: ('A' for Active; 'I' for Inactive)
REMARK    1  A    between atoms: C_2  and  C_16
REMARK    2  A    between atoms: N_3  and  C_4
REMARK    3  A    between atoms: C_8  and  N_9
REMARK    4  A    between atoms: C_10  and  C_12
REMARK    5  A    between atoms: C_21  and  C_22
REMARK                            x       y       z     vdW  Elec       q    Type
REMARK                         _______ _______ _______ _____ _____    ______ ____
ROOT
ATOM      1  O   UNL     1       3.202   5.839  17.756  0.00  0.00    +0.000 OA
ATOM      2  C   UNL     1       3.676   4.794  18.182  0.00  0.00    +0.000 C 
ATOM      3  N   UNL     1       4.820   4.137  17.756  0.00  0.00    +0.000 N 
ATOM      4  H   UNL     1       5.049   3.261  18.208  0.00  0.00    +0.000 HD
ENDROOT
BRANCH   3   5
ATOM      5  C   UNL     1       5.675   4.529  16.695  0.00  0.00    +0.000 A 
ATOM      6  C   UNL     1       6.457   5.681  16.743  0.00  0.00    +0.000 A 
ATOM      7  C   UNL     1       7.246   6.046  15.652  0.00  0.00    +0.000 A 
ATOM      8  C   UNL     1       7.269   5.254  14.506  0.00  0.00    +0.000 A 
ATOM      9  C   UNL     1       6.521   4.077  14.438  0.00  0.00    +0.000 A 
ATOM     10  C   UNL     1       5.726   3.720  15.542  0.00  0.00    +0.000 A 
BRANCH   9  11
ATOM     11  N   UNL     1       6.533   3.220  13.315  0.00  0.00    +0.000 N 
ATOM     12  C   UNL     1       5.565   3.129  12.322  0.00  0.00    +0.000 C 
ATOM     13  O   UNL     1       4.514   3.750  12.272  0.00  0.00    +0.000 OA
ATOM     14  H   UNL     1       7.338   2.620  13.216  0.00  0.00    +0.000 HD
BRANCH  12  15
ATOM     15  C   UNL     1       5.843   2.176  11.207  0.00  0.00    +0.000 C 
ATOM     16  C   UNL     1       6.077   0.704  11.441  0.00  0.00    +0.000 C 
ATOM     17  C   UNL     1       7.195   1.569  10.931  0.00  0.00    +0.000 C 
ENDBRANCH  12  15
ENDBRANCH   9  11
ENDBRANCH   3   5
BRANCH   2  18
ATOM     18  C   UNL     1       2.964   4.155  19.317  0.00  0.00    +0.000 A 
ATOM     19  C   UNL     1       2.954   4.833  20.549  0.00  0.00    +0.000 A 
ATOM     20  C   UNL     1       2.204   4.345  21.619  0.00  0.00    +0.000 A 
ATOM     21  C   UNL     1       1.431   3.200  21.458  0.00  0.00    +0.000 A 
ATOM     22  C   UNL     1       1.436   2.524  20.238  0.00  0.00    +0.000 A 
ATOM     23  C   UNL     1       2.221   2.973  19.154  0.00  0.00    +0.000 A 
BRANCH  23  24
ATOM     24  C   UNL     1       2.221   2.125  17.904  0.00  0.00    +0.000 C 
ATOM     25  F   UNL     1       1.173   1.280  17.738  0.00  0.00    +0.000 F 
ATOM     26  F   UNL     1       2.187   2.924  16.790  0.00  0.00    +0.000 F 
ATOM     27  F   UNL     1       3.357   1.385  17.769  0.00  0.00    +0.000 F 
ENDBRANCH  23  24
ENDBRANCH   2  18
TORSDOF 5
ENDMDL
MODEL 9
REMARK VINA RESULT:      -7.3      4.320      6.989
REMARK  Name = 
REMARK  5 active torsions:
REMARK  status: ('A' for Active; 'I' for Inactive)
REMARK    1  A    between atoms: C_2  and  C_16
REMARK    2  A    between atoms: N_3  and  C_4
REMARK    3  A    between atoms: C_8  and  N_9
REMARK    4  A    between atoms: C_10  and  C_12
REMARK    5  A    between atoms: C_21  and  C_22
REMARK                            x       y       z     vdW  Elec       q    Type
REMARK                         _______ _______ _______ _____ _____    ______ ____
ROOT
ATOM      1  O   UNL     1       1.769   9.112  17.163  0.00  0.00    +0.000 OA
ATOM      2  C   UNL     1       1.658   9.499  18.318  0.00  0.00    +0.000 C 
ATOM      3  N   UNL     1       1.838   8.771  19.485  0.00  0.00    +0.000 N 
ATOM      4  H   UNL     1       1.675   9.250  20.362  0.00  0.00    +0.000 HD
ENDROOT
BRANCH   3   5
ATOM      5  C   UNL     1       2.160   7.394  19.582  0.00  0.00    +0.000 A 
ATOM      6  C   UNL     1       1.618   6.559  20.557  0.00  0.00    +0.000 A 
ATOM      7  C   UNL     1       2.004   5.221  20.636  0.00  0.00    +0.000 A 
ATOM      8  C   UNL     1       2.929   4.702  19.733  0.00  0.00    +0.000 A 
ATOM      9  C   UNL     1       3.468   5.504  18.725  0.00  0.00    +0.000 A 
ATOM     10  C   UNL     1       3.074   6.853  18.656  0.00  0.00    +0.000 A 
BRANCH   9  11
ATOM     11  N   UNL     1       4.383   5.023  17.762  0.00  0.00    +0.000 N 
ATOM     12  C   UNL     1       5.719   4.702  17.967  0.00  0.00    +0.000 C 
ATOM     13  O   UNL     1       6.345   4.820  19.010  0.00  0.00    +0.000 OA
ATOM     14  H   UNL     1       4.023   4.884  16.830  0.00  0.00    +0.000 HD
BRANCH  12  15
ATOM     15  C   UNL     1       6.461   4.158  16.790  0.00  0.00    +0.000 C 
ATOM     16  C   UNL     1       6.930   5.034  15.655  0.00  0.00    +0.000 C 
ATOM     17  C   UNL     1       5.864   4.001  15.414  0.00  0.00    +0.000 C 
ENDBRANCH  12  15
ENDBRANCH   9  11
ENDBRANCH   3   5
BRANCH   2  18
ATOM     18  C   UNL     1       1.317  10.930  18.511  0.00  0.00    +0.000 A 
ATOM     19  C   UNL     1       2.355  11.872  18.396  0.00  0.00    +0.000 A 
ATOM     20  C   UNL     1       2.081  13.238  18.446  0.00  0.00    +0.000 A 
ATOM     21  C   UNL     1       0.766  13.676  18.577  0.00  0.00    +0.000 A 
ATOM     22  C   UNL     1      -0.268  12.746  18.691  0.00  0.00    +0.000 A 
ATOM     23  C   UNL     1      -0.011  11.359  18.686  0.00  0.00    +0.000 A 
BRANCH  23  24
ATOM     24  C   UNL     1      -1.189  10.438  18.897  0.00  0.00    +0.000 C 
ATOM     25  F   UNL     1      -1.117   9.585  19.949  0.00  0.00    +0.000 F 
ATOM     26  F   UNL     1      -2.325  11.167  19.134  0.00  0.00    +0.000 F 
ATOM     27  F   UNL     1      -1.477   9.690  17.795  0.00  0.00    +0.000 F 
ENDBRANCH  23  24
ENDBRANCH   2  18
TORSDOF 5
ENDMDL
