MODEL 1
REMARK VINA RESULT:      -7.4      0.000      0.000
REMARK  Name = 
REMARK  2 active torsions:
REMARK  status: ('A' for Active; 'I' for Inactive)
REMARK    1  A    between atoms: N_15  and  C_16
REMARK    2  A    between atoms: C_16  and  C_17
REMARK                            x       y       z     vdW  Elec       q    Type
REMARK                         _______ _______ _______ _____ _____    ______ ____
ROOT
ATOM      1  O   UNL     1       2.248   3.264  16.350  0.00  0.00    +0.000 OA
ATOM      2  C   UNL     1       2.664   4.168  17.052  0.00  0.00    +0.000 C 
ATOM      3  N   UNL     1       1.855   5.000  17.788  0.00  0.00    +0.000 N 
ATOM      4  C   UNL     1       2.621   5.790  18.715  0.00  0.00    +0.000 C 
ATOM      5  C   UNL     1       2.579   5.203  20.147  0.00  0.00    +0.000 C 
ATOM      6  C   UNL     1       2.125   6.311  21.108  0.00  0.00    +0.000 C 
ATOM      7  C   UNL     1       1.795   7.452  20.205  0.00  0.00    +0.000 A 
ATOM      8  C   UNL     1       1.241   8.666  20.584  0.00  0.00    +0.000 A 
ATOM      9  C   UNL     1       0.973   9.612  19.597  0.00  0.00    +0.000 A 
ATOM     10  C   UNL     1       1.267   9.339  18.252  0.00  0.00    +0.000 A 
ATOM     11  C   UNL     1       1.836   8.117  17.881  0.00  0.00    +0.000 A 
ATOM     12  C   UNL     1       2.098   7.176  18.869  0.00  0.00    +0.000 A 
ATOM     13  C   UNL     1       4.029   5.576  18.149  0.00  0.00    +0.000 C 
ATOM     14  O   UNL     1       5.050   6.131  18.531  0.00  0.00    +0.000 OA
ATOM     15  N   UNL     1       3.961   4.522  17.271  0.00  0.00    +0.000 N 
ATOM     16  H   UNL     1       0.853   4.871  17.823  0.00  0.00    +0.000 HD
ENDROOT
BRANCH  15  17
ATOM     17  C   UNL     1       5.095   3.714  16.881  0.00  0.00    +0.000 C 
BRANCH  17  18
ATOM     18  C   UNL     1       5.742   4.094  15.570  0.00  0.00    +0.000 A 
ATOM     19  C   UNL     1       5.300   3.471  14.386  0.00  0.00    +0.000 A 
ATOM     20  C   UNL     1       5.957   3.688  13.174  0.00  0.00    +0.000 A 
ATOM     21  C   UNL     1       7.059   4.530  13.135  0.00  0.00    +0.000 A 
ATOM     22  F   UNL     1       7.711   4.709  11.980  0.00  0.00    +0.000 F 
ATOM     23  C   UNL     1       7.507   5.173  14.279  0.00  0.00    +0.000 A 
ATOM     24  C   UNL     1       6.852   4.958  15.494  0.00  0.00    +0.000 A 
ATOM     25 CL   UNL     1       7.496   5.766  16.879  0.00  0.00    +0.000 Cl
ENDBRANCH  17  18
ENDBRANCH  15  17
TORSDOF 2
ENDMDL
MODEL 2
REMARK VINA RESULT:      -7.3      3.656      5.134
REMARK  Name = 
REMARK  2 active torsions:
REMARK  status: ('A' for Active; 'I' for Inactive)
REMARK    1  A    between atoms: N_15  and  C_16
REMARK    2  A    between atoms: C_16  and  C_17
REMARK                            x       y       z     vdW  Elec       q    Type
REMARK                         _______ _______ _______ _____ _____    ______ ____
ROOT
ATOM      1  O   UNL     1       1.705   7.127  21.204  0.00  0.00    +0.000 OA
ATOM      2  C   UNL     1       1.521   7.891  20.272  0.00  0.00    +0.000 C 
ATOM      3  N   UNL     1       0.590   8.902  20.285  0.00  0.00    +0.000 N 
ATOM      4  C   UNL     1       0.775   9.798  19.175  0.00  0.00    +0.000 C 
ATOM      5  C   UNL     1       1.531  11.084  19.589  0.00  0.00    +0.000 C 
ATOM      6  C   UNL     1       0.696  12.296  19.151  0.00  0.00    +0.000 C 
ATOM      7  C   UNL     1      -0.561  11.689  18.621  0.00  0.00    +0.000 A 
ATOM      8  C   UNL     1      -1.686  12.376  18.190  0.00  0.00    +0.000 A 
ATOM      9  C   UNL     1      -2.785  11.642  17.751  0.00  0.00    +0.000 A 
ATOM     10  C   UNL     1      -2.745  10.239  17.740  0.00  0.00    +0.000 A 
ATOM     11  C   UNL     1      -1.603   9.556  18.165  0.00  0.00    +0.000 A 
ATOM     12  C   UNL     1      -0.510  10.292  18.605  0.00  0.00    +0.000 A 
ATOM     13  C   UNL     1       1.707   8.953  18.301  0.00  0.00    +0.000 C 
ATOM     14  O   UNL     1       2.086   9.232  17.171  0.00  0.00    +0.000 OA
ATOM     15  N   UNL     1       2.182   7.927  19.082  0.00  0.00    +0.000 N 
ATOM     16  H   UNL     1       0.030   9.097  21.103  0.00  0.00    +0.000 HD
ENDROOT
BRANCH  15  17
ATOM     17  C   UNL     1       3.399   7.195  18.812  0.00  0.00    +0.000 C 
BRANCH  17  18
ATOM     18  C   UNL     1       3.211   5.759  18.383  0.00  0.00    +0.000 A 
ATOM     19  C   UNL     1       1.957   5.357  17.883  0.00  0.00    +0.000 A 
ATOM     20  C   UNL     1       1.695   4.015  17.603  0.00  0.00    +0.000 A 
ATOM     21  C   UNL     1       2.683   3.065  17.820  0.00  0.00    +0.000 A 
ATOM     22  F   UNL     1       2.420   1.774  17.586  0.00  0.00    +0.000 F 
ATOM     23  C   UNL     1       3.933   3.432  18.294  0.00  0.00    +0.000 A 
ATOM     24  C   UNL     1       4.200   4.774  18.575  0.00  0.00    +0.000 A 
ATOM     25 CL   UNL     1       5.769   5.142  19.199  0.00  0.00    +0.000 Cl
ENDBRANCH  17  18
ENDBRANCH  15  17
TORSDOF 2
ENDMDL
MODEL 3
REMARK VINA RESULT:      -7.3      2.561      3.866
REMARK  Name = 
REMARK  2 active torsions:
REMARK  status: ('A' for Active; 'I' for Inactive)
REMARK    1  A    between atoms: N_15  and  C_16
REMARK    2  A    between atoms: C_16  and  C_17
REMARK                            x       y       z     vdW  Elec       q    Type
REMARK                         _______ _______ _______ _____ _____    ______ ____
ROOT
ATOM      1  O   UNL     1       8.211   4.154  17.728  0.00  0.00    +0.000 OA
ATOM      2  C   UNL     1       7.008   4.337  17.668  0.00  0.00    +0.000 C 
ATOM      3  N   UNL     1       6.142   4.074  18.701  0.00  0.00    +0.000 N 
ATOM      4  C   UNL     1       4.839   4.629  18.447  0.00  0.00    +0.000 C 
ATOM      5  C   UNL     1       4.627   5.971  19.191  0.00  0.00    +0.000 C 
ATOM      6  C   UNL     1       3.333   5.866  20.011  0.00  0.00    +0.000 C 
ATOM      7  C   UNL     1       2.909   4.447  19.827  0.00  0.00    +0.000 A 
ATOM      8  C   UNL     1       1.840   3.822  20.451  0.00  0.00    +0.000 A 
ATOM      9  C   UNL     1       1.605   2.476  20.180  0.00  0.00    +0.000 A 
ATOM     10  C   UNL     1       2.432   1.776  19.288  0.00  0.00    +0.000 A 
ATOM     11  C   UNL     1       3.499   2.418  18.653  0.00  0.00    +0.000 A 
ATOM     12  C   UNL     1       3.731   3.759  18.930  0.00  0.00    +0.000 A 
ATOM     13  C   UNL     1       4.963   4.926  16.949  0.00  0.00    +0.000 C 
ATOM     14  O   UNL     1       4.066   5.322  16.216  0.00  0.00    +0.000 OA
ATOM     15  N   UNL     1       6.295   4.843  16.623  0.00  0.00    +0.000 N 
ATOM     16  H   UNL     1       6.471   3.752  19.601  0.00  0.00    +0.000 HD
ENDROOT
BRANCH  15  17
ATOM     17  C   UNL     1       6.893   5.479  15.470  0.00  0.00    +0.000 C 
BRANCH  17  18
ATOM     18  C   UNL     1       6.700   4.755  14.158  0.00  0.00    +0.000 A 
ATOM     19  C   UNL     1       5.666   3.804  14.051  0.00  0.00    +0.000 A 
ATOM     20  C   UNL     1       5.535   3.015  12.907  0.00  0.00    +0.000 A 
ATOM     21  C   UNL     1       6.436   3.170  11.863  0.00  0.00    +0.000 A 
ATOM     22  F   UNL     1       6.333   2.388  10.782  0.00  0.00    +0.000 F 
ATOM     23  C   UNL     1       7.453   4.110  11.931  0.00  0.00    +0.000 A 
ATOM     24  C   UNL     1       7.587   4.902  13.074  0.00  0.00    +0.000 A 
ATOM     25 CL   UNL     1       8.903   6.022  13.096  0.00  0.00    +0.000 Cl
ENDBRANCH  17  18
ENDBRANCH  15  17
TORSDOF 2
ENDMDL
MODEL 4
REMARK VINA RESULT:      -7.2      3.356      7.058
REMARK  Name = 
REMARK  2 active torsions:
REMARK  status: ('A' for Active; 'I' for Inactive)
REMARK    1  A    between atoms: N_15  and  C_16
REMARK    2  A    between atoms: C_16  and  C_17
REMARK                            x       y       z     vdW  Elec       q    Type
REMARK                         _______ _______ _______ _____ _____    ______ ____
ROOT
ATOM      1  O   UNL     1       8.032   4.593  18.802  0.00  0.00    +0.000 OA
ATOM      2  C   UNL     1       7.363   4.835  17.812  0.00  0.00    +0.000 C 
ATOM      3  N   UNL     1       7.612   4.299  16.572  0.00  0.00    +0.000 N 
ATOM      4  C   UNL     1       6.520   4.545  15.667  0.00  0.00    +0.000 C 
ATOM      5  C   UNL     1       5.594   3.311  15.530  0.00  0.00    +0.000 C 
ATOM      6  C   UNL     1       5.457   2.977  14.037  0.00  0.00    +0.000 C 
ATOM      7  C   UNL     1       6.395   3.928  13.371  0.00  0.00    +0.000 A 
ATOM      8  C   UNL     1       6.710   3.961  12.021  0.00  0.00    +0.000 A 
ATOM      9  C   UNL     1       7.632   4.905  11.576  0.00  0.00    +0.000 A 
ATOM     10  C   UNL     1       8.220   5.804  12.479  0.00  0.00    +0.000 A 
ATOM     11  C   UNL     1       7.888   5.772  13.836  0.00  0.00    +0.000 A 
ATOM     12  C   UNL     1       6.970   4.826  14.275  0.00  0.00    +0.000 A 
ATOM     13  C   UNL     1       5.765   5.627  16.445  0.00  0.00    +0.000 C 
ATOM     14  O   UNL     1       4.794   6.256  16.048  0.00  0.00    +0.000 OA
ATOM     15  N   UNL     1       6.260   5.629  17.728  0.00  0.00    +0.000 N 
ATOM     16  H   UNL     1       8.351   3.626  16.423  0.00  0.00    +0.000 HD
ENDROOT
BRANCH  15  17
ATOM     17  C   UNL     1       5.546   6.144  18.874  0.00  0.00    +0.000 C 
BRANCH  17  18
ATOM     18  C   UNL     1       4.306   5.375  19.266  0.00  0.00    +0.000 A 
ATOM     19  C   UNL     1       4.441   4.035  19.682  0.00  0.00    +0.000 A 
ATOM     20  C   UNL     1       3.316   3.244  19.923  0.00  0.00    +0.000 A 
ATOM     21  C   UNL     1       2.050   3.786  19.750  0.00  0.00    +0.000 A 
ATOM     22  F   UNL     1       0.972   3.017  19.945  0.00  0.00    +0.000 F 
ATOM     23  C   UNL     1       1.885   5.106  19.360  0.00  0.00    +0.000 A 
ATOM     24  C   UNL     1       3.008   5.901  19.119  0.00  0.00    +0.000 A 
ATOM     25 CL   UNL     1       2.717   7.523  18.599  0.00  0.00    +0.000 Cl
ENDBRANCH  17  18
ENDBRANCH  15  17
TORSDOF 2
ENDMDL
MODEL 5
REMARK VINA RESULT:      -7.2      3.525      5.062
REMARK  Name = 
REMARK  2 active torsions:
REMARK  status: ('A' for Active; 'I' for Inactive)
REMARK    1  A    between atoms: N_15  and  C_16
REMARK    2  A    between atoms: C_16  and  C_17
REMARK                            x       y       z     vdW  Elec       q    Type
REMARK                         _______ _______ _______ _____ _____    ______ ____
ROOT
ATOM      1  O   UNL     1       3.864   7.733  16.952  0.00  0.00    +0.000 OA
ATOM      2  C   UNL     1       4.024   6.632  17.451  0.00  0.00    +0.000 C 
ATOM      3  N   UNL     1       2.999   5.860  17.943  0.00  0.00    +0.000 N 
ATOM      4  C   UNL     1       3.442   4.520  18.222  0.00  0.00    +0.000 C 
ATOM      5  C   UNL     1       3.054   3.536  17.092  0.00  0.00    +0.000 C 
ATOM      6  C   UNL     1       2.295   2.357  17.718  0.00  0.00    +0.000 C 
ATOM      7  C   UNL     1       2.151   2.749  19.151  0.00  0.00    +0.000 A 
ATOM      8  C   UNL     1       1.445   2.057  20.125  0.00  0.00    +0.000 A 
ATOM      9  C   UNL     1       1.394   2.587  21.412  0.00  0.00    +0.000 A 
ATOM     10  C   UNL     1       2.051   3.790  21.712  0.00  0.00    +0.000 A 
ATOM     11  C   UNL     1       2.770   4.474  20.728  0.00  0.00    +0.000 A 
ATOM     12  C   UNL     1       2.816   3.943  19.445  0.00  0.00    +0.000 A 
ATOM     13  C   UNL     1       4.959   4.725  18.182  0.00  0.00    +0.000 C 
ATOM     14  O   UNL     1       5.807   3.889  18.462  0.00  0.00    +0.000 OA
ATOM     15  N   UNL     1       5.192   5.948  17.600  0.00  0.00    +0.000 N 
ATOM     16  H   UNL     1       2.034   6.151  17.873  0.00  0.00    +0.000 HD
ENDROOT
BRANCH  15  17
ATOM     17  C   UNL     1       6.435   6.324  16.965  0.00  0.00    +0.000 C 
BRANCH  17  18
ATOM     18  C   UNL     1       7.221   7.406  17.666  0.00  0.00    +0.000 A 
ATOM     19  C   UNL     1       7.155   8.724  17.171  0.00  0.00    +0.000 A 
ATOM     20  C   UNL     1       7.968   9.728  17.700  0.00  0.00    +0.000 A 
ATOM     21  C   UNL     1       8.850   9.424  18.727  0.00  0.00    +0.000 A 
ATOM     22  F   UNL     1       9.655  10.379  19.210  0.00  0.00    +0.000 F 
ATOM     23  C   UNL     1       8.924   8.141  19.248  0.00  0.00    +0.000 A 
ATOM     24  C   UNL     1       8.112   7.134  18.722  0.00  0.00    +0.000 A 
ATOM     25 CL   UNL     1       8.293   5.554  19.400  0.00  0.00    +0.000 Cl
ENDBRANCH  17  18
ENDBRANCH  15  17
TORSDOF 2
ENDMDL
MODEL 6
REMARK VINA RESULT:      -7.0      6.786     10.578
REMARK  Name = 
REMARK  2 active torsions:
REMARK  status: ('A' for Active; 'I' for Inactive)
REMARK    1  A    between atoms: N_15  and  C_16
REMARK    2  A    between atoms: C_16  and  C_17
REMARK                            x       y       z     vdW  Elec       q    Type
REMARK                         _______ _______ _______ _____ _____    ______ ____
ROOT
ATOM      1  O   UNL     1       0.887  13.827  20.104  0.00  0.00    +0.000 OA
ATOM      2  C   UNL     1       0.548  12.671  19.921  0.00  0.00    +0.000 C 
ATOM      3  N   UNL     1       1.397  11.597  20.033  0.00  0.00    +0.000 N 
ATOM      4  C   UNL     1       0.673  10.354  20.025  0.00  0.00    +0.000 C 
ATOM      5  C   UNL     1       0.477   9.790  21.454  0.00  0.00    +0.000 C 
ATOM      6  C   UNL     1       0.999   8.345  21.477  0.00  0.00    +0.000 C 
ATOM      7  C   UNL     1       1.592   8.160  20.119  0.00  0.00    +0.000 A 
ATOM      8  C   UNL     1       2.285   7.046  19.671  0.00  0.00    +0.000 A 
ATOM      9  C   UNL     1       2.796   7.056  18.376  0.00  0.00    +0.000 A 
ATOM     10  C   UNL     1       2.602   8.170  17.544  0.00  0.00    +0.000 A 
ATOM     11  C   UNL     1       1.891   9.284  18.000  0.00  0.00    +0.000 A 
ATOM     12  C   UNL     1       1.386   9.269  19.294  0.00  0.00    +0.000 A 
ATOM     13  C   UNL     1      -0.686  10.839  19.510  0.00  0.00    +0.000 C 
ATOM     14  O   UNL     1      -1.642  10.131  19.224  0.00  0.00    +0.000 OA
ATOM     15  N   UNL     1      -0.694  12.209  19.605  0.00  0.00    +0.000 N 
ATOM     16  H   UNL     1       2.358  11.709  20.325  0.00  0.00    +0.000 HD
ENDROOT
BRANCH  15  17
ATOM     17  C   UNL     1      -1.894  13.014  19.666  0.00  0.00    +0.000 C 
BRANCH  17  18
ATOM     18  C   UNL     1      -2.637  12.971  20.980  0.00  0.00    +0.000 A 
ATOM     19  C   UNL     1      -1.898  12.946  22.179  0.00  0.00    +0.000 A 
ATOM     20  C   UNL     1      -2.535  12.770  23.409  0.00  0.00    +0.000 A 
ATOM     21  C   UNL     1      -3.914  12.619  23.450  0.00  0.00    +0.000 A 
ATOM     22  F   UNL     1      -4.520  12.413  24.625  0.00  0.00    +0.000 F 
ATOM     23  C   UNL     1      -4.671  12.658  22.289  0.00  0.00    +0.000 A 
ATOM     24  C   UNL     1      -4.037  12.835  21.056  0.00  0.00    +0.000 A 
ATOM     25 CL   UNL     1      -5.048  12.833  19.654  0.00  0.00    +0.000 Cl
ENDBRANCH  17  18
ENDBRANCH  15  17
TORSDOF 2
ENDMDL
MODEL 7
REMARK VINA RESULT:      -6.8      4.190      7.481
REMARK  Name = 
REMARK  2 active torsions:
REMARK  status: ('A' for Active; 'I' for Inactive)
REMARK    1  A    between atoms: N_15  and  C_16
REMARK    2  A    between atoms: C_16  and  C_17
REMARK                            x       y       z     vdW  Elec       q    Type
REMARK                         _______ _______ _______ _____ _____    ______ ____
ROOT
ATOM      1  O   UNL     1       1.430   8.102  21.419  0.00  0.00    +0.000 OA
ATOM      2  C   UNL     1       1.871   7.819  20.319  0.00  0.00    +0.000 C 
ATOM      3  N   UNL     1       2.635   6.705  20.065  0.00  0.00    +0.000 N 
ATOM      4  C   UNL     1       2.787   6.486  18.652  0.00  0.00    +0.000 C 
ATOM      5  C   UNL     1       1.816   5.400  18.127  0.00  0.00    +0.000 C 
ATOM      6  C   UNL     1       2.638   4.342  17.376  0.00  0.00    +0.000 C 
ATOM      7  C   UNL     1       4.052   4.768  17.596  0.00  0.00    +0.000 A 
ATOM      8  C   UNL     1       5.188   4.079  17.198  0.00  0.00    +0.000 A 
ATOM      9  C   UNL     1       6.435   4.614  17.513  0.00  0.00    +0.000 A 
ATOM     10  C   UNL     1       6.531   5.828  18.211  0.00  0.00    +0.000 A 
ATOM     11  C   UNL     1       5.381   6.521  18.597  0.00  0.00    +0.000 A 
ATOM     12  C   UNL     1       4.140   5.982  18.283  0.00  0.00    +0.000 A 
ATOM     13  C   UNL     1       2.322   7.845  18.118  0.00  0.00    +0.000 C 
ATOM     14  O   UNL     1       2.359   8.212  16.952  0.00  0.00    +0.000 OA
ATOM     15  N   UNL     1       1.691   8.496  19.151  0.00  0.00    +0.000 N 
ATOM     16  H   UNL     1       2.836   6.024  20.785  0.00  0.00    +0.000 HD
ENDROOT
BRANCH  15  17
ATOM     17  C   UNL     1       0.730   9.562  18.975  0.00  0.00    +0.000 C 
BRANCH  17  18
ATOM     18  C   UNL     1       1.275  10.960  19.143  0.00  0.00    +0.000 A 
ATOM     19  C   UNL     1       2.101  11.495  18.134  0.00  0.00    +0.000 A 
ATOM     20  C   UNL     1       2.736  12.725  18.307  0.00  0.00    +0.000 A 
ATOM     21  C   UNL     1       2.552  13.431  19.488  0.00  0.00    +0.000 A 
ATOM     22  F   UNL     1       3.190  14.593  19.668  0.00  0.00    +0.000 F 
ATOM     23  C   UNL     1       1.730  12.940  20.491  0.00  0.00    +0.000 A 
ATOM     24  C   UNL     1       1.092  11.709  20.322  0.00  0.00    +0.000 A 
ATOM     25 CL   UNL     1       0.117  11.150  21.635  0.00  0.00    +0.000 Cl
ENDBRANCH  17  18
ENDBRANCH  15  17
TORSDOF 2
ENDMDL
MODEL 8
REMARK VINA RESULT:      -6.7      3.445      5.148
REMARK  Name = 
REMARK  2 active torsions:
REMARK  status: ('A' for Active; 'I' for Inactive)
REMARK    1  A    between atoms: N_15  and  C_16
REMARK    2  A    between atoms: C_16  and  C_17
REMARK                            x       y       z     vdW  Elec       q    Type
REMARK                         _______ _______ _______ _____ _____    ______ ____
ROOT
ATOM      1  O   UNL     1       3.486   7.612  17.386  0.00  0.00    +0.000 OA
ATOM      2  C   UNL     1       2.680   8.227  18.062  0.00  0.00    +0.000 C 
ATOM      3  N   UNL     1       2.017   9.350  17.629  0.00  0.00    +0.000 N 
ATOM      4  C   UNL     1       0.946   9.703  18.522  0.00  0.00    +0.000 C 
ATOM      5  C   UNL     1      -0.429   9.224  17.994  0.00  0.00    +0.000 C 
ATOM      6  C   UNL     1      -1.380  10.429  17.964  0.00  0.00    +0.000 C 
ATOM      7  C   UNL     1      -0.508  11.579  18.345  0.00  0.00    +0.000 A 
ATOM      8  C   UNL     1      -0.876  12.916  18.368  0.00  0.00    +0.000 A 
ATOM      9  C   UNL     1       0.080  13.864  18.725  0.00  0.00    +0.000 A 
ATOM     10  C   UNL     1       1.384  13.466  19.060  0.00  0.00    +0.000 A 
ATOM     11  C   UNL     1       1.743  12.115  19.046  0.00  0.00    +0.000 A 
ATOM     12  C   UNL     1       0.786  11.175  18.687  0.00  0.00    +0.000 A 
ATOM     13  C   UNL     1       1.318   8.847  19.738  0.00  0.00    +0.000 C 
ATOM     14  O   UNL     1       0.763   8.865  20.828  0.00  0.00    +0.000 OA
ATOM     15  N   UNL     1       2.258   7.935  19.324  0.00  0.00    +0.000 N 
ATOM     16  H   UNL     1       2.133   9.706  16.690  0.00  0.00    +0.000 HD
ENDROOT
BRANCH  15  17
ATOM     17  C   UNL     1       2.531   6.685  19.998  0.00  0.00    +0.000 C 
BRANCH  17  18
ATOM     18  C   UNL     1       2.583   5.466  19.107  0.00  0.00    +0.000 A 
ATOM     19  C   UNL     1       1.374   4.913  18.639  0.00  0.00    +0.000 A 
ATOM     20  C   UNL     1       1.365   3.711  17.929  0.00  0.00    +0.000 A 
ATOM     21  C   UNL     1       2.562   3.054  17.680  0.00  0.00    +0.000 A 
ATOM     22  F   UNL     1       2.549   1.884  17.031  0.00  0.00    +0.000 F 
ATOM     23  C   UNL     1       3.769   3.583  18.111  0.00  0.00    +0.000 A 
ATOM     24  C   UNL     1       3.783   4.785  18.822  0.00  0.00    +0.000 A 
ATOM     25 CL   UNL     1       5.324   5.357  19.357  0.00  0.00    +0.000 Cl
ENDBRANCH  17  18
ENDBRANCH  15  17
TORSDOF 2
ENDMDL
MODEL 9
REMARK VINA RESULT:      -6.7      4.632      7.693
REMARK  Name = 
REMARK  2 active torsions:
REMARK  status: ('A' for Active; 'I' for Inactive)
REMARK    1  A    between atoms: N_15  and  C_16
REMARK    2  A    between atoms: C_16  and  C_17
REMARK                            x       y       z     vdW  Elec       q    Type
REMARK                         _______ _______ _______ _____ _____    ______ ____
ROOT
ATOM      1  O   UNL     1       1.224   8.674  21.399  0.00  0.00    +0.000 OA
ATOM      2  C   UNL     1       1.720   8.213  20.386  0.00  0.00    +0.000 C 
ATOM      3  N   UNL     1       2.113   6.903  20.256  0.00  0.00    +0.000 N 
ATOM      4  C   UNL     1       2.411   6.580  18.886  0.00  0.00    +0.000 C 
ATOM      5  C   UNL     1       1.239   5.838  18.198  0.00  0.00    +0.000 C 
ATOM      6  C   UNL     1       1.783   4.539  17.588  0.00  0.00    +0.000 C 
ATOM      7  C   UNL     1       3.204   4.499  18.044  0.00  0.00    +0.000 A 
ATOM      8  C   UNL     1       4.105   3.465  17.836  0.00  0.00    +0.000 A 
ATOM      9  C   UNL     1       5.389   3.587  18.360  0.00  0.00    +0.000 A 
ATOM     10  C   UNL     1       5.760   4.738  19.073  0.00  0.00    +0.000 A 
ATOM     11  C   UNL     1       4.850   5.780  19.266  0.00  0.00    +0.000 A 
ATOM     12  C   UNL     1       3.568   5.652  18.745  0.00  0.00    +0.000 A 
ATOM     13  C   UNL     1       2.502   7.989  18.292  0.00  0.00    +0.000 C 
ATOM     14  O   UNL     1       2.843   8.270  17.151  0.00  0.00    +0.000 OA
ATOM     15  N   UNL     1       1.959   8.856  19.210  0.00  0.00    +0.000 N 
ATOM     16  H   UNL     1       1.964   6.228  20.993  0.00  0.00    +0.000 HD
ENDROOT
BRANCH  15  17
ATOM     17  C   UNL     1       1.436  10.164  18.883  0.00  0.00    +0.000 C 
BRANCH  17  18
ATOM     18  C   UNL     1      -0.054  10.225  18.640  0.00  0.00    +0.000 A 
ATOM     19  C   UNL     1      -0.575   9.653  17.463  0.00  0.00    +0.000 A 
ATOM     20  C   UNL     1      -1.922   9.803  17.130  0.00  0.00    +0.000 A 
ATOM     21  C   UNL     1      -2.758  10.525  17.971  0.00  0.00    +0.000 A 
ATOM     22  F   UNL     1      -4.041  10.701  17.633  0.00  0.00    +0.000 F 
ATOM     23  C   UNL     1      -2.279  11.084  19.146  0.00  0.00    +0.000 A 
ATOM     24  C   UNL     1      -0.932  10.935  19.483  0.00  0.00    +0.000 A 
ATOM     25 CL   UNL     1      -0.405  11.694  20.943  0.00  0.00    +0.000 Cl
ENDBRANCH  17  18
ENDBRANCH  15  17
TORSDOF 2
ENDMDL
