MODEL 1
REMARK VINA RESULT:      -8.5      0.000      0.000
REMARK  Name = 
REMARK  4 active torsions:
REMARK  status: ('A' for Active; 'I' for Inactive)
REMARK    1  A    between atoms: C_2  and  C_3
REMARK    2  A    between atoms: N_6  and  C_7
REMARK    3  A    between atoms: C_7  and  C_8
REMARK    4  A    between atoms: C_18  and  C_19
REMARK                            x       y       z     vdW  Elec       q    Type
REMARK                         _______ _______ _______ _____ _____    ______ ____
ROOT
ATOM      1  O   UNL     1       0.992   8.020  21.868  0.00  0.00    +0.000 OA
ATOM      2  C   UNL     1       1.288   8.153  20.679  0.00  0.00    +0.000 C 
ATOM      3  N   UNL     1       1.955   7.146  19.973  0.00  0.00    +0.000 N 
ATOM      4  C   UNL     1       2.326   7.218  18.565  0.00  0.00    +0.000 C 
ATOM      5  C   UNL     1       2.129   5.900  17.828  0.00  0.00    +0.000 C 
ATOM      6  C   UNL     1       2.766   4.711  18.554  0.00  0.00    +0.000 C 
ATOM      7  C   UNL     1       2.270   4.695  20.008  0.00  0.00    +0.000 C 
ATOM      8  C   UNL     1       2.516   6.021  20.720  0.00  0.00    +0.000 C 
ENDROOT
BRANCH   6   9
ATOM      9  C   UNL     1       4.274   4.645  18.415  0.00  0.00    +0.000 A 
ATOM     10  C   UNL     1       5.225   4.788  19.410  0.00  0.00    +0.000 A 
ATOM     11  N   UNL     1       6.469   4.709  18.849  0.00  0.00    +0.000 N 
ATOM     12  C   UNL     1       6.363   4.617  17.485  0.00  0.00    +0.000 A 
ATOM     13  C   UNL     1       7.367   4.621  16.510  0.00  0.00    +0.000 A 
ATOM     14  C   UNL     1       6.968   4.540  15.175  0.00  0.00    +0.000 A 
ATOM     15  C   UNL     1       5.623   4.418  14.836  0.00  0.00    +0.000 A 
ATOM     16  C   UNL     1       4.634   4.406  15.826  0.00  0.00    +0.000 A 
ATOM     17  C   UNL     1       5.005   4.531  17.181  0.00  0.00    +0.000 A 
ATOM     18  H   UNL     1       7.342   4.774  19.354  0.00  0.00    +0.000 HD
ENDBRANCH   6   9
BRANCH   2  19
ATOM     19  C   UNL     1       0.914   9.374  19.976  0.00  0.00    +0.000 A 
ATOM     20  C   UNL     1       1.644  10.233  19.122  0.00  0.00    +0.000 A 
ATOM     21  N   UNL     1       0.921  11.252  18.652  0.00  0.00    +0.000 NA
ATOM     22  N   UNL     1      -0.276  11.086  19.251  0.00  0.00    +0.000 N 
ATOM     23  C   UNL     1      -0.314  10.001  20.078  0.00  0.00    +0.000 A 
BRANCH  22  24
ATOM     24  C   UNL     1      -1.316  12.092  19.088  0.00  0.00    +0.000 C 
BRANCH  24  25
ATOM     25  C   UNL     1      -2.378  11.661  18.109  0.00  0.00    +0.000 A 
ATOM     26  C   UNL     1      -3.734  11.682  18.469  0.00  0.00    +0.000 A 
ATOM     27  C   UNL     1      -4.716  11.301  17.553  0.00  0.00    +0.000 A 
ATOM     28  C   UNL     1      -4.354  10.891  16.271  0.00  0.00    +0.000 A 
ATOM     29  C   UNL     1      -3.011  10.854  15.905  0.00  0.00    +0.000 A 
ATOM     30  C   UNL     1      -2.026  11.230  16.821  0.00  0.00    +0.000 A 
ENDBRANCH  24  25
ENDBRANCH  22  24
ENDBRANCH   2  19
TORSDOF 4
ENDMDL
MODEL 2
REMARK VINA RESULT:      -8.5      3.607      9.449
REMARK  Name = 
REMARK  4 active torsions:
REMARK  status: ('A' for Active; 'I' for Inactive)
REMARK    1  A    between atoms: C_2  and  C_3
REMARK    2  A    between atoms: N_6  and  C_7
REMARK    3  A    between atoms: C_7  and  C_8
REMARK    4  A    between atoms: C_18  and  C_19
REMARK                            x       y       z     vdW  Elec       q    Type
REMARK                         _______ _______ _______ _____ _____    ______ ____
ROOT
ATOM      1  O   UNL     1      -0.981  10.105  18.044  0.00  0.00    +0.000 OA
ATOM      2  C   UNL     1       0.164  10.372  18.412  0.00  0.00    +0.000 C 
ATOM      3  N   UNL     1       0.529  11.668  18.791  0.00  0.00    +0.000 N 
ATOM      4  C   UNL     1       1.855  12.062  19.252  0.00  0.00    +0.000 C 
ATOM      5  C   UNL     1       1.814  13.063  20.400  0.00  0.00    +0.000 C 
ATOM      6  C   UNL     1       0.900  14.258  20.115  0.00  0.00    +0.000 C 
ATOM      7  C   UNL     1      -0.481  13.736  19.691  0.00  0.00    +0.000 C 
ATOM      8  C   UNL     1      -0.400  12.765  18.518  0.00  0.00    +0.000 C 
ENDROOT
BRANCH   6   9
ATOM      9  C   UNL     1       1.498  15.271  19.160  0.00  0.00    +0.000 A 
ATOM     10  C   UNL     1       2.833  15.455  18.843  0.00  0.00    +0.000 A 
ATOM     11  N   UNL     1       2.942  16.507  17.977  0.00  0.00    +0.000 N 
ATOM     12  C   UNL     1       1.716  17.090  17.790  0.00  0.00    +0.000 A 
ATOM     13  C   UNL     1       1.376  18.246  17.079  0.00  0.00    +0.000 A 
ATOM     14  C   UNL     1       0.034  18.631  17.077  0.00  0.00    +0.000 A 
ATOM     15  C   UNL     1      -0.931  17.865  17.726  0.00  0.00    +0.000 A 
ATOM     16  C   UNL     1      -0.573  16.706  18.424  0.00  0.00    +0.000 A 
ATOM     17  C   UNL     1       0.781  16.318  18.481  0.00  0.00    +0.000 A 
ATOM     18  H   UNL     1       3.807  16.849  17.581  0.00  0.00    +0.000 HD
ENDBRANCH   6   9
BRANCH   2  19
ATOM     19  C   UNL     1       1.163   9.311  18.485  0.00  0.00    +0.000 A 
ATOM     20  C   UNL     1       2.131   8.862  17.557  0.00  0.00    +0.000 A 
ATOM     21  N   UNL     1       2.885   7.863  18.022  0.00  0.00    +0.000 NA
ATOM     22  N   UNL     1       2.365   7.623  19.243  0.00  0.00    +0.000 N 
ATOM     23  C   UNL     1       1.312   8.437  19.545  0.00  0.00    +0.000 A 
BRANCH  22  24
ATOM     24  C   UNL     1       2.845   6.494  20.028  0.00  0.00    +0.000 C 
BRANCH  24  25
ATOM     25  C   UNL     1       2.137   5.212  19.675  0.00  0.00    +0.000 A 
ATOM     26  C   UNL     1       1.496   4.452  20.665  0.00  0.00    +0.000 A 
ATOM     27  C   UNL     1       0.824   3.275  20.330  0.00  0.00    +0.000 A 
ATOM     28  C   UNL     1       0.789   2.843  19.006  0.00  0.00    +0.000 A 
ATOM     29  C   UNL     1       1.432   3.581  18.016  0.00  0.00    +0.000 A 
ATOM     30  C   UNL     1       2.109   4.756  18.348  0.00  0.00    +0.000 A 
ENDBRANCH  24  25
ENDBRANCH  22  24
ENDBRANCH   2  19
TORSDOF 4
ENDMDL
MODEL 3
REMARK VINA RESULT:      -8.4      0.749      1.196
REMARK  Name = 
REMARK  4 active torsions:
REMARK  status: ('A' for Active; 'I' for Inactive)
REMARK    1  A    between atoms: C_2  and  C_3
REMARK    2  A    between atoms: N_6  and  C_7
REMARK    3  A    between atoms: C_7  and  C_8
REMARK    4  A    between atoms: C_18  and  C_19
REMARK                            x       y       z     vdW  Elec       q    Type
REMARK                         _______ _______ _______ _____ _____    ______ ____
ROOT
ATOM      1  O   UNL     1       0.392   7.847  21.968  0.00  0.00    +0.000 OA
ATOM      2  C   UNL     1       0.923   8.212  20.918  0.00  0.00    +0.000 C 
ATOM      3  N   UNL     1       1.655   7.326  20.120  0.00  0.00    +0.000 N 
ATOM      4  C   UNL     1       2.300   7.674  18.859  0.00  0.00    +0.000 C 
ATOM      5  C   UNL     1       2.174   6.583  17.804  0.00  0.00    +0.000 C 
ATOM      6  C   UNL     1       2.585   5.202  18.324  0.00  0.00    +0.000 C 
ATOM      7  C   UNL     1       1.812   4.911  19.620  0.00  0.00    +0.000 C 
ATOM      8  C   UNL     1       1.992   6.010  20.662  0.00  0.00    +0.000 C 
ENDROOT
BRANCH   6   9
ATOM      9  C   UNL     1       4.084   5.014  18.443  0.00  0.00    +0.000 A 
ATOM     10  C   UNL     1       4.869   5.145  19.575  0.00  0.00    +0.000 A 
ATOM     11  N   UNL     1       6.177   4.938  19.235  0.00  0.00    +0.000 N 
ATOM     12  C   UNL     1       6.287   4.770  17.879  0.00  0.00    +0.000 A 
ATOM     13  C   UNL     1       7.432   4.638  17.086  0.00  0.00    +0.000 A 
ATOM     14  C   UNL     1       7.251   4.506  15.708  0.00  0.00    +0.000 A 
ATOM     15  C   UNL     1       5.974   4.466  15.155  0.00  0.00    +0.000 A 
ATOM     16  C   UNL     1       4.840   4.590  15.965  0.00  0.00    +0.000 A 
ATOM     17  C   UNL     1       4.994   4.769  17.355  0.00  0.00    +0.000 A 
ATOM     18  H   UNL     1       6.958   4.967  19.875  0.00  0.00    +0.000 HD
ENDBRANCH   6   9
BRANCH   2  19
ATOM     19  C   UNL     1       0.767   9.592  20.474  0.00  0.00    +0.000 A 
ATOM     20  C   UNL     1       1.200  10.818  21.031  0.00  0.00    +0.000 A 
ATOM     21  N   UNL     1       0.871  11.880  20.292  0.00  0.00    +0.000 NA
ATOM     22  N   UNL     1       0.168  11.345  19.273  0.00  0.00    +0.000 N 
ATOM     23  C   UNL     1       0.049   9.988  19.361  0.00  0.00    +0.000 A 
BRANCH  22  24
ATOM     24  C   UNL     1      -0.484  12.215  18.305  0.00  0.00    +0.000 C 
BRANCH  24  25
ATOM     25  C   UNL     1      -1.935  11.859  18.104  0.00  0.00    +0.000 A 
ATOM     26  C   UNL     1      -2.367  11.260  16.912  0.00  0.00    +0.000 A 
ATOM     27  C   UNL     1      -3.708  10.913  16.739  0.00  0.00    +0.000 A 
ATOM     28  C   UNL     1      -4.631  11.166  17.751  0.00  0.00    +0.000 A 
ATOM     29  C   UNL     1      -4.217  11.773  18.935  0.00  0.00    +0.000 A 
ATOM     30  C   UNL     1      -2.878  12.124  19.109  0.00  0.00    +0.000 A 
ENDBRANCH  24  25
ENDBRANCH  22  24
ENDBRANCH   2  19
TORSDOF 4
ENDMDL
MODEL 4
REMARK VINA RESULT:      -8.4      1.750      9.010
REMARK  Name = 
REMARK  4 active torsions:
REMARK  status: ('A' for Active; 'I' for Inactive)
REMARK    1  A    between atoms: C_2  and  C_3
REMARK    2  A    between atoms: N_6  and  C_7
REMARK    3  A    between atoms: C_7  and  C_8
REMARK    4  A    between atoms: C_18  and  C_19
REMARK                            x       y       z     vdW  Elec       q    Type
REMARK                         _______ _______ _______ _____ _____    ______ ____
ROOT
ATOM      1  O   UNL     1       1.616   8.580  22.381  0.00  0.00    +0.000 OA
ATOM      2  C   UNL     1       1.351   8.530  21.179  0.00  0.00    +0.000 C 
ATOM      3  N   UNL     1       0.681   9.574  20.532  0.00  0.00    +0.000 N 
ATOM      4  C   UNL     1       0.344   9.600  19.114  0.00  0.00    +0.000 C 
ATOM      5  C   UNL     1       0.533  10.972  18.480  0.00  0.00    +0.000 C 
ATOM      6  C   UNL     1      -0.145  12.092  19.275  0.00  0.00    +0.000 C 
ATOM      7  C   UNL     1       0.317  12.010  20.739  0.00  0.00    +0.000 C 
ATOM      8  C   UNL     1       0.080  10.631  21.346  0.00  0.00    +0.000 C 
ENDROOT
BRANCH   6   9
ATOM      9  C   UNL     1      -1.649  12.141  19.104  0.00  0.00    +0.000 A 
ATOM     10  C   UNL     1      -2.599  12.516  20.039  0.00  0.00    +0.000 A 
ATOM     11  N   UNL     1      -3.843  12.369  19.492  0.00  0.00    +0.000 N 
ATOM     12  C   UNL     1      -3.743  11.808  18.245  0.00  0.00    +0.000 A 
ATOM     13  C   UNL     1      -4.752  11.385  17.373  0.00  0.00    +0.000 A 
ATOM     14  C   UNL     1      -4.360  10.817  16.159  0.00  0.00    +0.000 A 
ATOM     15  C   UNL     1      -3.013  10.716  15.819  0.00  0.00    +0.000 A 
ATOM     16  C   UNL     1      -2.018  11.154  16.700  0.00  0.00    +0.000 A 
ATOM     17  C   UNL     1      -2.384  11.691  17.951  0.00  0.00    +0.000 A 
ATOM     18  H   UNL     1      -4.714  12.580  19.958  0.00  0.00    +0.000 HD
ENDBRANCH   6   9
BRANCH   2  19
ATOM     19  C   UNL     1       1.766   7.371  20.397  0.00  0.00    +0.000 A 
ATOM     20  C   UNL     1       1.530   5.987  20.564  0.00  0.00    +0.000 A 
ATOM     21  N   UNL     1       2.072   5.238  19.601  0.00  0.00    +0.000 NA
ATOM     22  N   UNL     1       2.715   6.139  18.831  0.00  0.00    +0.000 N 
ATOM     23  C   UNL     1       2.591   7.419  19.289  0.00  0.00    +0.000 A 
BRANCH  22  24
ATOM     24  C   UNL     1       3.551   5.687  17.728  0.00  0.00    +0.000 C 
BRANCH  24  25
ATOM     25  C   UNL     1       5.016   5.935  17.984  0.00  0.00    +0.000 A 
ATOM     26  C   UNL     1       5.748   6.806  17.164  0.00  0.00    +0.000 A 
ATOM     27  C   UNL     1       7.099   7.049  17.417  0.00  0.00    +0.000 A 
ATOM     28  C   UNL     1       7.733   6.421  18.487  0.00  0.00    +0.000 A 
ATOM     29  C   UNL     1       7.020   5.545  19.302  0.00  0.00    +0.000 A 
ATOM     30  C   UNL     1       5.670   5.297  19.049  0.00  0.00    +0.000 A 
ENDBRANCH  24  25
ENDBRANCH  22  24
ENDBRANCH   2  19
TORSDOF 4
ENDMDL
MODEL 5
REMARK VINA RESULT:      -8.3      0.914      1.363
REMARK  Name = 
REMARK  4 active torsions:
REMARK  status: ('A' for Active; 'I' for Inactive)
REMARK    1  A    between atoms: C_2  and  C_3
REMARK    2  A    between atoms: N_6  and  C_7
REMARK    3  A    between atoms: C_7  and  C_8
REMARK    4  A    between atoms: C_18  and  C_19
REMARK                            x       y       z     vdW  Elec       q    Type
REMARK                         _______ _______ _______ _____ _____    ______ ____
ROOT
ATOM      1  O   UNL     1       0.514   8.051  21.954  0.00  0.00    +0.000 OA
ATOM      2  C   UNL     1       0.990   8.345  20.856  0.00  0.00    +0.000 C 
ATOM      3  N   UNL     1       1.702   7.413  20.094  0.00  0.00    +0.000 N 
ATOM      4  C   UNL     1       2.283   7.677  18.782  0.00  0.00    +0.000 C 
ATOM      5  C   UNL     1       2.131   6.507  17.817  0.00  0.00    +0.000 C 
ATOM      6  C   UNL     1       2.592   5.176  18.419  0.00  0.00    +0.000 C 
ATOM      7  C   UNL     1       1.884   4.971  19.767  0.00  0.00    +0.000 C 
ATOM      8  C   UNL     1       2.088   6.147  20.716  0.00  0.00    +0.000 C 
ENDROOT
BRANCH   6   9
ATOM      9  C   UNL     1       4.098   5.022  18.482  0.00  0.00    +0.000 A 
ATOM     10  C   UNL     1       4.927   5.219  19.573  0.00  0.00    +0.000 A 
ATOM     11  N   UNL     1       6.223   5.020  19.187  0.00  0.00    +0.000 N 
ATOM     12  C   UNL     1       6.280   4.793  17.836  0.00  0.00    +0.000 A 
ATOM     13  C   UNL     1       7.394   4.646  17.002  0.00  0.00    +0.000 A 
ATOM     14  C   UNL     1       7.158   4.447  15.640  0.00  0.00    +0.000 A 
ATOM     15  C   UNL     1       5.860   4.359  15.144  0.00  0.00    +0.000 A 
ATOM     16  C   UNL     1       4.758   4.498  15.996  0.00  0.00    +0.000 A 
ATOM     17  C   UNL     1       4.967   4.744  17.369  0.00  0.00    +0.000 A 
ATOM     18  H   UNL     1       7.029   5.093  19.791  0.00  0.00    +0.000 HD
ENDBRANCH   6   9
BRANCH   2  19
ATOM     19  C   UNL     1       0.787   9.685  20.319  0.00  0.00    +0.000 A 
ATOM     20  C   UNL     1       1.445  10.912  20.570  0.00  0.00    +0.000 A 
ATOM     21  N   UNL     1       0.968  11.926  19.844  0.00  0.00    +0.000 NA
ATOM     22  N   UNL     1      -0.047  11.365  19.156  0.00  0.00    +0.000 N 
ATOM     23  C   UNL     1      -0.216  10.040  19.436  0.00  0.00    +0.000 A 
BRANCH  22  24
ATOM     24  C   UNL     1      -0.914  12.197  18.333  0.00  0.00    +0.000 C 
BRANCH  24  25
ATOM     25  C   UNL     1      -2.340  12.190  18.819  0.00  0.00    +0.000 A 
ATOM     26  C   UNL     1      -2.682  12.783  20.043  0.00  0.00    +0.000 A 
ATOM     27  C   UNL     1      -4.008  12.793  20.480  0.00  0.00    +0.000 A 
ATOM     28  C   UNL     1      -5.004  12.206  19.702  0.00  0.00    +0.000 A 
ATOM     29  C   UNL     1      -4.676  11.603  18.490  0.00  0.00    +0.000 A 
ATOM     30  C   UNL     1      -3.350  11.589  18.053  0.00  0.00    +0.000 A 
ENDBRANCH  24  25
ENDBRANCH  22  24
ENDBRANCH   2  19
TORSDOF 4
ENDMDL
MODEL 6
REMARK VINA RESULT:      -8.2      2.422      9.794
REMARK  Name = 
REMARK  4 active torsions:
REMARK  status: ('A' for Active; 'I' for Inactive)
REMARK    1  A    between atoms: C_2  and  C_3
REMARK    2  A    between atoms: N_6  and  C_7
REMARK    3  A    between atoms: C_7  and  C_8
REMARK    4  A    between atoms: C_18  and  C_19
REMARK                            x       y       z     vdW  Elec       q    Type
REMARK                         _______ _______ _______ _____ _____    ______ ____
ROOT
ATOM      1  O   UNL     1       1.043  10.064  21.426  0.00  0.00    +0.000 OA
ATOM      2  C   UNL     1       0.652   9.957  20.263  0.00  0.00    +0.000 C 
ATOM      3  N   UNL     1      -0.505  10.605  19.816  0.00  0.00    +0.000 N 
ATOM      4  C   UNL     1      -1.024  10.543  18.455  0.00  0.00    +0.000 C 
ATOM      5  C   UNL     1      -1.572  11.877  17.965  0.00  0.00    +0.000 C 
ATOM      6  C   UNL     1      -2.554  12.515  18.951  0.00  0.00    +0.000 C 
ATOM      7  C   UNL     1      -1.892  12.582  20.336  0.00  0.00    +0.000 C 
ATOM      8  C   UNL     1      -1.388  11.221  20.805  0.00  0.00    +0.000 C 
ENDROOT
BRANCH   6   9
ATOM      9  C   UNL     1      -3.926  11.872  18.952  0.00  0.00    +0.000 A 
ATOM     10  C   UNL     1      -4.474  11.037  17.993  0.00  0.00    +0.000 A 
ATOM     11  N   UNL     1      -5.752  10.720  18.358  0.00  0.00    +0.000 N 
ATOM     12  C   UNL     1      -6.100  11.407  19.493  0.00  0.00    +0.000 A 
ATOM     13  C   UNL     1      -7.330  11.472  20.155  0.00  0.00    +0.000 A 
ATOM     14  C   UNL     1      -7.411  12.283  21.289  0.00  0.00    +0.000 A 
ATOM     15  C   UNL     1      -6.292  12.966  21.760  0.00  0.00    +0.000 A 
ATOM     16  C   UNL     1      -5.067  12.881  21.090  0.00  0.00    +0.000 A 
ATOM     17  C   UNL     1      -4.968  12.105  19.916  0.00  0.00    +0.000 A 
ATOM     18  H   UNL     1      -6.375  10.118  17.838  0.00  0.00    +0.000 HD
ENDBRANCH   6   9
BRANCH   2  19
ATOM     19  C   UNL     1       1.423   9.162  19.314  0.00  0.00    +0.000 A 
ATOM     20  C   UNL     1       1.827   9.412  17.982  0.00  0.00    +0.000 A 
ATOM     21  N   UNL     1       2.556   8.425  17.456  0.00  0.00    +0.000 NA
ATOM     22  N   UNL     1       2.578   7.499  18.436  0.00  0.00    +0.000 N 
ATOM     23  C   UNL     1       1.884   7.880  19.548  0.00  0.00    +0.000 A 
BRANCH  22  24
ATOM     24  C   UNL     1       3.181   6.196  18.190  0.00  0.00    +0.000 C 
BRANCH  24  25
ATOM     25  C   UNL     1       2.401   5.077  18.832  0.00  0.00    +0.000 A 
ATOM     26  C   UNL     1       1.613   4.216  18.055  0.00  0.00    +0.000 A 
ATOM     27  C   UNL     1       0.909   3.168  18.651  0.00  0.00    +0.000 A 
ATOM     28  C   UNL     1       0.981   2.974  20.029  0.00  0.00    +0.000 A 
ATOM     29  C   UNL     1       1.750   3.830  20.814  0.00  0.00    +0.000 A 
ATOM     30  C   UNL     1       2.451   4.880  20.221  0.00  0.00    +0.000 A 
ENDBRANCH  24  25
ENDBRANCH  22  24
ENDBRANCH   2  19
TORSDOF 4
ENDMDL
MODEL 7
REMARK VINA RESULT:      -8.1      3.470      9.430
REMARK  Name = 
REMARK  4 active torsions:
REMARK  status: ('A' for Active; 'I' for Inactive)
REMARK    1  A    between atoms: C_2  and  C_3
REMARK    2  A    between atoms: N_6  and  C_7
REMARK    3  A    between atoms: C_7  and  C_8
REMARK    4  A    between atoms: C_18  and  C_19
REMARK                            x       y       z     vdW  Elec       q    Type
REMARK                         _______ _______ _______ _____ _____    ______ ____
ROOT
ATOM      1  O   UNL     1      -0.459   9.744  21.101  0.00  0.00    +0.000 OA
ATOM      2  C   UNL     1       0.291  10.311  20.305  0.00  0.00    +0.000 C 
ATOM      3  N   UNL     1       0.446  11.702  20.309  0.00  0.00    +0.000 N 
ATOM      4  C   UNL     1       1.322  12.447  19.413  0.00  0.00    +0.000 C 
ATOM      5  C   UNL     1       2.040  13.600  20.104  0.00  0.00    +0.000 C 
ATOM      6  C   UNL     1       1.089  14.502  20.897  0.00  0.00    +0.000 C 
ATOM      7  C   UNL     1       0.253  13.627  21.845  0.00  0.00    +0.000 C 
ATOM      8  C   UNL     1      -0.475  12.507  21.110  0.00  0.00    +0.000 C 
ENDROOT
BRANCH   6   9
ATOM      9  C   UNL     1       0.268  15.436  20.032  0.00  0.00    +0.000 A 
ATOM     10  C   UNL     1      -1.110  15.562  19.988  0.00  0.00    +0.000 A 
ATOM     11  N   UNL     1      -1.442  16.485  19.036  0.00  0.00    +0.000 N 
ATOM     12  C   UNL     1      -0.315  16.903  18.376  0.00  0.00    +0.000 A 
ATOM     13  C   UNL     1      -0.192  17.750  17.270  0.00  0.00    +0.000 A 
ATOM     14  C   UNL     1       1.094  17.988  16.780  0.00  0.00    +0.000 A 
ATOM     15  C   UNL     1       2.210  17.431  17.399  0.00  0.00    +0.000 A 
ATOM     16  C   UNL     1       2.067  16.593  18.511  0.00  0.00    +0.000 A 
ATOM     17  C   UNL     1       0.777  16.300  19.001  0.00  0.00    +0.000 A 
ATOM     18  H   UNL     1      -2.382  16.772  18.805  0.00  0.00    +0.000 HD
ENDBRANCH   6   9
BRANCH   2  19
ATOM     19  C   UNL     1       1.061   9.521  19.352  0.00  0.00    +0.000 A 
ATOM     20  C   UNL     1       1.244   9.644  17.955  0.00  0.00    +0.000 A 
ATOM     21  N   UNL     1       2.060   8.717  17.445  0.00  0.00    +0.000 NA
ATOM     22  N   UNL     1       2.364   7.950  18.511  0.00  0.00    +0.000 N 
ATOM     23  C   UNL     1       1.761   8.370  19.662  0.00  0.00    +0.000 A 
BRANCH  22  24
ATOM     24  C   UNL     1       3.145   6.735  18.332  0.00  0.00    +0.000 C 
BRANCH  24  25
ATOM     25  C   UNL     1       2.402   5.506  18.791  0.00  0.00    +0.000 A 
ATOM     26  C   UNL     1       2.170   5.278  20.156  0.00  0.00    +0.000 A 
ATOM     27  C   UNL     1       1.464   4.150  20.575  0.00  0.00    +0.000 A 
ATOM     28  C   UNL     1       0.986   3.236  19.638  0.00  0.00    +0.000 A 
ATOM     29  C   UNL     1       1.221   3.445  18.281  0.00  0.00    +0.000 A 
ATOM     30  C   UNL     1       1.930   4.570  17.859  0.00  0.00    +0.000 A 
ENDBRANCH  24  25
ENDBRANCH  22  24
ENDBRANCH   2  19
TORSDOF 4
ENDMDL
MODEL 8
REMARK VINA RESULT:      -8.1      1.379      9.162
REMARK  Name = 
REMARK  4 active torsions:
REMARK  status: ('A' for Active; 'I' for Inactive)
REMARK    1  A    between atoms: C_2  and  C_3
REMARK    2  A    between atoms: N_6  and  C_7
REMARK    3  A    between atoms: C_7  and  C_8
REMARK    4  A    between atoms: C_18  and  C_19
REMARK                            x       y       z     vdW  Elec       q    Type
REMARK                         _______ _______ _______ _____ _____    ______ ____
ROOT
ATOM      1  O   UNL     1       1.391   8.358  21.996  0.00  0.00    +0.000 OA
ATOM      2  C   UNL     1       1.268   8.611  20.796  0.00  0.00    +0.000 C 
ATOM      3  N   UNL     1       0.520   9.706  20.350  0.00  0.00    +0.000 N 
ATOM      4  C   UNL     1       0.340  10.082  18.953  0.00  0.00    +0.000 C 
ATOM      5  C   UNL     1       0.383  11.589  18.731  0.00  0.00    +0.000 C 
ATOM      6  C   UNL     1      -0.542  12.356  19.680  0.00  0.00    +0.000 C 
ATOM      7  C   UNL     1      -0.235  11.928  21.124  0.00  0.00    +0.000 C 
ATOM      8  C   UNL     1      -0.321  10.417  21.312  0.00  0.00    +0.000 C 
ENDROOT
BRANCH   6   9
ATOM      9  C   UNL     1      -2.008  12.271  19.309  0.00  0.00    +0.000 A 
ATOM     10  C   UNL     1      -3.105  12.533  20.112  0.00  0.00    +0.000 A 
ATOM     11  N   UNL     1      -4.245  12.287  19.401  0.00  0.00    +0.000 N 
ATOM     12  C   UNL     1      -3.929  11.769  18.172  0.00  0.00    +0.000 A 
ATOM     13  C   UNL     1      -4.769  11.277  17.167  0.00  0.00    +0.000 A 
ATOM     14  C   UNL     1      -4.167  10.778  16.010  0.00  0.00    +0.000 A 
ATOM     15  C   UNL     1      -2.784  10.810  15.852  0.00  0.00    +0.000 A 
ATOM     16  C   UNL     1      -1.960  11.315  16.865  0.00  0.00    +0.000 A 
ATOM     17  C   UNL     1      -2.538  11.785  18.063  0.00  0.00    +0.000 A 
ATOM     18  H   UNL     1      -5.187  12.405  19.749  0.00  0.00    +0.000 HD
ENDBRANCH   6   9
BRANCH   2  19
ATOM     19  C   UNL     1       1.940   7.771  19.811  0.00  0.00    +0.000 A 
ATOM     20  C   UNL     1       2.393   8.035  18.498  0.00  0.00    +0.000 A 
ATOM     21  N   UNL     1       2.990   6.988  17.924  0.00  0.00    +0.000 NA
ATOM     22  N   UNL     1       2.874   6.017  18.851  0.00  0.00    +0.000 N 
ATOM     23  C   UNL     1       2.221   6.428  19.977  0.00  0.00    +0.000 A 
BRANCH  22  24
ATOM     24  C   UNL     1       3.300   4.660  18.539  0.00  0.00    +0.000 C 
BRANCH  24  25
ATOM     25  C   UNL     1       4.687   4.618  17.951  0.00  0.00    +0.000 A 
ATOM     26  C   UNL     1       4.893   4.177  16.635  0.00  0.00    +0.000 A 
ATOM     27  C   UNL     1       6.177   4.159  16.087  0.00  0.00    +0.000 A 
ATOM     28  C   UNL     1       7.267   4.576  16.848  0.00  0.00    +0.000 A 
ATOM     29  C   UNL     1       7.077   5.005  18.160  0.00  0.00    +0.000 A 
ATOM     30  C   UNL     1       5.795   5.020  18.712  0.00  0.00    +0.000 A 
ENDBRANCH  24  25
ENDBRANCH  22  24
ENDBRANCH   2  19
TORSDOF 4
ENDMDL
MODEL 9
REMARK VINA RESULT:      -8.1      1.368      1.720
REMARK  Name = 
REMARK  4 active torsions:
REMARK  status: ('A' for Active; 'I' for Inactive)
REMARK    1  A    between atoms: C_2  and  C_3
REMARK    2  A    between atoms: N_6  and  C_7
REMARK    3  A    between atoms: C_7  and  C_8
REMARK    4  A    between atoms: C_18  and  C_19
REMARK                            x       y       z     vdW  Elec       q    Type
REMARK                         _______ _______ _______ _____ _____    ______ ____
ROOT
ATOM      1  O   UNL     1       0.194   7.781  21.890  0.00  0.00    +0.000 OA
ATOM      2  C   UNL     1       0.818   8.154  20.896  0.00  0.00    +0.000 C 
ATOM      3  N   UNL     1       1.577   7.262  20.131  0.00  0.00    +0.000 N 
ATOM      4  C   UNL     1       2.331   7.619  18.934  0.00  0.00    +0.000 C 
ATOM      5  C   UNL     1       2.248   6.562  17.840  0.00  0.00    +0.000 C 
ATOM      6  C   UNL     1       2.567   5.153  18.349  0.00  0.00    +0.000 C 
ATOM      7  C   UNL     1       1.685   4.858  19.572  0.00  0.00    +0.000 C 
ATOM      8  C   UNL     1       1.822   5.920  20.657  0.00  0.00    +0.000 C 
ENDROOT
BRANCH   6   9
ATOM      9  C   UNL     1       4.044   4.904  18.577  0.00  0.00    +0.000 A 
ATOM     10  C   UNL     1       4.628   3.939  19.379  0.00  0.00    +0.000 A 
ATOM     11  N   UNL     1       5.986   4.092  19.340  0.00  0.00    +0.000 N 
ATOM     12  C   UNL     1       6.311   5.204  18.606  0.00  0.00    +0.000 A 
ATOM     13  C   UNL     1       7.560   5.797  18.391  0.00  0.00    +0.000 A 
ATOM     14  C   UNL     1       7.598   6.955  17.612  0.00  0.00    +0.000 A 
ATOM     15  C   UNL     1       6.437   7.471  17.040  0.00  0.00    +0.000 A 
ATOM     16  C   UNL     1       5.199   6.858  17.259  0.00  0.00    +0.000 A 
ATOM     17  C   UNL     1       5.124   5.712  18.078  0.00  0.00    +0.000 A 
ATOM     18  H   UNL     1       6.652   3.513  19.831  0.00  0.00    +0.000 HD
ENDBRANCH   6   9
BRANCH   2  19
ATOM     19  C   UNL     1       0.748   9.551  20.482  0.00  0.00    +0.000 A 
ATOM     20  C   UNL     1       1.366  10.717  20.989  0.00  0.00    +0.000 A 
ATOM     21  N   UNL     1       1.057  11.820  20.303  0.00  0.00    +0.000 NA
ATOM     22  N   UNL     1       0.185  11.376  19.376  0.00  0.00    +0.000 N 
ATOM     23  C   UNL     1      -0.058  10.036  19.469  0.00  0.00    +0.000 A 
BRANCH  22  24
ATOM     24  C   UNL     1      -0.490  12.323  18.500  0.00  0.00    +0.000 C 
BRANCH  24  25
ATOM     25  C   UNL     1      -1.909  11.912  18.201  0.00  0.00    +0.000 A 
ATOM     26  C   UNL     1      -2.231  11.278  16.992  0.00  0.00    +0.000 A 
ATOM     27  C   UNL     1      -3.543  10.881  16.728  0.00  0.00    +0.000 A 
ATOM     28  C   UNL     1      -4.546  11.118  17.665  0.00  0.00    +0.000 A 
ATOM     29  C   UNL     1      -4.242  11.758  18.865  0.00  0.00    +0.000 A 
ATOM     30  C   UNL     1      -2.932  12.160  19.129  0.00  0.00    +0.000 A 
ENDBRANCH  24  25
ENDBRANCH  22  24
ENDBRANCH   2  19
TORSDOF 4
ENDMDL
