MODEL 1
REMARK VINA RESULT:      -8.0      0.000      0.000
REMARK  Name = 
REMARK  6 active torsions:
REMARK  status: ('A' for Active; 'I' for Inactive)
REMARK    1  A    between atoms: C_2  and  C_14
REMARK    2  A    between atoms: N_3  and  CA_4
REMARK    3  A    between atoms: CA_4  and  C_5
REMARK    4  A    between atoms: CA_4  and  C_8
REMARK    5  A    between atoms: C_5  and  OXT_7
REMARK    6  A    between atoms: N_17  and  C_18
REMARK                            x       y       z     vdW  Elec       q    Type
REMARK                         _______ _______ _______ _____ _____    ______ ____
ROOT
ATOM      1  O   UNL     1       3.765   5.462  20.023  0.00  0.00    +0.000 OA
ATOM      2  C   UNL     1       3.321   6.020  19.025  0.00  0.00    +0.000 C 
ATOM      3  N   UNL     1       3.499   5.522  17.753  0.00  0.00    +0.000 N 
ATOM      4  H   UNL     1       3.184   6.103  16.979  0.00  0.00    +0.000 HD
ENDROOT
BRANCH   2   5
ATOM      5  C   UNL     1       2.500   7.238  19.105  0.00  0.00    +0.000 A 
ATOM      6  C   UNL     1       2.342   8.177  18.062  0.00  0.00    +0.000 A 
ATOM      7  C   UNL     1       1.521   9.151  18.571  0.00  0.00    +0.000 A 
ATOM      8  N   UNL     1       1.235   8.801  19.872  0.00  0.00    +0.000 N 
ATOM      9  N   UNL     1       1.834   7.620  20.215  0.00  0.00    +0.000 NA
BRANCH   8  10
ATOM     10  C   UNL     1       0.451   9.546  20.803  0.00  0.00    +0.000 A 
ATOM     11  C   UNL     1       0.337   9.116  22.136  0.00  0.00    +0.000 A 
ATOM     12  C   UNL     1      -0.403   9.869  23.059  0.00  0.00    +0.000 A 
ATOM     13  C   UNL     1      -1.030  11.041  22.653  0.00  0.00    +0.000 A 
ATOM     14  F   UNL     1      -1.723  11.764  23.542  0.00  0.00    +0.000 F 
ATOM     15  C   UNL     1      -0.933  11.462  21.334  0.00  0.00    +0.000 A 
ATOM     16  F   UNL     1      -1.540  12.588  20.939  0.00  0.00    +0.000 F 
ATOM     17  C   UNL     1      -0.202  10.725  20.406  0.00  0.00    +0.000 A 
ENDBRANCH   8  10
ENDBRANCH   2   5
BRANCH   3  18
ATOM     18  CA  UNL     1       4.290   4.316  17.499  0.00  0.00    +0.000 C 
BRANCH  18  19
ATOM     19  C   UNL     1       5.238   4.497  16.326  0.00  0.00    +0.000 A 
ATOM     20  C   UNL     1       6.489   5.106  16.540  0.00  0.00    +0.000 A 
ATOM     21  C   UNL     1       7.423   5.208  15.507  0.00  0.00    +0.000 A 
ATOM     22  C   UNL     1       7.117   4.715  14.241  0.00  0.00    +0.000 A 
ATOM     23  C   UNL     1       5.868   4.148  14.002  0.00  0.00    +0.000 A 
ATOM     24  C   UNL     1       4.928   4.050  15.032  0.00  0.00    +0.000 A 
ENDBRANCH  18  19
BRANCH  18  25
ATOM     25  C   UNL     1       3.366   3.079  17.409  0.00  0.00    +0.000 C 
ATOM     26  O   UNL     1       2.222   3.067  16.977  0.00  0.00    +0.000 OA
BRANCH  25  27
ATOM     27  OXT UNL     1       3.989   1.927  17.784  0.00  0.00    +0.000 OA
ATOM     28  HXT UNL     1       3.339   1.285  18.134  0.00  0.00    +0.000 HD
ENDBRANCH  25  27
ENDBRANCH  18  25
ENDBRANCH   3  18
TORSDOF 6
ENDMDL
MODEL 2
REMARK VINA RESULT:      -8.0      0.412      1.017
REMARK  Name = 
REMARK  6 active torsions:
REMARK  status: ('A' for Active; 'I' for Inactive)
REMARK    1  A    between atoms: C_2  and  C_14
REMARK    2  A    between atoms: N_3  and  CA_4
REMARK    3  A    between atoms: CA_4  and  C_5
REMARK    4  A    between atoms: CA_4  and  C_8
REMARK    5  A    between atoms: C_5  and  OXT_7
REMARK    6  A    between atoms: N_17  and  C_18
REMARK                            x       y       z     vdW  Elec       q    Type
REMARK                         _______ _______ _______ _____ _____    ______ ____
ROOT
ATOM      1  O   UNL     1       4.546   5.930  19.744  0.00  0.00    +0.000 OA
ATOM      2  C   UNL     1       3.607   6.065  18.967  0.00  0.00    +0.000 C 
ATOM      3  N   UNL     1       3.301   5.131  18.002  0.00  0.00    +0.000 N 
ATOM      4  H   UNL     1       2.569   5.374  17.337  0.00  0.00    +0.000 HD
ENDROOT
BRANCH   2   5
ATOM      5  C   UNL     1       2.684   7.207  19.040  0.00  0.00    +0.000 A 
ATOM      6  C   UNL     1       2.379   8.073  17.965  0.00  0.00    +0.000 A 
ATOM      7  C   UNL     1       1.503   8.994  18.478  0.00  0.00    +0.000 A 
ATOM      8  N   UNL     1       1.327   8.690  19.809  0.00  0.00    +0.000 N 
ATOM      9  N   UNL     1       2.050   7.586  20.170  0.00  0.00    +0.000 NA
BRANCH   8  10
ATOM     10  C   UNL     1       0.532   9.410  20.751  0.00  0.00    +0.000 A 
ATOM     11  C   UNL     1       0.454   8.980  22.087  0.00  0.00    +0.000 A 
ATOM     12  C   UNL     1      -0.296   9.709  23.020  0.00  0.00    +0.000 A 
ATOM     13  C   UNL     1      -0.969  10.858  22.621  0.00  0.00    +0.000 A 
ATOM     14  F   UNL     1      -1.673  11.559  23.520  0.00  0.00    +0.000 F 
ATOM     15  C   UNL     1      -0.909  11.278  21.300  0.00  0.00    +0.000 A 
ATOM     16  F   UNL     1      -1.560  12.382  20.912  0.00  0.00    +0.000 F 
ATOM     17  C   UNL     1      -0.167  10.565  20.362  0.00  0.00    +0.000 A 
ENDBRANCH   8  10
ENDBRANCH   2   5
BRANCH   3  18
ATOM     18  CA  UNL     1       4.119   3.934  17.796  0.00  0.00    +0.000 C 
BRANCH  18  19
ATOM     19  C   UNL     1       5.176   4.146  16.727  0.00  0.00    +0.000 A 
ATOM     20  C   UNL     1       4.818   4.025  15.371  0.00  0.00    +0.000 A 
ATOM     21  C   UNL     1       5.738   4.301  14.359  0.00  0.00    +0.000 A 
ATOM     22  C   UNL     1       7.035   4.691  14.685  0.00  0.00    +0.000 A 
ATOM     23  C   UNL     1       7.418   4.774  16.021  0.00  0.00    +0.000 A 
ATOM     24  C   UNL     1       6.501   4.492  17.037  0.00  0.00    +0.000 A 
ENDBRANCH  18  19
BRANCH  18  25
ATOM     25  C   UNL     1       3.214   2.697  17.586  0.00  0.00    +0.000 C 
ATOM     26  O   UNL     1       2.066   2.711  17.165  0.00  0.00    +0.000 OA
BRANCH  25  27
ATOM     27  OXT UNL     1       3.859   1.523  17.834  0.00  0.00    +0.000 OA
ATOM     28  HXT UNL     1       3.727   0.898  17.093  0.00  0.00    +0.000 HD
ENDBRANCH  25  27
ENDBRANCH  18  25
ENDBRANCH   3  18
TORSDOF 6
ENDMDL
MODEL 3
REMARK VINA RESULT:      -8.0      0.893      1.462
REMARK  Name = 
REMARK  6 active torsions:
REMARK  status: ('A' for Active; 'I' for Inactive)
REMARK    1  A    between atoms: C_2  and  C_14
REMARK    2  A    between atoms: N_3  and  CA_4
REMARK    3  A    between atoms: CA_4  and  C_5
REMARK    4  A    between atoms: CA_4  and  C_8
REMARK    5  A    between atoms: C_5  and  OXT_7
REMARK    6  A    between atoms: N_17  and  C_18
REMARK                            x       y       z     vdW  Elec       q    Type
REMARK                         _______ _______ _______ _____ _____    ______ ____
ROOT
ATOM      1  O   UNL     1       2.815   5.369  20.556  0.00  0.00    +0.000 OA
ATOM      2  C   UNL     1       2.681   6.024  19.528  0.00  0.00    +0.000 C 
ATOM      3  N   UNL     1       3.033   5.540  18.286  0.00  0.00    +0.000 N 
ATOM      4  H   UNL     1       2.980   6.189  17.504  0.00  0.00    +0.000 HD
ENDROOT
BRANCH   2   5
ATOM      5  C   UNL     1       2.069   7.361  19.521  0.00  0.00    +0.000 A 
ATOM      6  C   UNL     1       2.124   8.271  18.442  0.00  0.00    +0.000 A 
ATOM      7  C   UNL     1       1.449   9.385  18.872  0.00  0.00    +0.000 A 
ATOM      8  N   UNL     1       1.041   9.139  20.164  0.00  0.00    +0.000 N 
ATOM      9  N   UNL     1       1.417   7.891  20.578  0.00  0.00    +0.000 NA
BRANCH   8  10
ATOM     10  C   UNL     1       0.342  10.038  21.024  0.00  0.00    +0.000 A 
ATOM     11  C   UNL     1      -0.252   9.568  22.207  0.00  0.00    +0.000 A 
ATOM     12  C   UNL     1      -0.905  10.459  23.071  0.00  0.00    +0.000 A 
ATOM     13  C   UNL     1      -0.971  11.811  22.751  0.00  0.00    +0.000 A 
ATOM     14  F   UNL     1      -1.585  12.659  23.586  0.00  0.00    +0.000 F 
ATOM     15  C   UNL     1      -0.400  12.277  21.576  0.00  0.00    +0.000 A 
ATOM     16  F   UNL     1      -0.466  13.578  21.263  0.00  0.00    +0.000 F 
ATOM     17  C   UNL     1       0.253  11.405  20.709  0.00  0.00    +0.000 A 
ENDBRANCH   8  10
ENDBRANCH   2   5
BRANCH   3  18
ATOM     18  CA  UNL     1       3.653   4.224  18.117  0.00  0.00    +0.000 C 
BRANCH  18  19
ATOM     19  C   UNL     1       4.921   4.299  17.285  0.00  0.00    +0.000 A 
ATOM     20  C   UNL     1       4.827   4.249  15.881  0.00  0.00    +0.000 A 
ATOM     21  C   UNL     1       5.960   4.406  15.080  0.00  0.00    +0.000 A 
ATOM     22  C   UNL     1       7.207   4.602  15.669  0.00  0.00    +0.000 A 
ATOM     23  C   UNL     1       7.324   4.611  17.056  0.00  0.00    +0.000 A 
ATOM     24  C   UNL     1       6.192   4.448  17.861  0.00  0.00    +0.000 A 
ENDBRANCH  18  19
BRANCH  18  25
ATOM     25  C   UNL     1       2.606   3.198  17.624  0.00  0.00    +0.000 C 
ATOM     26  O   UNL     1       2.739   1.983  17.619  0.00  0.00    +0.000 OA
BRANCH  25  27
ATOM     27  OXT UNL     1       1.428   3.779  17.264  0.00  0.00    +0.000 OA
ATOM     28  HXT UNL     1       1.392   4.704  17.581  0.00  0.00    +0.000 HD
ENDBRANCH  25  27
ENDBRANCH  18  25
ENDBRANCH   3  18
TORSDOF 6
ENDMDL
MODEL 4
REMARK VINA RESULT:      -7.9      0.627      1.353
REMARK  Name = 
REMARK  6 active torsions:
REMARK  status: ('A' for Active; 'I' for Inactive)
REMARK    1  A    between atoms: C_2  and  C_14
REMARK    2  A    between atoms: N_3  and  CA_4
REMARK    3  A    between atoms: CA_4  and  C_5
REMARK    4  A    between atoms: CA_4  and  C_8
REMARK    5  A    between atoms: C_5  and  OXT_7
REMARK    6  A    between atoms: N_17  and  C_18
REMARK                            x       y       z     vdW  Elec       q    Type
REMARK                         _______ _______ _______ _____ _____    ______ ____
ROOT
ATOM      1  O   UNL     1       4.399   5.841  19.685  0.00  0.00    +0.000 OA
ATOM      2  C   UNL     1       3.583   6.102  18.808  0.00  0.00    +0.000 C 
ATOM      3  N   UNL     1       3.400   5.304  17.700  0.00  0.00    +0.000 N 
ATOM      4  H   UNL     1       2.774   5.651  16.977  0.00  0.00    +0.000 HD
ENDROOT
BRANCH   2   5
ATOM      5  C   UNL     1       2.677   7.258  18.896  0.00  0.00    +0.000 A 
ATOM      6  C   UNL     1       2.348   8.112  17.820  0.00  0.00    +0.000 A 
ATOM      7  C   UNL     1       1.502   9.053  18.349  0.00  0.00    +0.000 A 
ATOM      8  N   UNL     1       1.367   8.770  19.689  0.00  0.00    +0.000 N 
ATOM      9  N   UNL     1       2.088   7.661  20.041  0.00  0.00    +0.000 NA
BRANCH   8  10
ATOM     10  C   UNL     1       0.615   9.514  20.647  0.00  0.00    +0.000 A 
ATOM     11  C   UNL     1      -0.140  10.628  20.243  0.00  0.00    +0.000 A 
ATOM     12  C   UNL     1      -0.909  11.335  21.178  0.00  0.00    +0.000 A 
ATOM     13  C   UNL     1      -0.920  10.936  22.510  0.00  0.00    +0.000 A 
ATOM     14  F   UNL     1      -1.668  11.607  23.396  0.00  0.00    +0.000 F 
ATOM     15  C   UNL     1      -0.164   9.846  22.917  0.00  0.00    +0.000 A 
ATOM     16  F   UNL     1      -0.169   9.462  24.200  0.00  0.00    +0.000 F 
ATOM     17  C   UNL     1       0.604   9.133  22.000  0.00  0.00    +0.000 A 
ENDBRANCH   8  10
ENDBRANCH   2   5
BRANCH   3  18
ATOM     18  CA  UNL     1       4.219   4.113  17.461  0.00  0.00    +0.000 C 
BRANCH  18  19
ATOM     19  C   UNL     1       5.169   4.304  16.293  0.00  0.00    +0.000 A 
ATOM     20  C   UNL     1       6.449   4.842  16.527  0.00  0.00    +0.000 A 
ATOM     21  C   UNL     1       7.382   4.948  15.495  0.00  0.00    +0.000 A 
ATOM     22  C   UNL     1       7.048   4.532  14.209  0.00  0.00    +0.000 A 
ATOM     23  C   UNL     1       5.773   4.037  13.950  0.00  0.00    +0.000 A 
ATOM     24  C   UNL     1       4.833   3.935  14.981  0.00  0.00    +0.000 A 
ENDBRANCH  18  19
BRANCH  18  25
ATOM     25  C   UNL     1       3.322   2.855  17.377  0.00  0.00    +0.000 C 
ATOM     26  O   UNL     1       2.157   2.828  17.006  0.00  0.00    +0.000 OA
BRANCH  25  27
ATOM     27  OXT UNL     1       3.993   1.709  17.677  0.00  0.00    +0.000 OA
ATOM     28  HXT UNL     1       4.560   1.840  18.463  0.00  0.00    +0.000 HD
ENDBRANCH  25  27
ENDBRANCH  18  25
ENDBRANCH   3  18
TORSDOF 6
ENDMDL
MODEL 5
REMARK VINA RESULT:      -7.9      0.568      1.719
REMARK  Name = 
REMARK  6 active torsions:
REMARK  status: ('A' for Active; 'I' for Inactive)
REMARK    1  A    between atoms: C_2  and  C_14
REMARK    2  A    between atoms: N_3  and  CA_4
REMARK    3  A    between atoms: CA_4  and  C_5
REMARK    4  A    between atoms: CA_4  and  C_8
REMARK    5  A    between atoms: C_5  and  OXT_7
REMARK    6  A    between atoms: N_17  and  C_18
REMARK                            x       y       z     vdW  Elec       q    Type
REMARK                         _______ _______ _______ _____ _____    ______ ____
ROOT
ATOM      1  O   UNL     1       3.848   5.610  19.979  0.00  0.00    +0.000 OA
ATOM      2  C   UNL     1       3.356   6.058  18.949  0.00  0.00    +0.000 C 
ATOM      3  N   UNL     1       3.465   5.419  17.733  0.00  0.00    +0.000 N 
ATOM      4  H   UNL     1       3.112   5.914  16.916  0.00  0.00    +0.000 HD
ENDROOT
BRANCH   2   5
ATOM      5  C   UNL     1       2.546   7.286  18.934  0.00  0.00    +0.000 A 
ATOM      6  C   UNL     1       2.387   8.137  17.818  0.00  0.00    +0.000 A 
ATOM      7  C   UNL     1       1.580   9.157  18.252  0.00  0.00    +0.000 A 
ATOM      8  N   UNL     1       1.302   8.919  19.579  0.00  0.00    +0.000 N 
ATOM      9  N   UNL     1       1.893   7.765  20.014  0.00  0.00    +0.000 NA
BRANCH   8  10
ATOM     10  C   UNL     1       0.533   9.746  20.452  0.00  0.00    +0.000 A 
ATOM     11  C   UNL     1      -0.102  10.898  19.958  0.00  0.00    +0.000 A 
ATOM     12  C   UNL     1      -0.890  11.689  20.807  0.00  0.00    +0.000 A 
ATOM     13  C   UNL     1      -1.038  11.334  22.143  0.00  0.00    +0.000 A 
ATOM     14  F   UNL     1      -1.802  12.085  22.947  0.00  0.00    +0.000 F 
ATOM     15  C   UNL     1      -0.400  10.206  22.639  0.00  0.00    +0.000 A 
ATOM     16  F   UNL     1      -0.537   9.865  23.927  0.00  0.00    +0.000 F 
ATOM     17  C   UNL     1       0.385   9.410  21.808  0.00  0.00    +0.000 A 
ENDBRANCH   8  10
ENDBRANCH   2   5
BRANCH   3  18
ATOM     18  CA  UNL     1       4.235   4.184  17.574  0.00  0.00    +0.000 C 
BRANCH  18  19
ATOM     19  C   UNL     1       5.260   4.295  16.459  0.00  0.00    +0.000 A 
ATOM     20  C   UNL     1       4.875   3.996  15.138  0.00  0.00    +0.000 A 
ATOM     21  C   UNL     1       5.762   4.173  14.075  0.00  0.00    +0.000 A 
ATOM     22  C   UNL     1       7.052   4.639  14.316  0.00  0.00    +0.000 A 
ATOM     23  C   UNL     1       7.463   4.898  15.620  0.00  0.00    +0.000 A 
ATOM     24  C   UNL     1       6.579   4.716  16.688  0.00  0.00    +0.000 A 
ENDBRANCH  18  19
BRANCH  18  25
ATOM     25  C   UNL     1       3.283   2.969  17.471  0.00  0.00    +0.000 C 
ATOM     26  O   UNL     1       3.548   1.821  17.797  0.00  0.00    +0.000 OA
BRANCH  25  27
ATOM     27  OXT UNL     1       2.033   3.313  17.055  0.00  0.00    +0.000 OA
ATOM     28  HXT UNL     1       1.402   2.586  17.230  0.00  0.00    +0.000 HD
ENDBRANCH  25  27
ENDBRANCH  18  25
ENDBRANCH   3  18
TORSDOF 6
ENDMDL
MODEL 6
REMARK VINA RESULT:      -7.9      1.139      1.752
REMARK  Name = 
REMARK  6 active torsions:
REMARK  status: ('A' for Active; 'I' for Inactive)
REMARK    1  A    between atoms: C_2  and  C_14
REMARK    2  A    between atoms: N_3  and  CA_4
REMARK    3  A    between atoms: CA_4  and  C_5
REMARK    4  A    between atoms: CA_4  and  C_8
REMARK    5  A    between atoms: C_5  and  OXT_7
REMARK    6  A    between atoms: N_17  and  C_18
REMARK                            x       y       z     vdW  Elec       q    Type
REMARK                         _______ _______ _______ _____ _____    ______ ____
ROOT
ATOM      1  O   UNL     1       2.425   5.679  20.443  0.00  0.00    +0.000 OA
ATOM      2  C   UNL     1       2.454   6.353  19.420  0.00  0.00    +0.000 C 
ATOM      3  N   UNL     1       2.930   5.866  18.222  0.00  0.00    +0.000 N 
ATOM      4  H   UNL     1       3.010   6.527  17.452  0.00  0.00    +0.000 HD
ENDROOT
BRANCH   2   5
ATOM      5  C   UNL     1       1.921   7.723  19.364  0.00  0.00    +0.000 A 
ATOM      6  C   UNL     1       1.931   8.550  18.220  0.00  0.00    +0.000 A 
ATOM      7  C   UNL     1       1.362   9.731  18.620  0.00  0.00    +0.000 A 
ATOM      8  N   UNL     1       1.056   9.602  19.956  0.00  0.00    +0.000 N 
ATOM      9  N   UNL     1       1.396   8.364  20.429  0.00  0.00    +0.000 NA
BRANCH   8  10
ATOM     10  C   UNL     1       0.488  10.601  20.802  0.00  0.00    +0.000 A 
ATOM     11  C   UNL     1       0.815  11.955  20.617  0.00  0.00    +0.000 A 
ATOM     12  C   UNL     1       0.226  12.940  21.423  0.00  0.00    +0.000 A 
ATOM     13  C   UNL     1      -0.679  12.575  22.413  0.00  0.00    +0.000 A 
ATOM     14  F   UNL     1      -1.248  13.521  23.171  0.00  0.00    +0.000 F 
ATOM     15  C   UNL     1      -0.993  11.238  22.610  0.00  0.00    +0.000 A 
ATOM     16  F   UNL     1      -1.861  10.882  23.567  0.00  0.00    +0.000 F 
ATOM     17  C   UNL     1      -0.417  10.248  21.817  0.00  0.00    +0.000 A 
ENDBRANCH   8  10
ENDBRANCH   2   5
BRANCH   3  18
ATOM     18  CA  UNL     1       3.495   4.520  18.103  0.00  0.00    +0.000 C 
BRANCH  18  19
ATOM     19  C   UNL     1       4.801   4.520  17.330  0.00  0.00    +0.000 A 
ATOM     20  C   UNL     1       6.011   4.721  18.021  0.00  0.00    +0.000 A 
ATOM     21  C   UNL     1       7.238   4.637  17.360  0.00  0.00    +0.000 A 
ATOM     22  C   UNL     1       7.275   4.365  15.995  0.00  0.00    +0.000 A 
ATOM     23  C   UNL     1       6.087   4.205  15.288  0.00  0.00    +0.000 A 
ATOM     24  C   UNL     1       4.857   4.294  15.945  0.00  0.00    +0.000 A 
ENDBRANCH  18  19
BRANCH  18  25
ATOM     25  C   UNL     1       2.424   3.534  17.580  0.00  0.00    +0.000 C 
ATOM     26  O   UNL     1       2.521   2.316  17.554  0.00  0.00    +0.000 OA
BRANCH  25  27
ATOM     27  OXT UNL     1       1.267   4.156  17.218  0.00  0.00    +0.000 OA
ATOM     28  HXT UNL     1       1.202   5.033  17.646  0.00  0.00    +0.000 HD
ENDBRANCH  25  27
ENDBRANCH  18  25
ENDBRANCH   3  18
TORSDOF 6
ENDMDL
MODEL 7
REMARK VINA RESULT:      -7.8      4.559      8.870
REMARK  Name = 
REMARK  6 active torsions:
REMARK  status: ('A' for Active; 'I' for Inactive)
REMARK    1  A    between atoms: C_2  and  C_14
REMARK    2  A    between atoms: N_3  and  CA_4
REMARK    3  A    between atoms: CA_4  and  C_5
REMARK    4  A    between atoms: CA_4  and  C_8
REMARK    5  A    between atoms: C_5  and  OXT_7
REMARK    6  A    between atoms: N_17  and  C_18
REMARK                            x       y       z     vdW  Elec       q    Type
REMARK                         _______ _______ _______ _____ _____    ______ ____
ROOT
ATOM      1  O   UNL     1       1.275   8.831  21.476  0.00  0.00    +0.000 OA
ATOM      2  C   UNL     1       1.386   8.527  20.293  0.00  0.00    +0.000 C 
ATOM      3  N   UNL     1       0.931   9.332  19.272  0.00  0.00    +0.000 N 
ATOM      4  H   UNL     1       0.975   8.953  18.328  0.00  0.00    +0.000 HD
ENDROOT
BRANCH   2   5
ATOM      5  C   UNL     1       2.077   7.304  19.857  0.00  0.00    +0.000 A 
ATOM      6  C   UNL     1       1.922   6.031  20.450  0.00  0.00    +0.000 A 
ATOM      7  C   UNL     1       2.758   5.201  19.749  0.00  0.00    +0.000 A 
ATOM      8  N   UNL     1       3.395   5.970  18.802  0.00  0.00    +0.000 N 
ATOM      9  N   UNL     1       2.982   7.273  18.857  0.00  0.00    +0.000 NA
BRANCH   8  10
ATOM     10  C   UNL     1       4.388   5.532  17.875  0.00  0.00    +0.000 A 
ATOM     11  C   UNL     1       4.164   4.394  17.081  0.00  0.00    +0.000 A 
ATOM     12  C   UNL     1       5.124   3.988  16.143  0.00  0.00    +0.000 A 
ATOM     13  C   UNL     1       6.303   4.710  16.003  0.00  0.00    +0.000 A 
ATOM     14  F   UNL     1       7.211   4.325  15.096  0.00  0.00    +0.000 F 
ATOM     15  C   UNL     1       6.536   5.825  16.795  0.00  0.00    +0.000 A 
ATOM     16  F   UNL     1       7.674   6.520  16.665  0.00  0.00    +0.000 F 
ATOM     17  C   UNL     1       5.592   6.242  17.730  0.00  0.00    +0.000 A 
ENDBRANCH   8  10
ENDBRANCH   2   5
BRANCH   3  18
ATOM     18  CA  UNL     1       0.221  10.586  19.533  0.00  0.00    +0.000 C 
BRANCH  18  19
ATOM     19  C   UNL     1      -1.048  10.702  18.708  0.00  0.00    +0.000 A 
ATOM     20  C   UNL     1      -1.201   9.896  17.564  0.00  0.00    +0.000 A 
ATOM     21  C   UNL     1      -2.390   9.908  16.832  0.00  0.00    +0.000 A 
ATOM     22  C   UNL     1      -3.440  10.735  17.223  0.00  0.00    +0.000 A 
ATOM     23  C   UNL     1      -3.290  11.570  18.327  0.00  0.00    +0.000 A 
ATOM     24  C   UNL     1      -2.098  11.565  19.059  0.00  0.00    +0.000 A 
ENDBRANCH  18  19
BRANCH  18  25
ATOM     25  C   UNL     1       1.192  11.785  19.414  0.00  0.00    +0.000 C 
ATOM     26  O   UNL     1       1.657  12.427  20.345  0.00  0.00    +0.000 OA
BRANCH  25  27
ATOM     27  OXT UNL     1       1.580  12.024  18.131  0.00  0.00    +0.000 OA
ATOM     28  HXT UNL     1       0.816  11.948  17.524  0.00  0.00    +0.000 HD
ENDBRANCH  25  27
ENDBRANCH  18  25
ENDBRANCH   3  18
TORSDOF 6
ENDMDL
MODEL 8
REMARK VINA RESULT:      -7.7      4.581      8.829
REMARK  Name = 
REMARK  6 active torsions:
REMARK  status: ('A' for Active; 'I' for Inactive)
REMARK    1  A    between atoms: C_2  and  C_14
REMARK    2  A    between atoms: N_3  and  CA_4
REMARK    3  A    between atoms: CA_4  and  C_5
REMARK    4  A    between atoms: CA_4  and  C_8
REMARK    5  A    between atoms: C_5  and  OXT_7
REMARK    6  A    between atoms: N_17  and  C_18
REMARK                            x       y       z     vdW  Elec       q    Type
REMARK                         _______ _______ _______ _____ _____    ______ ____
ROOT
ATOM      1  O   UNL     1       0.650   8.650  21.127  0.00  0.00    +0.000 OA
ATOM      2  C   UNL     1       1.236   8.527  20.057  0.00  0.00    +0.000 C 
ATOM      3  N   UNL     1       1.258   9.521  19.102  0.00  0.00    +0.000 N 
ATOM      4  H   UNL     1       1.683   9.293  18.206  0.00  0.00    +0.000 HD
ENDROOT
BRANCH   2   5
ATOM      5  C   UNL     1       2.024   7.331  19.725  0.00  0.00    +0.000 A 
ATOM      6  C   UNL     1       1.994   6.116  20.444  0.00  0.00    +0.000 A 
ATOM      7  C   UNL     1       2.887   5.294  19.806  0.00  0.00    +0.000 A 
ATOM      8  N   UNL     1       3.435   6.016  18.770  0.00  0.00    +0.000 N 
ATOM      9  N   UNL     1       2.909   7.277  18.707  0.00  0.00    +0.000 NA
BRANCH   8  10
ATOM     10  C   UNL     1       4.445   5.575  17.863  0.00  0.00    +0.000 A 
ATOM     11  C   UNL     1       4.257   4.403  17.110  0.00  0.00    +0.000 A 
ATOM     12  C   UNL     1       5.234   3.992  16.191  0.00  0.00    +0.000 A 
ATOM     13  C   UNL     1       6.393   4.742  16.030  0.00  0.00    +0.000 A 
ATOM     14  F   UNL     1       7.316   4.352  15.141  0.00  0.00    +0.000 F 
ATOM     15  C   UNL     1       6.589   5.890  16.783  0.00  0.00    +0.000 A 
ATOM     16  F   UNL     1       7.707   6.613  16.632  0.00  0.00    +0.000 F 
ATOM     17  C   UNL     1       5.629   6.313  17.698  0.00  0.00    +0.000 A 
ENDBRANCH   8  10
ENDBRANCH   2   5
BRANCH   3  18
ATOM     18  CA  UNL     1       0.526  10.777  19.276  0.00  0.00    +0.000 C 
BRANCH  18  19
ATOM     19  C   UNL     1      -0.848  10.726  18.631  0.00  0.00    +0.000 A 
ATOM     20  C   UNL     1      -1.872  11.555  19.126  0.00  0.00    +0.000 A 
ATOM     21  C   UNL     1      -3.120  11.603  18.503  0.00  0.00    +0.000 A 
ATOM     22  C   UNL     1      -3.370  10.814  17.383  0.00  0.00    +0.000 A 
ATOM     23  C   UNL     1      -2.382   9.957  16.906  0.00  0.00    +0.000 A 
ATOM     24  C   UNL     1      -1.133   9.902  17.532  0.00  0.00    +0.000 A 
ENDBRANCH  18  19
BRANCH  18  25
ATOM     25  C   UNL     1       1.407  11.974  18.848  0.00  0.00    +0.000 C 
ATOM     26  O   UNL     1       1.464  13.060  19.406  0.00  0.00    +0.000 OA
BRANCH  25  27
ATOM     27  OXT UNL     1       2.225  11.678  17.800  0.00  0.00    +0.000 OA
ATOM     28  HXT UNL     1       1.744  11.772  16.953  0.00  0.00    +0.000 HD
ENDBRANCH  25  27
ENDBRANCH  18  25
ENDBRANCH   3  18
TORSDOF 6
ENDMDL
MODEL 9
REMARK VINA RESULT:      -7.7      4.635      9.515
REMARK  Name = 
REMARK  6 active torsions:
REMARK  status: ('A' for Active; 'I' for Inactive)
REMARK    1  A    between atoms: C_2  and  C_14
REMARK    2  A    between atoms: N_3  and  CA_4
REMARK    3  A    between atoms: CA_4  and  C_5
REMARK    4  A    between atoms: CA_4  and  C_8
REMARK    5  A    between atoms: C_5  and  OXT_7
REMARK    6  A    between atoms: N_17  and  C_18
REMARK                            x       y       z     vdW  Elec       q    Type
REMARK                         _______ _______ _______ _____ _____    ______ ____
ROOT
ATOM      1  O   UNL     1       1.891  10.870  18.232  0.00  0.00    +0.000 OA
ATOM      2  C   UNL     1       1.312   9.951  18.800  0.00  0.00    +0.000 C 
ATOM      3  N   UNL     1       0.047  10.082  19.330  0.00  0.00    +0.000 N 
ATOM      4  H   UNL     1      -0.313   9.299  19.871  0.00  0.00    +0.000 HD
ENDROOT
BRANCH   2   5
ATOM      5  C   UNL     1       1.892   8.604  18.908  0.00  0.00    +0.000 A 
ATOM      6  C   UNL     1       1.812   7.776  20.050  0.00  0.00    +0.000 A 
ATOM      7  C   UNL     1       2.499   6.636  19.721  0.00  0.00    +0.000 A 
ATOM      8  N   UNL     1       2.983   6.807  18.444  0.00  0.00    +0.000 N 
ATOM      9  N   UNL     1       2.614   8.019  17.928  0.00  0.00    +0.000 NA
BRANCH   8  10
ATOM     10  C   UNL     1       3.795   5.892  17.709  0.00  0.00    +0.000 A 
ATOM     11  C   UNL     1       3.376   4.563  17.527  0.00  0.00    +0.000 A 
ATOM     12  C   UNL     1       4.156   3.675  16.772  0.00  0.00    +0.000 A 
ATOM     13  C   UNL     1       5.350   4.109  16.208  0.00  0.00    +0.000 A 
ATOM     14  F   UNL     1       6.084   3.261  15.476  0.00  0.00    +0.000 F 
ATOM     15  C   UNL     1       5.775   5.416  16.398  0.00  0.00    +0.000 A 
ATOM     16  F   UNL     1       6.927   5.836  15.859  0.00  0.00    +0.000 F 
ATOM     17  C   UNL     1       5.011   6.310  17.144  0.00  0.00    +0.000 A 
ENDBRANCH   8  10
ENDBRANCH   2   5
BRANCH   3  18
ATOM     18  CA  UNL     1      -0.673  11.357  19.305  0.00  0.00    +0.000 C 
BRANCH  18  19
ATOM     19  C   UNL     1      -1.281  11.691  20.656  0.00  0.00    +0.000 A 
ATOM     20  C   UNL     1      -2.370  12.581  20.719  0.00  0.00    +0.000 A 
ATOM     21  C   UNL     1      -3.013  12.842  21.931  0.00  0.00    +0.000 A 
ATOM     22  C   UNL     1      -2.571  12.228  23.100  0.00  0.00    +0.000 A 
ATOM     23  C   UNL     1      -1.468  11.378  23.062  0.00  0.00    +0.000 A 
ATOM     24  C   UNL     1      -0.818  11.120  21.851  0.00  0.00    +0.000 A 
ENDBRANCH  18  19
BRANCH  18  25
ATOM     25  C   UNL     1      -1.662  11.390  18.115  0.00  0.00    +0.000 C 
ATOM     26  O   UNL     1      -2.593  10.619  17.935  0.00  0.00    +0.000 OA
BRANCH  25  27
ATOM     27  OXT UNL     1      -1.459  12.455  17.291  0.00  0.00    +0.000 OA
ATOM     28  HXT UNL     1      -2.313  12.796  16.957  0.00  0.00    +0.000 HD
ENDBRANCH  25  27
ENDBRANCH  18  25
ENDBRANCH   3  18
TORSDOF 6
ENDMDL
