MODEL 1
REMARK VINA RESULT:      -8.2      0.000      0.000
REMARK  Name = 
REMARK  10 active torsions:
REMARK  status: ('A' for Active; 'I' for Inactive)
REMARK    1  A    between atoms: C_1  and  C_2
REMARK    2  A    between atoms: C_4  and  N_5
REMARK    3  A    between atoms: N_5  and  S_6
REMARK    4  A    between atoms: S_6  and  C_9
REMARK    5  A    between atoms: C_12  and  N_13
REMARK    6  A    between atoms: C_14  and  C_16
REMARK    7  A    between atoms: C_16  and  O_17
REMARK    8  A    between atoms: O_17  and  C_18
REMARK    9  A    between atoms: C_23  and  C_24
REMARK   10  A    between atoms: C_28  and  C_29
REMARK                            x       y       z     vdW  Elec       q    Type
REMARK                         _______ _______ _______ _____ _____    ______ ____
ROOT
ATOM      1  C   UNL     1       5.490   4.930  17.742  0.00  0.00    +0.000 A 
ATOM      2  C   UNL     1       5.688   5.099  19.114  0.00  0.00    +0.000 A 
ATOM      3  C   UNL     1       4.866   4.428  20.021  0.00  0.00    +0.000 A 
ATOM      4  C   UNL     1       3.849   3.598  19.553  0.00  0.00    +0.000 A 
ATOM      5  C   UNL     1       3.647   3.421  18.183  0.00  0.00    +0.000 A 
ATOM      6  C   UNL     1       4.459   4.107  17.271  0.00  0.00    +0.000 A 
ENDROOT
BRANCH   4   7
ATOM      7  N   UNL     1       3.006   2.973  20.470  0.00  0.00    +0.000 N 
ATOM      8  C   UNL     1       1.762   3.432  20.845  0.00  0.00    +0.000 C 
ATOM      9  O   UNL     1       1.091   2.773  21.639  0.00  0.00    +0.000 OA
ATOM     10  H   UNL     1       3.260   2.072  20.844  0.00  0.00    +0.000 HD
BRANCH   8  11
ATOM     11  C   UNL     1       1.239   4.718  20.220  0.00  0.00    +0.000 C 
BRANCH  11  12
ATOM     12  O   UNL     1       1.865   5.870  20.777  0.00  0.00    +0.000 OA
BRANCH  12  13
ATOM     13  C   UNL     1       1.907   6.941  19.917  0.00  0.00    +0.000 A 
ATOM     14  C   UNL     1       2.451   6.853  18.628  0.00  0.00    +0.000 A 
ATOM     15  C   UNL     1       2.506   7.968  17.797  0.00  0.00    +0.000 A 
ATOM     16  C   UNL     1       1.995   9.181  18.237  0.00  0.00    +0.000 A 
ATOM     17  C   UNL     1       1.415   9.273  19.502  0.00  0.00    +0.000 A 
ATOM     18  C   UNL     1       1.360   8.161  20.357  0.00  0.00    +0.000 A 
ATOM     19  C   UNL     1       0.688   8.312  21.693  0.00  0.00    +0.000 C 
ENDBRANCH  12  13
ENDBRANCH  11  12
ENDBRANCH   8  11
ENDBRANCH   4   7
BRANCH   1  20
ATOM     20  S   UNL     1       6.470   5.887  16.598  0.00  0.00    +0.000 S 
ATOM     21  O   UNL     1       7.410   6.666  17.377  0.00  0.00    +0.000 OA
ATOM     22  O   UNL     1       5.571   6.534  15.665  0.00  0.00    +0.000 OA
BRANCH  20  23
ATOM     23  N   UNL     1       7.380   4.773  15.774  0.00  0.00    +0.000 N 
ATOM     24  H   UNL     1       8.086   4.240  16.268  0.00  0.00    +0.000 HD
BRANCH  23  28
ATOM     25  C   UNL     1       5.466   2.576  11.819  0.00  0.00    +0.000 C 
ATOM     26  C   UNL     1       6.296   3.611  12.515  0.00  0.00    +0.000 A 
ATOM     27  C   UNL     1       6.394   3.645  13.888  0.00  0.00    +0.000 A 
ATOM     28  C   UNL     1       7.203   4.632  14.394  0.00  0.00    +0.000 A 
ATOM     29  N   UNL     1       7.843   5.548  13.667  0.00  0.00    +0.000 NA
ATOM     30  C   UNL     1       7.697   5.434  12.339  0.00  0.00    +0.000 A 
ATOM     31  C   UNL     1       8.438   6.398  11.468  0.00  0.00    +0.000 C 
ATOM     32  N   UNL     1       6.946   4.496  11.730  0.00  0.00    +0.000 NA
ENDBRANCH  23  28
ENDBRANCH  20  23
ENDBRANCH   1  20
TORSDOF 7
ENDMDL
MODEL 2
REMARK VINA RESULT:      -8.2      4.140      8.328
REMARK  Name = 
REMARK  10 active torsions:
REMARK  status: ('A' for Active; 'I' for Inactive)
REMARK    1  A    between atoms: C_1  and  C_2
REMARK    2  A    between atoms: C_4  and  N_5
REMARK    3  A    between atoms: N_5  and  S_6
REMARK    4  A    between atoms: S_6  and  C_9
REMARK    5  A    between atoms: C_12  and  N_13
REMARK    6  A    between atoms: C_14  and  C_16
REMARK    7  A    between atoms: C_16  and  O_17
REMARK    8  A    between atoms: O_17  and  C_18
REMARK    9  A    between atoms: C_23  and  C_24
REMARK   10  A    between atoms: C_28  and  C_29
REMARK                            x       y       z     vdW  Elec       q    Type
REMARK                         _______ _______ _______ _____ _____    ______ ____
ROOT
ATOM      1  C   UNL     1       1.906   7.824  19.827  0.00  0.00    +0.000 A 
ATOM      2  C   UNL     1       2.254   8.229  18.536  0.00  0.00    +0.000 A 
ATOM      3  C   UNL     1       3.127   7.448  17.776  0.00  0.00    +0.000 A 
ATOM      4  C   UNL     1       3.650   6.272  18.310  0.00  0.00    +0.000 A 
ATOM      5  C   UNL     1       3.304   5.859  19.598  0.00  0.00    +0.000 A 
ATOM      6  C   UNL     1       2.443   6.649  20.369  0.00  0.00    +0.000 A 
ENDROOT
BRANCH   4   7
ATOM      7  N   UNL     1       4.557   5.529  17.557  0.00  0.00    +0.000 N 
ATOM      8  C   UNL     1       4.269   4.349  16.907  0.00  0.00    +0.000 C 
ATOM      9  O   UNL     1       5.147   3.798  16.241  0.00  0.00    +0.000 OA
ATOM     10  H   UNL     1       5.481   5.895  17.388  0.00  0.00    +0.000 HD
BRANCH   8  11
ATOM     11  C   UNL     1       2.854   3.793  16.995  0.00  0.00    +0.000 C 
BRANCH  11  12
ATOM     12  O   UNL     1       2.815   2.555  17.699  0.00  0.00    +0.000 OA
BRANCH  12  13
ATOM     13  C   UNL     1       2.336   2.669  18.982  0.00  0.00    +0.000 A 
ATOM     14  C   UNL     1       1.001   2.992  19.262  0.00  0.00    +0.000 A 
ATOM     15  C   UNL     1       0.559   3.132  20.575  0.00  0.00    +0.000 A 
ATOM     16  C   UNL     1       1.444   2.927  21.624  0.00  0.00    +0.000 A 
ATOM     17  C   UNL     1       2.765   2.566  21.360  0.00  0.00    +0.000 A 
ATOM     18  C   UNL     1       3.229   2.430  20.042  0.00  0.00    +0.000 A 
ATOM     19  C   UNL     1       4.653   2.003  19.821  0.00  0.00    +0.000 C 
ENDBRANCH  12  13
ENDBRANCH  11  12
ENDBRANCH   8  11
ENDBRANCH   4   7
BRANCH   1  20
ATOM     20  S   UNL     1       0.887   8.893  20.829  0.00  0.00    +0.000 S 
ATOM     21  O   UNL     1       1.632   9.200  22.032  0.00  0.00    +0.000 OA
ATOM     22  O   UNL     1      -0.436   8.309  20.909  0.00  0.00    +0.000 OA
BRANCH  20  23
ATOM     23  N   UNL     1       0.791  10.314  19.981  0.00  0.00    +0.000 N 
ATOM     24  H   UNL     1       1.596  10.929  19.944  0.00  0.00    +0.000 HD
BRANCH  23  28
ATOM     25  C   UNL     1      -2.521  10.104  16.360  0.00  0.00    +0.000 C 
ATOM     26  C   UNL     1      -2.002  10.575  17.684  0.00  0.00    +0.000 A 
ATOM     27  C   UNL     1      -0.785  10.149  18.167  0.00  0.00    +0.000 A 
ATOM     28  C   UNL     1      -0.420  10.672  19.383  0.00  0.00    +0.000 A 
ATOM     29  N   UNL     1      -1.163  11.504  20.114  0.00  0.00    +0.000 NA
ATOM     30  C   UNL     1      -2.329  11.871  19.563  0.00  0.00    +0.000 A 
ATOM     31  C   UNL     1      -3.180  12.848  20.310  0.00  0.00    +0.000 C 
ATOM     32  N   UNL     1      -2.781  11.438  18.370  0.00  0.00    +0.000 NA
ENDBRANCH  23  28
ENDBRANCH  20  23
ENDBRANCH   1  20
TORSDOF 7
ENDMDL
MODEL 3
REMARK VINA RESULT:      -8.0      3.296      4.964
REMARK  Name = 
REMARK  10 active torsions:
REMARK  status: ('A' for Active; 'I' for Inactive)
REMARK    1  A    between atoms: C_1  and  C_2
REMARK    2  A    between atoms: C_4  and  N_5
REMARK    3  A    between atoms: N_5  and  S_6
REMARK    4  A    between atoms: S_6  and  C_9
REMARK    5  A    between atoms: C_12  and  N_13
REMARK    6  A    between atoms: C_14  and  C_16
REMARK    7  A    between atoms: C_16  and  O_17
REMARK    8  A    between atoms: O_17  and  C_18
REMARK    9  A    between atoms: C_23  and  C_24
REMARK   10  A    between atoms: C_28  and  C_29
REMARK                            x       y       z     vdW  Elec       q    Type
REMARK                         _______ _______ _______ _____ _____    ______ ____
ROOT
ATOM      1  C   UNL     1       2.690   4.949  18.756  0.00  0.00    +0.000 A 
ATOM      2  C   UNL     1       2.117   4.768  20.018  0.00  0.00    +0.000 A 
ATOM      3  C   UNL     1       1.726   5.879  20.767  0.00  0.00    +0.000 A 
ATOM      4  C   UNL     1       1.912   7.161  20.257  0.00  0.00    +0.000 A 
ATOM      5  C   UNL     1       2.481   7.351  18.995  0.00  0.00    +0.000 A 
ATOM      6  C   UNL     1       2.891   6.239  18.249  0.00  0.00    +0.000 A 
ENDROOT
BRANCH   4   7
ATOM      7  N   UNL     1       1.561   8.262  21.037  0.00  0.00    +0.000 N 
ATOM      8  C   UNL     1       0.954   9.405  20.566  0.00  0.00    +0.000 C 
ATOM      9  O   UNL     1       0.658  10.300  21.360  0.00  0.00    +0.000 OA
ATOM     10  H   UNL     1       1.672   8.217  22.038  0.00  0.00    +0.000 HD
BRANCH   8  11
ATOM     11  C   UNL     1       0.622   9.500  19.084  0.00  0.00    +0.000 C 
BRANCH  11  12
ATOM     12  O   UNL     1       0.098  10.780  18.739  0.00  0.00    +0.000 OA
BRANCH  12  13
ATOM     13  C   UNL     1      -1.197  10.736  18.281  0.00  0.00    +0.000 A 
ATOM     14  C   UNL     1      -1.612   9.846  17.280  0.00  0.00    +0.000 A 
ATOM     15  C   UNL     1      -2.925   9.854  16.816  0.00  0.00    +0.000 A 
ATOM     16  C   UNL     1      -3.844  10.736  17.367  0.00  0.00    +0.000 A 
ATOM     17  C   UNL     1      -3.454  11.598  18.391  0.00  0.00    +0.000 A 
ATOM     18  C   UNL     1      -2.132  11.611  18.863  0.00  0.00    +0.000 A 
ATOM     19  C   UNL     1      -1.780  12.536  19.994  0.00  0.00    +0.000 C 
ENDBRANCH  12  13
ENDBRANCH  11  12
ENDBRANCH   8  11
ENDBRANCH   4   7
BRANCH   1  20
ATOM     20  S   UNL     1       3.295   3.527  17.864  0.00  0.00    +0.000 S 
ATOM     21  O   UNL     1       3.128   3.798  16.451  0.00  0.00    +0.000 OA
ATOM     22  O   UNL     1       2.717   2.341  18.460  0.00  0.00    +0.000 OA
BRANCH  20  23
ATOM     23  N   UNL     1       4.930   3.515  18.133  0.00  0.00    +0.000 N 
ATOM     24  H   UNL     1       5.316   2.901  18.841  0.00  0.00    +0.000 HD
BRANCH  23  28
ATOM     25  C   UNL     1       7.742   7.526  17.767  0.00  0.00    +0.000 C 
ATOM     26  C   UNL     1       7.088   6.286  17.236  0.00  0.00    +0.000 A 
ATOM     27  C   UNL     1       6.300   5.494  18.039  0.00  0.00    +0.000 A 
ATOM     28  C   UNL     1       5.746   4.399  17.422  0.00  0.00    +0.000 A 
ATOM     29  N   UNL     1       5.951   4.050  16.151  0.00  0.00    +0.000 NA
ATOM     30  C   UNL     1       6.726   4.884  15.443  0.00  0.00    +0.000 A 
ATOM     31  C   UNL     1       6.944   4.576  13.995  0.00  0.00    +0.000 C 
ATOM     32  N   UNL     1       7.305   5.995  15.936  0.00  0.00    +0.000 NA
ENDBRANCH  23  28
ENDBRANCH  20  23
ENDBRANCH   1  20
TORSDOF 7
ENDMDL
MODEL 4
REMARK VINA RESULT:      -8.0      4.155      8.350
REMARK  Name = 
REMARK  10 active torsions:
REMARK  status: ('A' for Active; 'I' for Inactive)
REMARK    1  A    between atoms: C_1  and  C_2
REMARK    2  A    between atoms: C_4  and  N_5
REMARK    3  A    between atoms: N_5  and  S_6
REMARK    4  A    between atoms: S_6  and  C_9
REMARK    5  A    between atoms: C_12  and  N_13
REMARK    6  A    between atoms: C_14  and  C_16
REMARK    7  A    between atoms: C_16  and  O_17
REMARK    8  A    between atoms: O_17  and  C_18
REMARK    9  A    between atoms: C_23  and  C_24
REMARK   10  A    between atoms: C_28  and  C_29
REMARK                            x       y       z     vdW  Elec       q    Type
REMARK                         _______ _______ _______ _____ _____    ______ ____
ROOT
ATOM      1  C   UNL     1       1.583   7.521  20.461  0.00  0.00    +0.000 A 
ATOM      2  C   UNL     1       1.407   6.241  20.993  0.00  0.00    +0.000 A 
ATOM      3  C   UNL     1       1.792   5.124  20.249  0.00  0.00    +0.000 A 
ATOM      4  C   UNL     1       2.342   5.290  18.981  0.00  0.00    +0.000 A 
ATOM      5  C   UNL     1       2.524   6.566  18.444  0.00  0.00    +0.000 A 
ATOM      6  C   UNL     1       2.123   7.688  19.180  0.00  0.00    +0.000 A 
ENDROOT
BRANCH   4   7
ATOM      7  N   UNL     1       2.676   4.163  18.231  0.00  0.00    +0.000 N 
ATOM      8  C   UNL     1       3.922   3.577  18.193  0.00  0.00    +0.000 C 
ATOM      9  O   UNL     1       4.088   2.559  17.519  0.00  0.00    +0.000 OA
ATOM     10  H   UNL     1       1.954   3.667  17.732  0.00  0.00    +0.000 HD
BRANCH   8  11
ATOM     11  C   UNL     1       5.040   4.181  19.030  0.00  0.00    +0.000 C 
BRANCH  11  12
ATOM     12  O   UNL     1       6.287   4.162  18.341  0.00  0.00    +0.000 OA
BRANCH  12  13
ATOM     13  C   UNL     1       6.848   5.408  18.191  0.00  0.00    +0.000 A 
ATOM     14  C   UNL     1       7.798   5.920  19.086  0.00  0.00    +0.000 A 
ATOM     15  C   UNL     1       8.320   7.200  18.920  0.00  0.00    +0.000 A 
ATOM     16  C   UNL     1       7.916   7.973  17.841  0.00  0.00    +0.000 A 
ATOM     17  C   UNL     1       7.002   7.461  16.921  0.00  0.00    +0.000 A 
ATOM     18  C   UNL     1       6.458   6.176  17.079  0.00  0.00    +0.000 A 
ATOM     19  C   UNL     1       5.507   5.664  16.033  0.00  0.00    +0.000 C 
ENDBRANCH  12  13
ENDBRANCH  11  12
ENDBRANCH   8  11
ENDBRANCH   4   7
BRANCH   1  20
ATOM     20  S   UNL     1       0.976   8.931  21.373  0.00  0.00    +0.000 S 
ATOM     21  O   UNL     1       1.965   9.254  22.381  0.00  0.00    +0.000 OA
ATOM     22  O   UNL     1      -0.399   8.670  21.744  0.00  0.00    +0.000 OA
BRANCH  20  23
ATOM     23  N   UNL     1       1.006  10.187  20.291  0.00  0.00    +0.000 N 
ATOM     24  H   UNL     1       1.890  10.620  20.052  0.00  0.00    +0.000 HD
BRANCH  23  28
ATOM     25  C   UNL     1      -2.932  13.120  20.414  0.00  0.00    +0.000 C 
ATOM     26  C   UNL     1      -2.060  12.061  19.812  0.00  0.00    +0.000 A 
ATOM     27  C   UNL     1      -0.892  11.664  20.422  0.00  0.00    +0.000 A 
ATOM     28  C   UNL     1      -0.199  10.672  19.774  0.00  0.00    +0.000 A 
ATOM     29  N   UNL     1      -0.556  10.118  18.614  0.00  0.00    +0.000 NA
ATOM     30  C   UNL     1      -1.712  10.560  18.098  0.00  0.00    +0.000 A 
ATOM     31  C   UNL     1      -2.194   9.934  16.827  0.00  0.00    +0.000 C 
ATOM     32  N   UNL     1      -2.484  11.513  18.653  0.00  0.00    +0.000 NA
ENDBRANCH  23  28
ENDBRANCH  20  23
ENDBRANCH   1  20
TORSDOF 7
ENDMDL
MODEL 5
REMARK VINA RESULT:      -7.9      3.347      5.154
REMARK  Name = 
REMARK  10 active torsions:
REMARK  status: ('A' for Active; 'I' for Inactive)
REMARK    1  A    between atoms: C_1  and  C_2
REMARK    2  A    between atoms: C_4  and  N_5
REMARK    3  A    between atoms: N_5  and  S_6
REMARK    4  A    between atoms: S_6  and  C_9
REMARK    5  A    between atoms: C_12  and  N_13
REMARK    6  A    between atoms: C_14  and  C_16
REMARK    7  A    between atoms: C_16  and  O_17
REMARK    8  A    between atoms: O_17  and  C_18
REMARK    9  A    between atoms: C_23  and  C_24
REMARK   10  A    between atoms: C_28  and  C_29
REMARK                            x       y       z     vdW  Elec       q    Type
REMARK                         _______ _______ _______ _____ _____    ______ ____
ROOT
ATOM      1  C   UNL     1       2.260   4.827  18.920  0.00  0.00    +0.000 A 
ATOM      2  C   UNL     1       1.654   4.787  20.178  0.00  0.00    +0.000 A 
ATOM      3  C   UNL     1       1.505   5.965  20.912  0.00  0.00    +0.000 A 
ATOM      4  C   UNL     1       1.967   7.172  20.391  0.00  0.00    +0.000 A 
ATOM      5  C   UNL     1       2.570   7.220  19.133  0.00  0.00    +0.000 A 
ATOM      6  C   UNL     1       2.737   6.037  18.401  0.00  0.00    +0.000 A 
ENDROOT
BRANCH   4   7
ATOM      7  N   UNL     1       1.855   8.331  21.157  0.00  0.00    +0.000 N 
ATOM      8  C   UNL     1       0.998   9.376  20.892  0.00  0.00    +0.000 C 
ATOM      9  O   UNL     1       0.963  10.336  21.663  0.00  0.00    +0.000 OA
ATOM     10  H   UNL     1       2.368   8.406  22.022  0.00  0.00    +0.000 HD
BRANCH   8  11
ATOM     11  C   UNL     1       0.084   9.283  19.678  0.00  0.00    +0.000 C 
BRANCH  11  12
ATOM     12  O   UNL     1      -0.125  10.556  19.074  0.00  0.00    +0.000 OA
BRANCH  12  13
ATOM     13  C   UNL     1      -1.331  10.663  18.424  0.00  0.00    +0.000 A 
ATOM     14  C   UNL     1      -1.633   9.928  17.269  0.00  0.00    +0.000 A 
ATOM     15  C   UNL     1      -2.853  10.088  16.618  0.00  0.00    +0.000 A 
ATOM     16  C   UNL     1      -3.797  10.967  17.131  0.00  0.00    +0.000 A 
ATOM     17  C   UNL     1      -3.525  11.675  18.301  0.00  0.00    +0.000 A 
ATOM     18  C   UNL     1      -2.296  11.533  18.965  0.00  0.00    +0.000 A 
ATOM     19  C   UNL     1      -2.076  12.293  20.243  0.00  0.00    +0.000 C 
ENDBRANCH  12  13
ENDBRANCH  11  12
ENDBRANCH   8  11
ENDBRANCH   4   7
BRANCH   1  20
ATOM     20  S   UNL     1       2.551   3.297  18.047  0.00  0.00    +0.000 S 
ATOM     21  O   UNL     1       2.487   3.588  16.629  0.00  0.00    +0.000 OA
ATOM     22  O   UNL     1       1.704   2.278  18.630  0.00  0.00    +0.000 OA
BRANCH  20  23
ATOM     23  N   UNL     1       4.133   2.918  18.360  0.00  0.00    +0.000 N 
ATOM     24  H   UNL     1       4.349   2.151  18.987  0.00  0.00    +0.000 HD
BRANCH  23  28
ATOM     25  C   UNL     1       6.603   4.816  14.562  0.00  0.00    +0.000 C 
ATOM     26  C   UNL     1       6.318   4.619  16.019  0.00  0.00    +0.000 A 
ATOM     27  C   UNL     1       5.286   3.812  16.444  0.00  0.00    +0.000 A 
ATOM     28  C   UNL     1       5.147   3.704  17.806  0.00  0.00    +0.000 A 
ATOM     29  N   UNL     1       5.898   4.340  18.706  0.00  0.00    +0.000 NA
ATOM     30  C   UNL     1       6.884   5.097  18.203  0.00  0.00    +0.000 A 
ATOM     31  C   UNL     1       7.796   5.788  19.166  0.00  0.00    +0.000 C 
ATOM     32  N   UNL     1       7.126   5.263  16.888  0.00  0.00    +0.000 NA
ENDBRANCH  23  28
ENDBRANCH  20  23
ENDBRANCH   1  20
TORSDOF 7
ENDMDL
MODEL 6
REMARK VINA RESULT:      -7.8      3.896      5.712
REMARK  Name = 
REMARK  10 active torsions:
REMARK  status: ('A' for Active; 'I' for Inactive)
REMARK    1  A    between atoms: C_1  and  C_2
REMARK    2  A    between atoms: C_4  and  N_5
REMARK    3  A    between atoms: N_5  and  S_6
REMARK    4  A    between atoms: S_6  and  C_9
REMARK    5  A    between atoms: C_12  and  N_13
REMARK    6  A    between atoms: C_14  and  C_16
REMARK    7  A    between atoms: C_16  and  O_17
REMARK    8  A    between atoms: O_17  and  C_18
REMARK    9  A    between atoms: C_23  and  C_24
REMARK   10  A    between atoms: C_28  and  C_29
REMARK                            x       y       z     vdW  Elec       q    Type
REMARK                         _______ _______ _______ _____ _____    ______ ____
ROOT
ATOM      1  C   UNL     1       2.403   5.941  18.929  0.00  0.00    +0.000 A 
ATOM      2  C   UNL     1       2.005   6.279  20.225  0.00  0.00    +0.000 A 
ATOM      3  C   UNL     1       1.722   7.610  20.537  0.00  0.00    +0.000 A 
ATOM      4  C   UNL     1       1.843   8.594  19.559  0.00  0.00    +0.000 A 
ATOM      5  C   UNL     1       2.237   8.263  18.261  0.00  0.00    +0.000 A 
ATOM      6  C   UNL     1       2.539   6.932  17.949  0.00  0.00    +0.000 A 
ENDROOT
BRANCH   4   7
ATOM      7  N   UNL     1       1.604   9.924  19.899  0.00  0.00    +0.000 N 
ATOM      8  C   UNL     1       0.407  10.585  19.723  0.00  0.00    +0.000 C 
ATOM      9  O   UNL     1       0.305  11.754  20.096  0.00  0.00    +0.000 OA
ATOM     10  H   UNL     1       2.314  10.448  20.387  0.00  0.00    +0.000 HD
BRANCH   8  11
ATOM     11  C   UNL     1      -0.765   9.825  19.119  0.00  0.00    +0.000 C 
BRANCH  11  12
ATOM     12  O   UNL     1      -1.947  10.620  19.079  0.00  0.00    +0.000 OA
BRANCH  12  13
ATOM     13  C   UNL     1      -2.575  10.607  17.857  0.00  0.00    +0.000 A 
ATOM     14  C   UNL     1      -2.062   9.913  16.752  0.00  0.00    +0.000 A 
ATOM     15  C   UNL     1      -2.709   9.951  15.520  0.00  0.00    +0.000 A 
ATOM     16  C   UNL     1      -3.892  10.664  15.386  0.00  0.00    +0.000 A 
ATOM     17  C   UNL     1      -4.435  11.326  16.487  0.00  0.00    +0.000 A 
ATOM     18  C   UNL     1      -3.790  11.306  17.734  0.00  0.00    +0.000 A 
ATOM     19  C   UNL     1      -4.443  12.007  18.892  0.00  0.00    +0.000 C 
ENDBRANCH  12  13
ENDBRANCH  11  12
ENDBRANCH   8  11
ENDBRANCH   4   7
BRANCH   1  20
ATOM     20  S   UNL     1       2.877   4.257  18.577  0.00  0.00    +0.000 S 
ATOM     21  O   UNL     1       2.724   4.051  17.152  0.00  0.00    +0.000 OA
ATOM     22  O   UNL     1       2.204   3.392  19.524  0.00  0.00    +0.000 OA
BRANCH  20  23
ATOM     23  N   UNL     1       4.508   4.199  18.870  0.00  0.00    +0.000 N 
ATOM     24  H   UNL     1       4.848   3.763  19.719  0.00  0.00    +0.000 HD
BRANCH  23  28
ATOM     25  C   UNL     1       7.708   7.700  17.593  0.00  0.00    +0.000 C 
ATOM     26  C   UNL     1       6.910   6.454  17.357  0.00  0.00    +0.000 A 
ATOM     27  C   UNL     1       6.072   5.947  18.325  0.00  0.00    +0.000 A 
ATOM     28  C   UNL     1       5.386   4.812  17.972  0.00  0.00    +0.000 A 
ATOM     29  N   UNL     1       5.506   4.174  16.807  0.00  0.00    +0.000 NA
ATOM     30  C   UNL     1       6.337   4.743  15.922  0.00  0.00    +0.000 A 
ATOM     31  C   UNL     1       6.470   4.105  14.576  0.00  0.00    +0.000 C 
ATOM     32  N   UNL     1       7.048   5.864  16.151  0.00  0.00    +0.000 NA
ENDBRANCH  23  28
ENDBRANCH  20  23
ENDBRANCH   1  20
TORSDOF 7
ENDMDL
MODEL 7
REMARK VINA RESULT:      -7.8      3.961      5.635
REMARK  Name = 
REMARK  10 active torsions:
REMARK  status: ('A' for Active; 'I' for Inactive)
REMARK    1  A    between atoms: C_1  and  C_2
REMARK    2  A    between atoms: C_4  and  N_5
REMARK    3  A    between atoms: N_5  and  S_6
REMARK    4  A    between atoms: S_6  and  C_9
REMARK    5  A    between atoms: C_12  and  N_13
REMARK    6  A    between atoms: C_14  and  C_16
REMARK    7  A    between atoms: C_16  and  O_17
REMARK    8  A    between atoms: O_17  and  C_18
REMARK    9  A    between atoms: C_23  and  C_24
REMARK   10  A    between atoms: C_28  and  C_29
REMARK                            x       y       z     vdW  Elec       q    Type
REMARK                         _______ _______ _______ _____ _____    ______ ____
ROOT
ATOM      1  C   UNL     1       2.433   6.116  18.961  0.00  0.00    +0.000 A 
ATOM      2  C   UNL     1       2.040   6.542  20.233  0.00  0.00    +0.000 A 
ATOM      3  C   UNL     1       1.745   7.889  20.452  0.00  0.00    +0.000 A 
ATOM      4  C   UNL     1       1.850   8.802  19.405  0.00  0.00    +0.000 A 
ATOM      5  C   UNL     1       2.239   8.383  18.131  0.00  0.00    +0.000 A 
ATOM      6  C   UNL     1       2.553   7.036  17.912  0.00  0.00    +0.000 A 
ENDROOT
BRANCH   4   7
ATOM      7  N   UNL     1       1.599  10.150  19.651  0.00  0.00    +0.000 N 
ATOM      8  C   UNL     1       0.367  10.759  19.552  0.00  0.00    +0.000 C 
ATOM      9  O   UNL     1       0.262  11.954  19.830  0.00  0.00    +0.000 OA
ATOM     10  H   UNL     1       2.338  10.736  20.010  0.00  0.00    +0.000 HD
BRANCH   8  11
ATOM     11  C   UNL     1      -0.835   9.915  19.150  0.00  0.00    +0.000 C 
BRANCH  11  12
ATOM     12  O   UNL     1      -2.027  10.692  19.082  0.00  0.00    +0.000 OA
BRANCH  12  13
ATOM     13  C   UNL     1      -2.635  10.655  17.850  0.00  0.00    +0.000 A 
ATOM     14  C   UNL     1      -2.080   9.978  16.755  0.00  0.00    +0.000 A 
ATOM     15  C   UNL     1      -2.709   9.991  15.513  0.00  0.00    +0.000 A 
ATOM     16  C   UNL     1      -3.914  10.662  15.358  0.00  0.00    +0.000 A 
ATOM     17  C   UNL     1      -4.497  11.306  16.449  0.00  0.00    +0.000 A 
ATOM     18  C   UNL     1      -3.872  11.311  17.706  0.00  0.00    +0.000 A 
ATOM     19  C   UNL     1      -4.567  11.990  18.853  0.00  0.00    +0.000 C 
ENDBRANCH  12  13
ENDBRANCH  11  12
ENDBRANCH   8  11
ENDBRANCH   4   7
BRANCH   1  20
ATOM     20  S   UNL     1       2.922   4.416  18.727  0.00  0.00    +0.000 S 
ATOM     21  O   UNL     1       2.719   4.095  17.329  0.00  0.00    +0.000 OA
ATOM     22  O   UNL     1       2.300   3.620  19.764  0.00  0.00    +0.000 OA
BRANCH  20  23
ATOM     23  N   UNL     1       4.563   4.404  18.960  0.00  0.00    +0.000 N 
ATOM     24  H   UNL     1       4.939   4.105  19.852  0.00  0.00    +0.000 HD
BRANCH  23  28
ATOM     25  C   UNL     1       6.518   4.167  14.460  0.00  0.00    +0.000 C 
ATOM     26  C   UNL     1       6.325   4.779  15.814  0.00  0.00    +0.000 A 
ATOM     27  C   UNL     1       5.469   4.221  16.735  0.00  0.00    +0.000 A 
ATOM     28  C   UNL     1       5.401   4.871  17.943  0.00  0.00    +0.000 A 
ATOM     29  N   UNL     1       6.060   5.989  18.250  0.00  0.00    +0.000 NA
ATOM     30  C   UNL     1       6.877   6.456  17.296  0.00  0.00    +0.000 A 
ATOM     31  C   UNL     1       7.688   7.676  17.604  0.00  0.00    +0.000 C 
ATOM     32  N   UNL     1       7.039   5.893  16.083  0.00  0.00    +0.000 NA
ENDBRANCH  23  28
ENDBRANCH  20  23
ENDBRANCH   1  20
TORSDOF 7
ENDMDL
MODEL 8
REMARK VINA RESULT:      -7.7      3.762      5.877
REMARK  Name = 
REMARK  10 active torsions:
REMARK  status: ('A' for Active; 'I' for Inactive)
REMARK    1  A    between atoms: C_1  and  C_2
REMARK    2  A    between atoms: C_4  and  N_5
REMARK    3  A    between atoms: N_5  and  S_6
REMARK    4  A    between atoms: S_6  and  C_9
REMARK    5  A    between atoms: C_12  and  N_13
REMARK    6  A    between atoms: C_14  and  C_16
REMARK    7  A    between atoms: C_16  and  O_17
REMARK    8  A    between atoms: O_17  and  C_18
REMARK    9  A    between atoms: C_23  and  C_24
REMARK   10  A    between atoms: C_28  and  C_29
REMARK                            x       y       z     vdW  Elec       q    Type
REMARK                         _______ _______ _______ _____ _____    ______ ____
ROOT
ATOM      1  C   UNL     1       2.102   5.386  19.137  0.00  0.00    +0.000 A 
ATOM      2  C   UNL     1       2.279   6.036  17.913  0.00  0.00    +0.000 A 
ATOM      3  C   UNL     1       2.278   7.431  17.864  0.00  0.00    +0.000 A 
ATOM      4  C   UNL     1       2.095   8.167  19.032  0.00  0.00    +0.000 A 
ATOM      5  C   UNL     1       1.921   7.524  20.259  0.00  0.00    +0.000 A 
ATOM      6  C   UNL     1       1.904   6.125  20.310  0.00  0.00    +0.000 A 
ENDROOT
BRANCH   4   7
ATOM      7  N   UNL     1       2.047   9.558  18.959  0.00  0.00    +0.000 N 
ATOM      8  C   UNL     1       0.895  10.312  18.934  0.00  0.00    +0.000 C 
ATOM      9  O   UNL     1       0.979  11.541  18.904  0.00  0.00    +0.000 OA
ATOM     10  H   UNL     1       2.904  10.088  19.009  0.00  0.00    +0.000 HD
BRANCH   8  11
ATOM     11  C   UNL     1      -0.448   9.597  18.996  0.00  0.00    +0.000 C 
BRANCH  11  12
ATOM     12  O   UNL     1      -1.531  10.515  19.114  0.00  0.00    +0.000 OA
BRANCH  12  13
ATOM     13  C   UNL     1      -2.305  10.599  17.981  0.00  0.00    +0.000 A 
ATOM     14  C   UNL     1      -2.002   9.894  16.808  0.00  0.00    +0.000 A 
ATOM     15  C   UNL     1      -2.790  10.030  15.668  0.00  0.00    +0.000 A 
ATOM     16  C   UNL     1      -3.905  10.856  15.697  0.00  0.00    +0.000 A 
ATOM     17  C   UNL     1      -4.240  11.532  16.870  0.00  0.00    +0.000 A 
ATOM     18  C   UNL     1      -3.451  11.413  18.025  0.00  0.00    +0.000 A 
ATOM     19  C   UNL     1      -3.884  12.136  19.269  0.00  0.00    +0.000 C 
ENDBRANCH  12  13
ENDBRANCH  11  12
ENDBRANCH   8  11
ENDBRANCH   4   7
BRANCH   1  20
ATOM     20  S   UNL     1       1.986   3.605  19.166  0.00  0.00    +0.000 S 
ATOM     21  O   UNL     1       1.540   3.177  17.856  0.00  0.00    +0.000 OA
ATOM     22  O   UNL     1       1.255   3.220  20.356  0.00  0.00    +0.000 OA
BRANCH  20  23
ATOM     23  N   UNL     1       3.549   3.074  19.308  0.00  0.00    +0.000 N 
ATOM     24  H   UNL     1       3.773   2.353  19.984  0.00  0.00    +0.000 HD
BRANCH  23  28
ATOM     25  C   UNL     1       5.713   4.146  15.030  0.00  0.00    +0.000 C 
ATOM     26  C   UNL     1       5.576   4.202  16.521  0.00  0.00    +0.000 A 
ATOM     27  C   UNL     1       4.544   3.561  17.169  0.00  0.00    +0.000 A 
ATOM     28  C   UNL     1       4.548   3.677  18.537  0.00  0.00    +0.000 A 
ATOM     29  N   UNL     1       5.434   4.378  19.245  0.00  0.00    +0.000 NA
ATOM     30  C   UNL     1       6.408   4.962  18.532  0.00  0.00    +0.000 A 
ATOM     31  C   UNL     1       7.465   5.714  19.277  0.00  0.00    +0.000 C 
ATOM     32  N   UNL     1       6.516   4.901  17.191  0.00  0.00    +0.000 NA
ENDBRANCH  23  28
ENDBRANCH  20  23
ENDBRANCH   1  20
TORSDOF 7
ENDMDL
MODEL 9
REMARK VINA RESULT:      -7.7      3.278      4.773
REMARK  Name = 
REMARK  10 active torsions:
REMARK  status: ('A' for Active; 'I' for Inactive)
REMARK    1  A    between atoms: C_1  and  C_2
REMARK    2  A    between atoms: C_4  and  N_5
REMARK    3  A    between atoms: N_5  and  S_6
REMARK    4  A    between atoms: S_6  and  C_9
REMARK    5  A    between atoms: C_12  and  N_13
REMARK    6  A    between atoms: C_14  and  C_16
REMARK    7  A    between atoms: C_16  and  O_17
REMARK    8  A    between atoms: O_17  and  C_18
REMARK    9  A    between atoms: C_23  and  C_24
REMARK   10  A    between atoms: C_28  and  C_29
REMARK                            x       y       z     vdW  Elec       q    Type
REMARK                         _______ _______ _______ _____ _____    ______ ____
ROOT
ATOM      1  C   UNL     1       2.743   4.936  18.960  0.00  0.00    +0.000 A 
ATOM      2  C   UNL     1       3.026   6.230  18.516  0.00  0.00    +0.000 A 
ATOM      3  C   UNL     1       2.610   7.328  19.270  0.00  0.00    +0.000 A 
ATOM      4  C   UNL     1       1.909   7.129  20.458  0.00  0.00    +0.000 A 
ATOM      5  C   UNL     1       1.625   5.838  20.910  0.00  0.00    +0.000 A 
ATOM      6  C   UNL     1       2.026   4.735  20.146  0.00  0.00    +0.000 A 
ENDROOT
BRANCH   4   7
ATOM      7  N   UNL     1       1.458   8.235  21.175  0.00  0.00    +0.000 N 
ATOM      8  C   UNL     1       0.877   9.355  20.622  0.00  0.00    +0.000 C 
ATOM      9  O   UNL     1       0.483  10.257  21.362  0.00  0.00    +0.000 OA
ATOM     10  H   UNL     1       1.468   8.212  22.183  0.00  0.00    +0.000 HD
BRANCH   8  11
ATOM     11  C   UNL     1       0.694   9.414  19.111  0.00  0.00    +0.000 C 
BRANCH  11  12
ATOM     12  O   UNL     1       0.216  10.687  18.685  0.00  0.00    +0.000 OA
BRANCH  12  13
ATOM     13  C   UNL     1      -1.088  10.665  18.252  0.00  0.00    +0.000 A 
ATOM     14  C   UNL     1      -1.548   9.754  17.291  0.00  0.00    +0.000 A 
ATOM     15  C   UNL     1      -2.869   9.784  16.852  0.00  0.00    +0.000 A 
ATOM     16  C   UNL     1      -3.751  10.711  17.388  0.00  0.00    +0.000 A 
ATOM     17  C   UNL     1      -3.317  11.597  18.373  0.00  0.00    +0.000 A 
ATOM     18  C   UNL     1      -1.986  11.587  18.820  0.00  0.00    +0.000 A 
ATOM     19  C   UNL     1      -1.586  12.540  19.911  0.00  0.00    +0.000 C 
ENDBRANCH  12  13
ENDBRANCH  11  12
ENDBRANCH   8  11
ENDBRANCH   4   7
BRANCH   1  20
ATOM     20  S   UNL     1       3.176   3.547  17.925  0.00  0.00    +0.000 S 
ATOM     21  O   UNL     1       2.889   3.920  16.556  0.00  0.00    +0.000 OA
ATOM     22  O   UNL     1       2.590   2.355  18.503  0.00  0.00    +0.000 OA
BRANCH  20  23
ATOM     23  N   UNL     1       4.826   3.433  18.028  0.00  0.00    +0.000 N 
ATOM     24  H   UNL     1       5.243   2.840  18.737  0.00  0.00    +0.000 HD
BRANCH  23  28
ATOM     25  C   UNL     1       6.840   4.456  13.666  0.00  0.00    +0.000 C 
ATOM     26  C   UNL     1       6.569   4.711  15.117  0.00  0.00    +0.000 A 
ATOM     27  C   UNL     1       5.768   3.868  15.854  0.00  0.00    +0.000 A 
ATOM     28  C   UNL     1       5.619   4.208  17.177  0.00  0.00    +0.000 A 
ATOM     29  N   UNL     1       6.150   5.284  17.757  0.00  0.00    +0.000 NA
ATOM     30  C   UNL     1       6.922   6.043  16.966  0.00  0.00    +0.000 A 
ATOM     31  C   UNL     1       7.593   7.233  17.576  0.00  0.00    +0.000 C 
ATOM     32  N   UNL     1       7.155   5.799  15.662  0.00  0.00    +0.000 NA
ENDBRANCH  23  28
ENDBRANCH  20  23
ENDBRANCH   1  20
TORSDOF 7
ENDMDL
