MODEL 1
REMARK VINA RESULT:      -8.6      0.000      0.000
REMARK  Name = 
REMARK  4 active torsions:
REMARK  status: ('A' for Active; 'I' for Inactive)
REMARK    1  A    between atoms: C_1  and  N_2
REMARK    2  A    between atoms: C_9  and  C_10
REMARK    3  A    between atoms: C_14  and  C_15
REMARK    4  A    between atoms: N_17  and  C_18
REMARK                            x       y       z     vdW  Elec       q    Type
REMARK                         _______ _______ _______ _____ _____    ______ ____
ROOT
ATOM      1  C   UNL     1       2.060   7.897  19.064  0.00  0.00    +0.000 A 
ATOM      2  C   UNL     1       1.690   8.545  17.872  0.00  0.00    +0.000 A 
ATOM      3  C   UNL     1       0.866   9.672  17.882  0.00  0.00    +0.000 A 
ATOM      4  C   UNL     1       0.409  10.190  19.091  0.00  0.00    +0.000 A 
ATOM      5  C   UNL     1       0.795   9.600  20.299  0.00  0.00    +0.000 A 
ATOM      6  C   UNL     1       1.596   8.450  20.279  0.00  0.00    +0.000 A 
ENDROOT
BRANCH   1  15
ATOM      7  C   UNL     1       2.527   2.828  21.424  0.00  0.00    +0.000 C 
ATOM      8  N   UNL     1       3.466   3.247  20.427  0.00  0.00    +0.000 N 
ATOM      9  C   UNL     1       4.542   2.487  19.930  0.00  0.00    +0.000 A 
ATOM     10  O   UNL     1       4.863   1.357  20.250  0.00  0.00    +0.000 OA
ATOM     11  N   UNL     1       5.186   3.280  18.975  0.00  0.00    +0.000 N 
ATOM     12  C   UNL     1       4.532   4.497  18.882  0.00  0.00    +0.000 A 
ATOM     13  N   UNL     1       4.859   5.506  18.078  0.00  0.00    +0.000 NA
ATOM     14  C   UNL     1       4.032   6.579  18.196  0.00  0.00    +0.000 A 
ATOM     15  C   UNL     1       2.907   6.683  19.049  0.00  0.00    +0.000 A 
ATOM     16  C   UNL     1       2.632   5.574  19.873  0.00  0.00    +0.000 A 
ATOM     17  C   UNL     1       3.467   4.484  19.770  0.00  0.00    +0.000 A 
ATOM     18  H   UNL     1       5.991   3.015  18.439  0.00  0.00    +0.000 HD
ENDBRANCH   1  15
BRANCH   5  19
ATOM     19  C   UNL     1       0.335  10.229  21.569  0.00  0.00    +0.000 C 
ATOM     20  O   UNL     1       0.755   9.805  22.642  0.00  0.00    +0.000 OA
ATOM     21  N   UNL     1      -0.601  11.244  21.464  0.00  0.00    +0.000 N 
ATOM     22  H   UNL     1      -1.038  11.424  20.570  0.00  0.00    +0.000 HD
BRANCH  21  23
ATOM     23  C   UNL     1      -1.208  11.826  22.627  0.00  0.00    +0.000 C 
ATOM     24  C   UNL     1      -2.641  12.298  22.594  0.00  0.00    +0.000 C 
ATOM     25  C   UNL     1      -3.450  12.499  23.831  0.00  0.00    +0.000 C 
ATOM     26  O   UNL     1      -3.050  13.770  24.371  0.00  0.00    +0.000 OA
ATOM     27  C   UNL     1      -1.700  14.023  23.945  0.00  0.00    +0.000 C 
ATOM     28  C   UNL     1      -1.542  13.292  22.658  0.00  0.00    +0.000 C 
ENDBRANCH  21  23
ENDBRANCH   5  19
TORSDOF 3
ENDMDL
MODEL 2
REMARK VINA RESULT:      -8.5      3.762      5.283
REMARK  Name = 
REMARK  4 active torsions:
REMARK  status: ('A' for Active; 'I' for Inactive)
REMARK    1  A    between atoms: C_1  and  N_2
REMARK    2  A    between atoms: C_9  and  C_10
REMARK    3  A    between atoms: C_14  and  C_15
REMARK    4  A    between atoms: N_17  and  C_18
REMARK                            x       y       z     vdW  Elec       q    Type
REMARK                         _______ _______ _______ _____ _____    ______ ____
ROOT
ATOM      1  C   UNL     1       4.158   5.166  17.810  0.00  0.00    +0.000 A 
ATOM      2  C   UNL     1       3.735   3.984  18.445  0.00  0.00    +0.000 A 
ATOM      3  C   UNL     1       2.816   4.010  19.495  0.00  0.00    +0.000 A 
ATOM      4  C   UNL     1       2.279   5.223  19.921  0.00  0.00    +0.000 A 
ATOM      5  C   UNL     1       2.639   6.413  19.282  0.00  0.00    +0.000 A 
ATOM      6  C   UNL     1       3.588   6.382  18.250  0.00  0.00    +0.000 A 
ENDROOT
BRANCH   1  15
ATOM      7  C   UNL     1       4.893   3.328  12.560  0.00  0.00    +0.000 C 
ATOM      8  N   UNL     1       5.935   4.057  13.221  0.00  0.00    +0.000 N 
ATOM      9  C   UNL     1       7.184   4.399  12.669  0.00  0.00    +0.000 A 
ATOM     10  O   UNL     1       7.598   4.145  11.553  0.00  0.00    +0.000 OA
ATOM     11  N   UNL     1       7.877   5.108  13.656  0.00  0.00    +0.000 N 
ATOM     12  C   UNL     1       7.084   5.201  14.787  0.00  0.00    +0.000 A 
ATOM     13  N   UNL     1       7.408   5.806  15.928  0.00  0.00    +0.000 NA
ATOM     14  C   UNL     1       6.428   5.745  16.869  0.00  0.00    +0.000 A 
ATOM     15  C   UNL     1       5.158   5.138  16.720  0.00  0.00    +0.000 A 
ATOM     16  C   UNL     1       4.894   4.514  15.484  0.00  0.00    +0.000 A 
ATOM     17  C   UNL     1       5.882   4.561  14.526  0.00  0.00    +0.000 A 
ATOM     18  H   UNL     1       8.799   5.491  13.565  0.00  0.00    +0.000 HD
ENDBRANCH   1  15
BRANCH   5  19
ATOM     19  C   UNL     1       1.989   7.678  19.729  0.00  0.00    +0.000 C 
ATOM     20  O   UNL     1       1.900   8.621  18.949  0.00  0.00    +0.000 OA
ATOM     21  N   UNL     1       1.562   7.733  21.045  0.00  0.00    +0.000 N 
ATOM     22  H   UNL     1       1.825   6.993  21.682  0.00  0.00    +0.000 HD
BRANCH  21  23
ATOM     23  C   UNL     1       1.045   8.944  21.614  0.00  0.00    +0.000 C 
ATOM     24  C   UNL     1      -0.290   8.957  22.318  0.00  0.00    +0.000 C 
ATOM     25  C   UNL     1      -0.680  10.026  23.282  0.00  0.00    +0.000 C 
ATOM     26  O   UNL     1      -1.094  11.152  22.489  0.00  0.00    +0.000 OA
ATOM     27  C   UNL     1      -0.412  11.072  21.225  0.00  0.00    +0.000 C 
ATOM     28  C   UNL     1      -0.148   9.625  21.002  0.00  0.00    +0.000 C 
ENDBRANCH  21  23
ENDBRANCH   5  19
TORSDOF 3
ENDMDL
MODEL 3
REMARK VINA RESULT:      -8.4      3.564      5.867
REMARK  Name = 
REMARK  4 active torsions:
REMARK  status: ('A' for Active; 'I' for Inactive)
REMARK    1  A    between atoms: C_1  and  N_2
REMARK    2  A    between atoms: C_9  and  C_10
REMARK    3  A    between atoms: C_14  and  C_15
REMARK    4  A    between atoms: N_17  and  C_18
REMARK                            x       y       z     vdW  Elec       q    Type
REMARK                         _______ _______ _______ _____ _____    ______ ____
ROOT
ATOM      1  C   UNL     1       4.578   3.988  18.509  0.00  0.00    +0.000 A 
ATOM      2  C   UNL     1       4.686   2.733  19.135  0.00  0.00    +0.000 A 
ATOM      3  C   UNL     1       3.860   2.378  20.203  0.00  0.00    +0.000 A 
ATOM      4  C   UNL     1       2.888   3.266  20.656  0.00  0.00    +0.000 A 
ATOM      5  C   UNL     1       2.719   4.504  20.027  0.00  0.00    +0.000 A 
ATOM      6  C   UNL     1       3.575   4.866  18.976  0.00  0.00    +0.000 A 
ENDROOT
BRANCH   1  15
ATOM      7  C   UNL     1       5.250   3.372  12.972  0.00  0.00    +0.000 C 
ATOM      8  N   UNL     1       6.178   4.160  13.727  0.00  0.00    +0.000 N 
ATOM      9  C   UNL     1       7.290   4.850  13.210  0.00  0.00    +0.000 A 
ATOM     10  O   UNL     1       7.659   4.903  12.051  0.00  0.00    +0.000 OA
ATOM     11  N   UNL     1       7.907   5.485  14.293  0.00  0.00    +0.000 N 
ATOM     12  C   UNL     1       7.200   5.196  15.449  0.00  0.00    +0.000 A 
ATOM     13  N   UNL     1       7.489   5.626  16.675  0.00  0.00    +0.000 NA
ATOM     14  C   UNL     1       6.614   5.188  17.620  0.00  0.00    +0.000 A 
ATOM     15  C   UNL     1       5.478   4.373  17.399  0.00  0.00    +0.000 A 
ATOM     16  C   UNL     1       5.246   3.955  16.073  0.00  0.00    +0.000 A 
ATOM     17  C   UNL     1       6.129   4.385  15.109  0.00  0.00    +0.000 A 
ATOM     18  H   UNL     1       8.728   6.059  14.248  0.00  0.00    +0.000 HD
ENDBRANCH   1  15
BRANCH   5  19
ATOM     19  C   UNL     1       1.623   5.393  20.504  0.00  0.00    +0.000 C 
ATOM     20  O   UNL     1       0.482   4.950  20.599  0.00  0.00    +0.000 OA
ATOM     21  N   UNL     1       1.953   6.711  20.768  0.00  0.00    +0.000 N 
ATOM     22  H   UNL     1       2.866   7.056  20.500  0.00  0.00    +0.000 HD
BRANCH  21  23
ATOM     23  C   UNL     1       0.952   7.683  21.104  0.00  0.00    +0.000 C 
ATOM     24  C   UNL     1       1.026   9.087  20.559  0.00  0.00    +0.000 C 
ATOM     25  C   UNL     1      -0.159   9.991  20.503  0.00  0.00    +0.000 C 
ATOM     26  O   UNL     1      -0.324  10.522  21.829  0.00  0.00    +0.000 OA
ATOM     27  C   UNL     1       0.230   9.569  22.754  0.00  0.00    +0.000 C 
ATOM     28  C   UNL     1       1.287   8.844  21.998  0.00  0.00    +0.000 C 
ENDBRANCH  21  23
ENDBRANCH   5  19
TORSDOF 3
ENDMDL
MODEL 4
REMARK VINA RESULT:      -8.3      3.251      9.811
REMARK  Name = 
REMARK  4 active torsions:
REMARK  status: ('A' for Active; 'I' for Inactive)
REMARK    1  A    between atoms: C_1  and  N_2
REMARK    2  A    between atoms: C_9  and  C_10
REMARK    3  A    between atoms: C_14  and  C_15
REMARK    4  A    between atoms: N_17  and  C_18
REMARK                            x       y       z     vdW  Elec       q    Type
REMARK                         _______ _______ _______ _____ _____    ______ ____
ROOT
ATOM      1  C   UNL     1       2.552   6.233  19.705  0.00  0.00    +0.000 A 
ATOM      2  C   UNL     1       2.168   5.194  20.572  0.00  0.00    +0.000 A 
ATOM      3  C   UNL     1       2.718   3.916  20.465  0.00  0.00    +0.000 A 
ATOM      4  C   UNL     1       3.683   3.652  19.498  0.00  0.00    +0.000 A 
ATOM      5  C   UNL     1       4.125   4.672  18.649  0.00  0.00    +0.000 A 
ATOM      6  C   UNL     1       3.544   5.945  18.741  0.00  0.00    +0.000 A 
ENDROOT
BRANCH   1  15
ATOM      7  C   UNL     1      -0.141   9.601  23.294  0.00  0.00    +0.000 C 
ATOM      8  N   UNL     1       0.152  10.051  21.967  0.00  0.00    +0.000 N 
ATOM      9  C   UNL     1      -0.158  11.316  21.434  0.00  0.00    +0.000 A 
ATOM     10  O   UNL     1      -0.720  12.241  21.993  0.00  0.00    +0.000 OA
ATOM     11  N   UNL     1       0.313  11.323  20.117  0.00  0.00    +0.000 N 
ATOM     12  C   UNL     1       0.898  10.099  19.839  0.00  0.00    +0.000 A 
ATOM     13  N   UNL     1       1.456   9.738  18.686  0.00  0.00    +0.000 NA
ATOM     14  C   UNL     1       1.957   8.473  18.703  0.00  0.00    +0.000 A 
ATOM     15  C   UNL     1       1.943   7.579  19.799  0.00  0.00    +0.000 A 
ATOM     16  C   UNL     1       1.327   8.035  20.982  0.00  0.00    +0.000 A 
ATOM     17  C   UNL     1       0.808   9.310  20.975  0.00  0.00    +0.000 A 
ATOM     18  H   UNL     1       0.245  12.089  19.473  0.00  0.00    +0.000 HD
ENDBRANCH   1  15
BRANCH   5  19
ATOM     19  C   UNL     1       5.207   4.358  17.673  0.00  0.00    +0.000 C 
ATOM     20  O   UNL     1       6.378   4.379  18.041  0.00  0.00    +0.000 OA
ATOM     21  N   UNL     1       4.822   4.109  16.367  0.00  0.00    +0.000 N 
ATOM     22  H   UNL     1       3.864   4.283  16.091  0.00  0.00    +0.000 HD
BRANCH  21  23
ATOM     23  C   UNL     1       5.789   3.927  15.322  0.00  0.00    +0.000 C 
ATOM     24  C   UNL     1       6.263   5.099  14.498  0.00  0.00    +0.000 C 
ATOM     25  C   UNL     1       7.537   5.074  13.724  0.00  0.00    +0.000 C 
ATOM     26  O   UNL     1       7.260   4.345  12.516  0.00  0.00    +0.000 OA
ATOM     27  C   UNL     1       6.177   3.438  12.790  0.00  0.00    +0.000 C 
ATOM     28  C   UNL     1       5.388   4.073  13.880  0.00  0.00    +0.000 C 
ENDBRANCH  21  23
ENDBRANCH   5  19
TORSDOF 3
ENDMDL
MODEL 5
REMARK VINA RESULT:      -8.2      1.022      1.022
REMARK  Name = 
REMARK  4 active torsions:
REMARK  status: ('A' for Active; 'I' for Inactive)
REMARK    1  A    between atoms: C_1  and  N_2
REMARK    2  A    between atoms: C_9  and  C_10
REMARK    3  A    between atoms: C_14  and  C_15
REMARK    4  A    between atoms: N_17  and  C_18
REMARK                            x       y       z     vdW  Elec       q    Type
REMARK                         _______ _______ _______ _____ _____    ______ ____
ROOT
ATOM      1  C   UNL     1       2.185   7.747  19.007  0.00  0.00    +0.000 A 
ATOM      2  C   UNL     1       2.123   8.590  17.883  0.00  0.00    +0.000 A 
ATOM      3  C   UNL     1       1.441   9.807  17.921  0.00  0.00    +0.000 A 
ATOM      4  C   UNL     1       0.820  10.220  19.097  0.00  0.00    +0.000 A 
ATOM      5  C   UNL     1       0.901   9.431  20.249  0.00  0.00    +0.000 A 
ATOM      6  C   UNL     1       1.560   8.195  20.193  0.00  0.00    +0.000 A 
ENDROOT
BRANCH   1  15
ATOM      7  C   UNL     1       1.180   2.233  18.765  0.00  0.00    +0.000 C 
ATOM      8  N   UNL     1       2.527   2.719  18.770  0.00  0.00    +0.000 N 
ATOM      9  C   UNL     1       3.692   1.933  18.699  0.00  0.00    +0.000 A 
ATOM     10  O   UNL     1       3.766   0.720  18.622  0.00  0.00    +0.000 OA
ATOM     11  N   UNL     1       4.775   2.817  18.727  0.00  0.00    +0.000 N 
ATOM     12  C   UNL     1       4.298   4.114  18.814  0.00  0.00    +0.000 A 
ATOM     13  N   UNL     1       5.035   5.222  18.862  0.00  0.00    +0.000 NA
ATOM     14  C   UNL     1       4.294   6.360  18.940  0.00  0.00    +0.000 A 
ATOM     15  C   UNL     1       2.881   6.442  18.953  0.00  0.00    +0.000 A 
ATOM     16  C   UNL     1       2.174   5.224  18.906  0.00  0.00    +0.000 A 
ATOM     17  C   UNL     1       2.913   4.064  18.835  0.00  0.00    +0.000 A 
ATOM     18  H   UNL     1       5.743   2.561  18.688  0.00  0.00    +0.000 HD
ENDBRANCH   1  15
BRANCH   5  19
ATOM     19  C   UNL     1       0.277   9.945  21.501  0.00  0.00    +0.000 C 
ATOM     20  O   UNL     1       0.121   9.188  22.455  0.00  0.00    +0.000 OA
ATOM     21  N   UNL     1      -0.148  11.263  21.496  0.00  0.00    +0.000 N 
ATOM     22  H   UNL     1      -0.154  11.777  20.625  0.00  0.00    +0.000 HD
BRANCH  21  23
ATOM     23  C   UNL     1      -0.879  11.819  22.598  0.00  0.00    +0.000 C 
ATOM     24  C   UNL     1      -2.325  12.219  22.442  0.00  0.00    +0.000 C 
ATOM     25  C   UNL     1      -3.243  12.385  23.605  0.00  0.00    +0.000 C 
ATOM     26  O   UNL     1      -2.953  13.676  24.167  0.00  0.00    +0.000 OA
ATOM     27  C   UNL     1      -1.586  13.994  23.852  0.00  0.00    +0.000 C 
ATOM     28  C   UNL     1      -1.285  13.266  22.589  0.00  0.00    +0.000 C 
ENDBRANCH  21  23
ENDBRANCH   5  19
TORSDOF 3
ENDMDL
MODEL 6
REMARK VINA RESULT:      -8.2      3.704      5.508
REMARK  Name = 
REMARK  4 active torsions:
REMARK  status: ('A' for Active; 'I' for Inactive)
REMARK    1  A    between atoms: C_1  and  N_2
REMARK    2  A    between atoms: C_9  and  C_10
REMARK    3  A    between atoms: C_14  and  C_15
REMARK    4  A    between atoms: N_17  and  C_18
REMARK                            x       y       z     vdW  Elec       q    Type
REMARK                         _______ _______ _______ _____ _____    ______ ____
ROOT
ATOM      1  C   UNL     1       4.188   5.100  18.089  0.00  0.00    +0.000 A 
ATOM      2  C   UNL     1       3.875   3.896  18.746  0.00  0.00    +0.000 A 
ATOM      3  C   UNL     1       2.977   3.861  19.815  0.00  0.00    +0.000 A 
ATOM      4  C   UNL     1       2.354   5.032  20.239  0.00  0.00    +0.000 A 
ATOM      5  C   UNL     1       2.604   6.240  19.579  0.00  0.00    +0.000 A 
ATOM      6  C   UNL     1       3.532   6.272  18.528  0.00  0.00    +0.000 A 
ENDROOT
BRANCH   1  15
ATOM      7  C   UNL     1       4.901   3.384  12.795  0.00  0.00    +0.000 C 
ATOM      8  N   UNL     1       5.919   4.152  13.446  0.00  0.00    +0.000 N 
ATOM      9  C   UNL     1       7.138   4.564  12.876  0.00  0.00    +0.000 A 
ATOM     10  O   UNL     1       7.540   4.348  11.747  0.00  0.00    +0.000 OA
ATOM     11  N   UNL     1       7.817   5.290  13.860  0.00  0.00    +0.000 N 
ATOM     12  C   UNL     1       7.044   5.326  15.009  0.00  0.00    +0.000 A 
ATOM     13  N   UNL     1       7.363   5.927  16.153  0.00  0.00    +0.000 NA
ATOM     14  C   UNL     1       6.407   5.804  17.112  0.00  0.00    +0.000 A 
ATOM     15  C   UNL     1       5.165   5.138  16.979  0.00  0.00    +0.000 A 
ATOM     16  C   UNL     1       4.906   4.522  15.738  0.00  0.00    +0.000 A 
ATOM     17  C   UNL     1       5.870   4.632  14.761  0.00  0.00    +0.000 A 
ATOM     18  H   UNL     1       8.717   5.719  13.757  0.00  0.00    +0.000 HD
ENDBRANCH   1  15
BRANCH   5  19
ATOM     19  C   UNL     1       1.864   7.453  20.026  0.00  0.00    +0.000 C 
ATOM     20  O   UNL     1       1.322   7.461  21.127  0.00  0.00    +0.000 OA
ATOM     21  N   UNL     1       1.784   8.506  19.130  0.00  0.00    +0.000 N 
ATOM     22  H   UNL     1       2.096   8.369  18.177  0.00  0.00    +0.000 HD
BRANCH  21  23
ATOM     23  C   UNL     1       0.986   9.666  19.405  0.00  0.00    +0.000 C 
ATOM     24  C   UNL     1      -0.033  10.156  18.406  0.00  0.00    +0.000 C 
ATOM     25  C   UNL     1      -1.164  11.051  18.785  0.00  0.00    +0.000 C 
ATOM     26  O   UNL     1      -0.617  12.378  18.869  0.00  0.00    +0.000 OA
ATOM     27  C   UNL     1       0.781  12.257  19.186  0.00  0.00    +0.000 C 
ATOM     28  C   UNL     1       1.205  10.940  18.638  0.00  0.00    +0.000 C 
ENDBRANCH  21  23
ENDBRANCH   5  19
TORSDOF 3
ENDMDL
MODEL 7
REMARK VINA RESULT:      -8.0      1.194      1.931
REMARK  Name = 
REMARK  4 active torsions:
REMARK  status: ('A' for Active; 'I' for Inactive)
REMARK    1  A    between atoms: C_1  and  N_2
REMARK    2  A    between atoms: C_9  and  C_10
REMARK    3  A    between atoms: C_14  and  C_15
REMARK    4  A    between atoms: N_17  and  C_18
REMARK                            x       y       z     vdW  Elec       q    Type
REMARK                         _______ _______ _______ _____ _____    ______ ____
ROOT
ATOM      1  C   UNL     1       1.641   7.691  19.891  0.00  0.00    +0.000 A 
ATOM      2  C   UNL     1       1.886   8.497  18.765  0.00  0.00    +0.000 A 
ATOM      3  C   UNL     1       1.530   9.847  18.743  0.00  0.00    +0.000 A 
ATOM      4  C   UNL     1       0.935  10.427  19.860  0.00  0.00    +0.000 A 
ATOM      5  C   UNL     1       0.718   9.669  21.015  0.00  0.00    +0.000 A 
ATOM      6  C   UNL     1       1.050   8.307  21.017  0.00  0.00    +0.000 A 
ENDROOT
BRANCH   1  15
ATOM      7  C   UNL     1       4.085   3.742  16.744  0.00  0.00    +0.000 C 
ATOM      8  N   UNL     1       3.579   3.416  18.044  0.00  0.00    +0.000 N 
ATOM      9  C   UNL     1       3.643   2.154  18.665  0.00  0.00    +0.000 A 
ATOM     10  O   UNL     1       4.131   1.131  18.220  0.00  0.00    +0.000 OA
ATOM     11  N   UNL     1       3.036   2.293  19.918  0.00  0.00    +0.000 N 
ATOM     12  C   UNL     1       2.607   3.601  20.070  0.00  0.00    +0.000 A 
ATOM     13  N   UNL     1       1.987   4.106  21.134  0.00  0.00    +0.000 NA
ATOM     14  C   UNL     1       1.688   5.427  21.007  0.00  0.00    +0.000 A 
ATOM     15  C   UNL     1       1.990   6.253  19.899  0.00  0.00    +0.000 A 
ATOM     16  C   UNL     1       2.642   5.640  18.810  0.00  0.00    +0.000 A 
ATOM     17  C   UNL     1       2.943   4.302  18.922  0.00  0.00    +0.000 A 
ATOM     18  H   UNL     1       2.929   1.567  20.601  0.00  0.00    +0.000 HD
ENDBRANCH   1  15
BRANCH   5  19
ATOM     19  C   UNL     1       0.140  10.350  22.208  0.00  0.00    +0.000 C 
ATOM     20  O   UNL     1       0.408   9.935  23.332  0.00  0.00    +0.000 OA
ATOM     21  N   UNL     1      -0.728  11.403  21.971  0.00  0.00    +0.000 N 
ATOM     22  H   UNL     1      -1.046  11.579  21.027  0.00  0.00    +0.000 HD
BRANCH  21  23
ATOM     23  C   UNL     1      -1.442  12.041  23.040  0.00  0.00    +0.000 C 
ATOM     24  C   UNL     1      -2.922  12.308  22.926  0.00  0.00    +0.000 C 
ATOM     25  C   UNL     1      -3.788  12.554  24.116  0.00  0.00    +0.000 C 
ATOM     26  O   UNL     1      -3.575  13.926  24.493  0.00  0.00    +0.000 OA
ATOM     27  C   UNL     1      -2.257  14.301  24.055  0.00  0.00    +0.000 C 
ATOM     28  C   UNL     1      -1.966  13.441  22.876  0.00  0.00    +0.000 C 
ENDBRANCH  21  23
ENDBRANCH   5  19
TORSDOF 3
ENDMDL
MODEL 8
REMARK VINA RESULT:      -7.9      1.414      2.343
REMARK  Name = 
REMARK  4 active torsions:
REMARK  status: ('A' for Active; 'I' for Inactive)
REMARK    1  A    between atoms: C_1  and  N_2
REMARK    2  A    between atoms: C_9  and  C_10
REMARK    3  A    between atoms: C_14  and  C_15
REMARK    4  A    between atoms: N_17  and  C_18
REMARK                            x       y       z     vdW  Elec       q    Type
REMARK                         _______ _______ _______ _____ _____    ______ ____
ROOT
ATOM      1  C   UNL     1       2.058   8.062  18.949  0.00  0.00    +0.000 A 
ATOM      2  C   UNL     1       1.512   8.615  17.776  0.00  0.00    +0.000 A 
ATOM      3  C   UNL     1       0.550   9.625  17.826  0.00  0.00    +0.000 A 
ATOM      4  C   UNL     1       0.125  10.121  19.055  0.00  0.00    +0.000 A 
ATOM      5  C   UNL     1       0.680   9.630  20.241  0.00  0.00    +0.000 A 
ATOM      6  C   UNL     1       1.622   8.593  20.183  0.00  0.00    +0.000 A 
ENDROOT
BRANCH   1  15
ATOM      7  C   UNL     1       7.185   6.874  17.004  0.00  0.00    +0.000 C 
ATOM      8  N   UNL     1       6.447   5.890  17.738  0.00  0.00    +0.000 N 
ATOM      9  C   UNL     1       6.891   4.594  18.062  0.00  0.00    +0.000 A 
ATOM     10  O   UNL     1       7.961   4.084  17.783  0.00  0.00    +0.000 OA
ATOM     11  N   UNL     1       5.859   3.986  18.784  0.00  0.00    +0.000 N 
ATOM     12  C   UNL     1       4.805   4.877  18.905  0.00  0.00    +0.000 A 
ATOM     13  N   UNL     1       3.652   4.650  19.529  0.00  0.00    +0.000 NA
ATOM     14  C   UNL     1       2.802   5.712  19.494  0.00  0.00    +0.000 A 
ATOM     15  C   UNL     1       3.053   6.968  18.893  0.00  0.00    +0.000 A 
ATOM     16  C   UNL     1       4.295   7.125  18.247  0.00  0.00    +0.000 A 
ATOM     17  C   UNL     1       5.161   6.056  18.268  0.00  0.00    +0.000 A 
ATOM     18  H   UNL     1       5.874   3.057  19.160  0.00  0.00    +0.000 HD
ENDBRANCH   1  15
BRANCH   5  19
ATOM     19  C   UNL     1       0.242  10.238  21.529  0.00  0.00    +0.000 C 
ATOM     20  O   UNL     1       0.653   9.774  22.589  0.00  0.00    +0.000 OA
ATOM     21  N   UNL     1      -0.665  11.282  21.455  0.00  0.00    +0.000 N 
ATOM     22  H   UNL     1      -1.100  11.497  20.567  0.00  0.00    +0.000 HD
BRANCH  21  23
ATOM     23  C   UNL     1      -1.252  11.850  22.634  0.00  0.00    +0.000 C 
ATOM     24  C   UNL     1      -2.695  12.290  22.642  0.00  0.00    +0.000 C 
ATOM     25  C   UNL     1      -3.472  12.473  23.902  0.00  0.00    +0.000 C 
ATOM     26  O   UNL     1      -3.085  13.752  24.432  0.00  0.00    +0.000 OA
ATOM     27  C   UNL     1      -1.754  14.035  23.967  0.00  0.00    +0.000 C 
ATOM     28  C   UNL     1      -1.617  13.308  22.676  0.00  0.00    +0.000 C 
ENDBRANCH  21  23
ENDBRANCH   5  19
TORSDOF 3
ENDMDL
MODEL 9
REMARK VINA RESULT:      -7.8      1.656      2.442
REMARK  Name = 
REMARK  4 active torsions:
REMARK  status: ('A' for Active; 'I' for Inactive)
REMARK    1  A    between atoms: C_1  and  N_2
REMARK    2  A    between atoms: C_9  and  C_10
REMARK    3  A    between atoms: C_14  and  C_15
REMARK    4  A    between atoms: N_17  and  C_18
REMARK                            x       y       z     vdW  Elec       q    Type
REMARK                         _______ _______ _______ _____ _____    ______ ____
ROOT
ATOM      1  C   UNL     1       1.412   8.678  19.090  0.00  0.00    +0.000 A 
ATOM      2  C   UNL     1       0.894   9.331  17.957  0.00  0.00    +0.000 A 
ATOM      3  C   UNL     1      -0.013  10.386  18.076  0.00  0.00    +0.000 A 
ATOM      4  C   UNL     1      -0.407  10.827  19.336  0.00  0.00    +0.000 A 
ATOM      5  C   UNL     1       0.124  10.233  20.486  0.00  0.00    +0.000 A 
ATOM      6  C   UNL     1       1.009   9.152  20.358  0.00  0.00    +0.000 A 
ENDROOT
BRANCH   1  15
ATOM      7  C   UNL     1       5.273   6.527  15.633  0.00  0.00    +0.000 C 
ATOM      8  N   UNL     1       4.976   5.878  16.874  0.00  0.00    +0.000 N 
ATOM      9  C   UNL     1       5.587   4.707  17.363  0.00  0.00    +0.000 A 
ATOM     10  O   UNL     1       6.461   4.048  16.831  0.00  0.00    +0.000 OA
ATOM     11  N   UNL     1       4.998   4.436  18.603  0.00  0.00    +0.000 N 
ATOM     12  C   UNL     1       4.050   5.407  18.875  0.00  0.00    +0.000 A 
ATOM     13  N   UNL     1       3.289   5.479  19.965  0.00  0.00    +0.000 NA
ATOM     14  C   UNL     1       2.448   6.548  19.966  0.00  0.00    +0.000 A 
ATOM     15  C   UNL     1       2.347   7.538  18.959  0.00  0.00    +0.000 A 
ATOM     16  C   UNL     1       3.183   7.387  17.835  0.00  0.00    +0.000 A 
ATOM     17  C   UNL     1       4.033   6.304  17.818  0.00  0.00    +0.000 A 
ATOM     18  H   UNL     1       5.224   3.666  19.203  0.00  0.00    +0.000 HD
ENDBRANCH   1  15
BRANCH   5  19
ATOM     19  C   UNL     1      -0.277  10.782  21.812  0.00  0.00    +0.000 C 
ATOM     20  O   UNL     1       0.259  10.355  22.831  0.00  0.00    +0.000 OA
ATOM     21  N   UNL     1      -1.291  11.724  21.821  0.00  0.00    +0.000 N 
ATOM     22  H   UNL     1      -1.811  11.900  20.972  0.00  0.00    +0.000 HD
BRANCH  21  23
ATOM     23  C   UNL     1      -1.843  12.219  23.050  0.00  0.00    +0.000 C 
ATOM     24  C   UNL     1      -3.325  12.469  23.184  0.00  0.00    +0.000 C 
ATOM     25  C   UNL     1      -4.009  12.557  24.506  0.00  0.00    +0.000 C 
ATOM     26  O   UNL     1      -3.747  13.878  25.008  0.00  0.00    +0.000 OA
ATOM     27  C   UNL     1      -2.508  14.328  24.434  0.00  0.00    +0.000 C 
ATOM     28  C   UNL     1      -2.388  13.617  23.131  0.00  0.00    +0.000 C 
ENDBRANCH  21  23
ENDBRANCH   5  19
TORSDOF 3
ENDMDL
