MODEL 1
REMARK VINA RESULT:      -8.9      0.000      0.000
REMARK  Name = 
REMARK  6 active torsions:
REMARK  status: ('A' for Active; 'I' for Inactive)
REMARK    1  A    between atoms: C_1  and  C_2
REMARK    2  A    between atoms: C_9  and  S_10
REMARK    3  A    between atoms: S_10  and  N_13
REMARK    4  A    between atoms: N_13  and  C_14
REMARK    5  A    between atoms: N_16  and  C_17
REMARK    6  A    between atoms: C_17  and  C_18
REMARK                            x       y       z     vdW  Elec       q    Type
REMARK                         _______ _______ _______ _____ _____    ______ ____
ROOT
ATOM      1  S   UNL     1       2.013   4.670  20.469  0.00  0.00    +0.000 S 
ATOM      2  O   UNL     1       0.749   4.460  19.799  0.00  0.00    +0.000 OA
ATOM      3  O   UNL     1       2.495   3.748  21.476  0.00  0.00    +0.000 OA
ENDROOT
BRANCH   1  12
ATOM      4  C   UNL     1       5.668   4.388  14.268  0.00  0.00    +0.000 C 
ATOM      5  C   UNL     1       6.744   4.890  15.188  0.00  0.00    +0.000 C 
ATOM      6  O   UNL     1       7.869   5.113  14.727  0.00  0.00    +0.000 OA
ATOM      7  N   UNL     1       6.461   5.103  16.521  0.00  0.00    +0.000 N 
ATOM      8  C   UNL     1       7.501   5.691  17.377  0.00  0.00    +0.000 C 
ATOM      9  C   UNL     1       6.978   5.684  18.813  0.00  0.00    +0.000 C 
ATOM     10  C   UNL     1       5.546   5.303  18.614  0.00  0.00    +0.000 A 
ATOM     11  C   UNL     1       4.565   5.243  19.599  0.00  0.00    +0.000 A 
ATOM     12  C   UNL     1       3.291   4.805  19.228  0.00  0.00    +0.000 A 
ATOM     13  C   UNL     1       3.029   4.407  17.911  0.00  0.00    +0.000 A 
ATOM     14  C   UNL     1       4.030   4.479  16.931  0.00  0.00    +0.000 A 
ATOM     15  C   UNL     1       5.290   4.935  17.285  0.00  0.00    +0.000 A 
ENDBRANCH   1  12
BRANCH   1  16
ATOM     16  N   UNL     1       2.022   6.206  21.190  0.00  0.00    +0.000 N 
ATOM     17  H   UNL     1       2.890   6.299  21.717  0.00  0.00    +0.000 HD
BRANCH  16  18
ATOM     18  C   UNL     1       1.754   7.307  20.384  0.00  0.00    +0.000 A 
ATOM     19  C   UNL     1       1.034   8.431  20.699  0.00  0.00    +0.000 A 
ATOM     20  N   UNL     1       1.154   9.219  19.591  0.00  0.00    +0.000 N 
ATOM     21  N   UNL     1       1.902   8.616  18.646  0.00  0.00    +0.000 NA
ATOM     22  N   UNL     1       2.300   7.451  19.140  0.00  0.00    +0.000 NA
BRANCH  20  23
ATOM     23  C   UNL     1       0.700  10.586  19.412  0.00  0.00    +0.000 C 
BRANCH  23  24
ATOM     24  C   UNL     1      -0.673  10.634  18.794  0.00  0.00    +0.000 A 
ATOM     25  C   UNL     1      -0.975   9.862  17.663  0.00  0.00    +0.000 A 
ATOM     26  C   UNL     1      -2.233   9.945  17.066  0.00  0.00    +0.000 A 
ATOM     27  C   UNL     1      -3.202  10.796  17.593  0.00  0.00    +0.000 A 
ATOM     28  C   UNL     1      -2.918  11.560  18.724  0.00  0.00    +0.000 A 
ATOM     29  C   UNL     1      -1.659  11.482  19.321  0.00  0.00    +0.000 A 
ENDBRANCH  23  24
ENDBRANCH  20  23
ENDBRANCH  16  18
ENDBRANCH   1  16
TORSDOF 5
ENDMDL
MODEL 2
REMARK VINA RESULT:      -8.8      3.598      5.037
REMARK  Name = 
REMARK  6 active torsions:
REMARK  status: ('A' for Active; 'I' for Inactive)
REMARK    1  A    between atoms: C_1  and  C_2
REMARK    2  A    between atoms: C_9  and  S_10
REMARK    3  A    between atoms: S_10  and  N_13
REMARK    4  A    between atoms: N_13  and  C_14
REMARK    5  A    between atoms: N_16  and  C_17
REMARK    6  A    between atoms: C_17  and  C_18
REMARK                            x       y       z     vdW  Elec       q    Type
REMARK                         _______ _______ _______ _____ _____    ______ ____
ROOT
ATOM      1  S   UNL     1       0.484  10.504  19.476  0.00  0.00    +0.000 S 
ATOM      2  O   UNL     1      -0.587  10.066  20.344  0.00  0.00    +0.000 OA
ATOM      3  O   UNL     1       1.365  11.589  19.855  0.00  0.00    +0.000 OA
ENDROOT
BRANCH   1  12
ATOM      4  C   UNL     1       5.007   5.929  16.237  0.00  0.00    +0.000 C 
ATOM      5  C   UNL     1       4.646   5.128  17.455  0.00  0.00    +0.000 C 
ATOM      6  O   UNL     1       5.146   4.007  17.604  0.00  0.00    +0.000 OA
ATOM      7  N   UNL     1       3.776   5.653  18.387  0.00  0.00    +0.000 N 
ATOM      8  C   UNL     1       3.519   4.893  19.619  0.00  0.00    +0.000 C 
ATOM      9  C   UNL     1       2.427   5.625  20.396  0.00  0.00    +0.000 C 
ATOM     10  C   UNL     1       2.320   6.909  19.637  0.00  0.00    +0.000 A 
ATOM     11  C   UNL     1       1.530   8.004  19.975  0.00  0.00    +0.000 A 
ATOM     12  C   UNL     1       1.517   9.096  19.104  0.00  0.00    +0.000 A 
ATOM     13  C   UNL     1       2.250   9.066  17.911  0.00  0.00    +0.000 A 
ATOM     14  C   UNL     1       3.044   7.954  17.589  0.00  0.00    +0.000 A 
ATOM     15  C   UNL     1       3.081   6.876  18.460  0.00  0.00    +0.000 A 
ENDBRANCH   1  12
BRANCH   1  16
ATOM     16  N   UNL     1      -0.153  10.918  17.958  0.00  0.00    +0.000 N 
ATOM     17  H   UNL     1       0.389  10.427  17.248  0.00  0.00    +0.000 HD
BRANCH  16  18
ATOM     18  C   UNL     1      -1.526  10.802  17.774  0.00  0.00    +0.000 A 
ATOM     19  C   UNL     1      -2.491  11.753  17.987  0.00  0.00    +0.000 A 
ATOM     20  N   UNL     1      -3.643  11.150  17.571  0.00  0.00    +0.000 N 
ATOM     21  N   UNL     1      -3.403   9.900  17.129  0.00  0.00    +0.000 NA
ATOM     22  N   UNL     1      -2.097   9.691  17.223  0.00  0.00    +0.000 NA
BRANCH  20  23
ATOM     23  C   UNL     1      -4.965  11.736  17.448  0.00  0.00    +0.000 C 
BRANCH  23  24
ATOM     24  C   UNL     1      -5.771  11.548  18.707  0.00  0.00    +0.000 A 
ATOM     25  C   UNL     1      -6.602  10.429  18.862  0.00  0.00    +0.000 A 
ATOM     26  C   UNL     1      -7.383  10.283  20.009  0.00  0.00    +0.000 A 
ATOM     27  C   UNL     1      -7.340  11.248  21.012  0.00  0.00    +0.000 A 
ATOM     28  C   UNL     1      -6.509  12.359  20.874  0.00  0.00    +0.000 A 
ATOM     29  C   UNL     1      -5.730  12.511  19.726  0.00  0.00    +0.000 A 
ENDBRANCH  23  24
ENDBRANCH  20  23
ENDBRANCH  16  18
ENDBRANCH   1  16
TORSDOF 5
ENDMDL
MODEL 3
REMARK VINA RESULT:      -8.8      0.804      1.111
REMARK  Name = 
REMARK  6 active torsions:
REMARK  status: ('A' for Active; 'I' for Inactive)
REMARK    1  A    between atoms: C_1  and  C_2
REMARK    2  A    between atoms: C_9  and  S_10
REMARK    3  A    between atoms: S_10  and  N_13
REMARK    4  A    between atoms: N_13  and  C_14
REMARK    5  A    between atoms: N_16  and  C_17
REMARK    6  A    between atoms: C_17  and  C_18
REMARK                            x       y       z     vdW  Elec       q    Type
REMARK                         _______ _______ _______ _____ _____    ______ ____
ROOT
ATOM      1  S   UNL     1       2.178   4.228  20.276  0.00  0.00    +0.000 S 
ATOM      2  O   UNL     1       0.883   4.194  19.633  0.00  0.00    +0.000 OA
ATOM      3  O   UNL     1       2.636   3.136  21.109  0.00  0.00    +0.000 OA
ENDROOT
BRANCH   1  12
ATOM      4  C   UNL     1       5.805   4.224  14.052  0.00  0.00    +0.000 C 
ATOM      5  C   UNL     1       6.814   4.883  14.948  0.00  0.00    +0.000 C 
ATOM      6  O   UNL     1       7.900   5.231  14.470  0.00  0.00    +0.000 OA
ATOM      7  N   UNL     1       6.514   5.098  16.276  0.00  0.00    +0.000 N 
ATOM      8  C   UNL     1       7.478   5.835  17.106  0.00  0.00    +0.000 C 
ATOM      9  C   UNL     1       6.968   5.805  18.546  0.00  0.00    +0.000 C 
ATOM     10  C   UNL     1       5.593   5.243  18.371  0.00  0.00    +0.000 A 
ATOM     11  C   UNL     1       4.633   5.090  19.367  0.00  0.00    +0.000 A 
ATOM     12  C   UNL     1       3.422   4.486  19.020  0.00  0.00    +0.000 A 
ATOM     13  C   UNL     1       3.204   4.020  17.718  0.00  0.00    +0.000 A 
ATOM     14  C   UNL     1       4.183   4.187  16.727  0.00  0.00    +0.000 A 
ATOM     15  C   UNL     1       5.378   4.807  17.056  0.00  0.00    +0.000 A 
ENDBRANCH   1  12
BRANCH   1  16
ATOM     16  N   UNL     1       2.301   5.631  21.224  0.00  0.00    +0.000 N 
ATOM     17  H   UNL     1       3.236   5.651  21.631  0.00  0.00    +0.000 HD
BRANCH  16  18
ATOM     18  C   UNL     1       1.932   6.841  20.648  0.00  0.00    +0.000 A 
ATOM     19  C   UNL     1       2.274   7.331  19.413  0.00  0.00    +0.000 A 
ATOM     20  N   UNL     1       1.580   8.502  19.320  0.00  0.00    +0.000 N 
ATOM     21  N   UNL     1       0.853   8.724  20.433  0.00  0.00    +0.000 NA
ATOM     22  N   UNL     1       1.042   7.691  21.242  0.00  0.00    +0.000 NA
BRANCH  20  23
ATOM     23  C   UNL     1       1.461   9.383  18.173  0.00  0.00    +0.000 C 
BRANCH  23  24
ATOM     24  C   UNL     1       0.195  10.197  18.232  0.00  0.00    +0.000 A 
ATOM     25  C   UNL     1      -1.002   9.694  17.703  0.00  0.00    +0.000 A 
ATOM     26  C   UNL     1      -2.162  10.470  17.716  0.00  0.00    +0.000 A 
ATOM     27  C   UNL     1      -2.139  11.752  18.261  0.00  0.00    +0.000 A 
ATOM     28  C   UNL     1      -0.957  12.258  18.801  0.00  0.00    +0.000 A 
ATOM     29  C   UNL     1       0.205  11.486  18.785  0.00  0.00    +0.000 A 
ENDBRANCH  23  24
ENDBRANCH  20  23
ENDBRANCH  16  18
ENDBRANCH   1  16
TORSDOF 5
ENDMDL
MODEL 4
REMARK VINA RESULT:      -8.7      2.682      8.877
REMARK  Name = 
REMARK  6 active torsions:
REMARK  status: ('A' for Active; 'I' for Inactive)
REMARK    1  A    between atoms: C_1  and  C_2
REMARK    2  A    between atoms: C_9  and  S_10
REMARK    3  A    between atoms: S_10  and  N_13
REMARK    4  A    between atoms: N_13  and  C_14
REMARK    5  A    between atoms: N_16  and  C_17
REMARK    6  A    between atoms: C_17  and  C_18
REMARK                            x       y       z     vdW  Elec       q    Type
REMARK                         _______ _______ _______ _____ _____    ______ ____
ROOT
ATOM      1  S   UNL     1       3.940   5.110  18.409  0.00  0.00    +0.000 S 
ATOM      2  O   UNL     1       4.479   4.389  19.540  0.00  0.00    +0.000 OA
ATOM      3  O   UNL     1       3.164   4.438  17.387  0.00  0.00    +0.000 OA
ENDROOT
BRANCH   1  12
ATOM      4  C   UNL     1      -0.320   9.225  22.508  0.00  0.00    +0.000 C 
ATOM      5  C   UNL     1      -0.208  10.092  21.287  0.00  0.00    +0.000 C 
ATOM      6  O   UNL     1      -0.799  11.178  21.268  0.00  0.00    +0.000 OA
ATOM      7  N   UNL     1       0.552   9.672  20.216  0.00  0.00    +0.000 N 
ATOM      8  C   UNL     1       0.728  10.583  19.076  0.00  0.00    +0.000 C 
ATOM      9  C   UNL     1       1.484   9.823  17.987  0.00  0.00    +0.000 C 
ATOM     10  C   UNL     1       1.899   8.583  18.713  0.00  0.00    +0.000 A 
ATOM     11  C   UNL     1       2.711   7.569  18.215  0.00  0.00    +0.000 A 
ATOM     12  C   UNL     1       2.940   6.454  19.026  0.00  0.00    +0.000 A 
ATOM     13  C   UNL     1       2.336   6.354  20.285  0.00  0.00    +0.000 A 
ATOM     14  C   UNL     1       1.523   7.388  20.772  0.00  0.00    +0.000 A 
ATOM     15  C   UNL     1       1.311   8.508  19.984  0.00  0.00    +0.000 A 
ENDBRANCH   1  12
BRANCH   1  16
ATOM     16  N   UNL     1       5.196   5.913  17.599  0.00  0.00    +0.000 N 
ATOM     17  H   UNL     1       5.902   6.165  18.291  0.00  0.00    +0.000 HD
BRANCH  16  18
ATOM     18  C   UNL     1       5.733   5.310  16.467  0.00  0.00    +0.000 A 
ATOM     19  C   UNL     1       5.780   5.803  15.188  0.00  0.00    +0.000 A 
ATOM     20  N   UNL     1       6.480   4.857  14.497  0.00  0.00    +0.000 N 
ATOM     21  N   UNL     1       6.843   3.839  15.302  0.00  0.00    +0.000 NA
ATOM     22  N   UNL     1       6.412   4.126  16.522  0.00  0.00    +0.000 NA
BRANCH  20  23
ATOM     23  C   UNL     1       6.945   4.914  13.123  0.00  0.00    +0.000 C 
BRANCH  23  24
ATOM     24  C   UNL     1       6.569   3.669  12.362  0.00  0.00    +0.000 A 
ATOM     25  C   UNL     1       7.559   2.811  11.862  0.00  0.00    +0.000 A 
ATOM     26  C   UNL     1       7.207   1.685  11.117  0.00  0.00    +0.000 A 
ATOM     27  C   UNL     1       5.867   1.403  10.867  0.00  0.00    +0.000 A 
ATOM     28  C   UNL     1       4.873   2.242  11.369  0.00  0.00    +0.000 A 
ATOM     29  C   UNL     1       5.222   3.372  12.111  0.00  0.00    +0.000 A 
ENDBRANCH  23  24
ENDBRANCH  20  23
ENDBRANCH  16  18
ENDBRANCH   1  16
TORSDOF 5
ENDMDL
MODEL 5
REMARK VINA RESULT:      -8.7      2.662      8.793
REMARK  Name = 
REMARK  6 active torsions:
REMARK  status: ('A' for Active; 'I' for Inactive)
REMARK    1  A    between atoms: C_1  and  C_2
REMARK    2  A    between atoms: C_9  and  S_10
REMARK    3  A    between atoms: S_10  and  N_13
REMARK    4  A    between atoms: N_13  and  C_14
REMARK    5  A    between atoms: N_16  and  C_17
REMARK    6  A    between atoms: C_17  and  C_18
REMARK                            x       y       z     vdW  Elec       q    Type
REMARK                         _______ _______ _______ _____ _____    ______ ____
ROOT
ATOM      1  S   UNL     1       3.182   5.541  18.646  0.00  0.00    +0.000 S 
ATOM      2  O   UNL     1       3.668   4.726  19.737  0.00  0.00    +0.000 OA
ATOM      3  O   UNL     1       2.319   4.993  17.620  0.00  0.00    +0.000 OA
ENDROOT
BRANCH   1  12
ATOM      4  C   UNL     1      -0.437   9.954  23.042  0.00  0.00    +0.000 C 
ATOM      5  C   UNL     1      -0.335  10.820  21.820  0.00  0.00    +0.000 C 
ATOM      6  O   UNL     1      -0.833  11.952  21.846  0.00  0.00    +0.000 OA
ATOM      7  N   UNL     1       0.315  10.350  20.699  0.00  0.00    +0.000 N 
ATOM      8  C   UNL     1       0.490  11.255  19.553  0.00  0.00    +0.000 C 
ATOM      9  C   UNL     1       1.105  10.446  18.412  0.00  0.00    +0.000 C 
ATOM     10  C   UNL     1       1.463   9.168  19.103  0.00  0.00    +0.000 A 
ATOM     11  C   UNL     1       2.153   8.096  18.546  0.00  0.00    +0.000 A 
ATOM     12  C   UNL     1       2.341   6.958  19.335  0.00  0.00    +0.000 A 
ATOM     13  C   UNL     1       1.816   6.895  20.632  0.00  0.00    +0.000 A 
ATOM     14  C   UNL     1       1.126   7.988  21.177  0.00  0.00    +0.000 A 
ATOM     15  C   UNL     1       0.956   9.130  20.410  0.00  0.00    +0.000 A 
ENDBRANCH   1  12
BRANCH   1  16
ATOM     16  N   UNL     1       4.498   6.241  17.834  0.00  0.00    +0.000 N 
ATOM     17  H   UNL     1       5.153   6.582  18.537  0.00  0.00    +0.000 HD
BRANCH  16  18
ATOM     18  C   UNL     1       5.112   5.501  16.830  0.00  0.00    +0.000 A 
ATOM     19  C   UNL     1       5.613   5.949  15.634  0.00  0.00    +0.000 A 
ATOM     20  N   UNL     1       6.174   4.838  15.075  0.00  0.00    +0.000 N 
ATOM     21  N   UNL     1       6.027   3.765  15.878  0.00  0.00    +0.000 NA
ATOM     22  N   UNL     1       5.400   4.173  16.973  0.00  0.00    +0.000 NA
BRANCH  20  23
ATOM     23  C   UNL     1       6.965   4.748  13.862  0.00  0.00    +0.000 C 
BRANCH  23  24
ATOM     24  C   UNL     1       6.316   3.845  12.846  0.00  0.00    +0.000 A 
ATOM     25  C   UNL     1       4.944   3.944  12.576  0.00  0.00    +0.000 A 
ATOM     26  C   UNL     1       4.337   3.074  11.669  0.00  0.00    +0.000 A 
ATOM     27  C   UNL     1       5.094   2.100  11.022  0.00  0.00    +0.000 A 
ATOM     28  C   UNL     1       6.461   2.000  11.273  0.00  0.00    +0.000 A 
ATOM     29  C   UNL     1       7.070   2.866  12.182  0.00  0.00    +0.000 A 
ENDBRANCH  23  24
ENDBRANCH  20  23
ENDBRANCH  16  18
ENDBRANCH   1  16
TORSDOF 5
ENDMDL
MODEL 6
REMARK VINA RESULT:      -8.7      0.662      1.235
REMARK  Name = 
REMARK  6 active torsions:
REMARK  status: ('A' for Active; 'I' for Inactive)
REMARK    1  A    between atoms: C_1  and  C_2
REMARK    2  A    between atoms: C_9  and  S_10
REMARK    3  A    between atoms: S_10  and  N_13
REMARK    4  A    between atoms: N_13  and  C_14
REMARK    5  A    between atoms: N_16  and  C_17
REMARK    6  A    between atoms: C_17  and  C_18
REMARK                            x       y       z     vdW  Elec       q    Type
REMARK                         _______ _______ _______ _____ _____    ______ ____
ROOT
ATOM      1  S   UNL     1       1.956   4.836  20.518  0.00  0.00    +0.000 S 
ATOM      2  O   UNL     1       0.666   4.810  19.867  0.00  0.00    +0.000 OA
ATOM      3  O   UNL     1       2.356   3.797  21.443  0.00  0.00    +0.000 OA
ENDROOT
BRANCH   1  12
ATOM      4  C   UNL     1       5.538   4.358  14.287  0.00  0.00    +0.000 C 
ATOM      5  C   UNL     1       6.625   4.886  15.179  0.00  0.00    +0.000 C 
ATOM      6  O   UNL     1       7.745   5.092  14.698  0.00  0.00    +0.000 OA
ATOM      7  N   UNL     1       6.358   5.140  16.507  0.00  0.00    +0.000 N 
ATOM      8  C   UNL     1       7.410   5.750  17.334  0.00  0.00    +0.000 C 
ATOM      9  C   UNL     1       6.904   5.788  18.775  0.00  0.00    +0.000 C 
ATOM     10  C   UNL     1       5.468   5.405  18.604  0.00  0.00    +0.000 A 
ATOM     11  C   UNL     1       4.499   5.377  19.602  0.00  0.00    +0.000 A 
ATOM     12  C   UNL     1       3.220   4.931  19.260  0.00  0.00    +0.000 A 
ATOM     13  C   UNL     1       2.941   4.494  17.959  0.00  0.00    +0.000 A 
ATOM     14  C   UNL     1       3.932   4.533  16.965  0.00  0.00    +0.000 A 
ATOM     15  C   UNL     1       5.197   4.997  17.291  0.00  0.00    +0.000 A 
ENDBRANCH   1  12
BRANCH   1  16
ATOM     16  N   UNL     1       2.139   6.305  21.349  0.00  0.00    +0.000 N 
ATOM     17  H   UNL     1       3.126   6.409  21.587  0.00  0.00    +0.000 HD
BRANCH  16  18
ATOM     18  C   UNL     1       1.593   7.449  20.778  0.00  0.00    +0.000 A 
ATOM     19  C   UNL     1       1.932   8.046  19.591  0.00  0.00    +0.000 A 
ATOM     20  N   UNL     1       1.039   9.071  19.472  0.00  0.00    +0.000 N 
ATOM     21  N   UNL     1       0.199   9.107  20.526  0.00  0.00    +0.000 NA
ATOM     22  N   UNL     1       0.516   8.092  21.319  0.00  0.00    +0.000 NA
BRANCH  20  23
ATOM     23  C   UNL     1       0.844   9.963  18.344  0.00  0.00    +0.000 C 
BRANCH  23  24
ATOM     24  C   UNL     1      -0.593  10.401  18.228  0.00  0.00    +0.000 A 
ATOM     25  C   UNL     1      -1.074  11.480  18.982  0.00  0.00    +0.000 A 
ATOM     26  C   UNL     1      -2.417  11.851  18.908  0.00  0.00    +0.000 A 
ATOM     27  C   UNL     1      -3.290  11.153  18.078  0.00  0.00    +0.000 A 
ATOM     28  C   UNL     1      -2.821  10.086  17.314  0.00  0.00    +0.000 A 
ATOM     29  C   UNL     1      -1.479   9.709  17.389  0.00  0.00    +0.000 A 
ENDBRANCH  23  24
ENDBRANCH  20  23
ENDBRANCH  16  18
ENDBRANCH   1  16
TORSDOF 5
ENDMDL
MODEL 7
REMARK VINA RESULT:      -8.6      2.652      8.397
REMARK  Name = 
REMARK  6 active torsions:
REMARK  status: ('A' for Active; 'I' for Inactive)
REMARK    1  A    between atoms: C_1  and  C_2
REMARK    2  A    between atoms: C_9  and  S_10
REMARK    3  A    between atoms: S_10  and  N_13
REMARK    4  A    between atoms: N_13  and  C_14
REMARK    5  A    between atoms: N_16  and  C_17
REMARK    6  A    between atoms: C_17  and  C_18
REMARK                            x       y       z     vdW  Elec       q    Type
REMARK                         _______ _______ _______ _____ _____    ______ ____
ROOT
ATOM      1  S   UNL     1       4.399   3.511  18.712  0.00  0.00    +0.000 S 
ATOM      2  O   UNL     1       4.379   2.705  19.912  0.00  0.00    +0.000 OA
ATOM      3  O   UNL     1       3.905   3.000  17.451  0.00  0.00    +0.000 OA
ENDROOT
BRANCH   1  12
ATOM      4  C   UNL     1       0.267   8.576  21.737  0.00  0.00    +0.000 C 
ATOM      5  C   UNL     1       0.638   9.266  20.456  0.00  0.00    +0.000 C 
ATOM      6  O   UNL     1       0.204  10.404  20.242  0.00  0.00    +0.000 OA
ATOM      7  N   UNL     1       1.459   8.631  19.549  0.00  0.00    +0.000 N 
ATOM      8  C   UNL     1       1.890   9.367  18.351  0.00  0.00    +0.000 C 
ATOM      9  C   UNL     1       2.662   8.394  17.462  0.00  0.00    +0.000 C 
ATOM     10  C   UNL     1       2.818   7.212  18.366  0.00  0.00    +0.000 A 
ATOM     11  C   UNL     1       3.542   6.056  18.092  0.00  0.00    +0.000 A 
ATOM     12  C   UNL     1       3.521   5.031  19.041  0.00  0.00    +0.000 A 
ATOM     13  C   UNL     1       2.763   5.158  20.212  0.00  0.00    +0.000 A 
ATOM     14  C   UNL     1       2.043   6.334  20.471  0.00  0.00    +0.000 A 
ATOM     15  C   UNL     1       2.078   7.365  19.546  0.00  0.00    +0.000 A 
ENDBRANCH   1  12
BRANCH   1  16
ATOM     16  N   UNL     1       5.984   4.046  18.418  0.00  0.00    +0.000 N 
ATOM     17  H   UNL     1       6.619   3.438  18.934  0.00  0.00    +0.000 HD
BRANCH  16  18
ATOM     18  C   UNL     1       6.370   4.243  17.097  0.00  0.00    +0.000 A 
ATOM     19  C   UNL     1       5.569   4.404  15.996  0.00  0.00    +0.000 A 
ATOM     20  N   UNL     1       6.449   4.646  14.982  0.00  0.00    +0.000 N 
ATOM     21  N   UNL     1       7.720   4.633  15.430  0.00  0.00    +0.000 NA
ATOM     22  N   UNL     1       7.677   4.416  16.737  0.00  0.00    +0.000 NA
BRANCH  20  23
ATOM     23  C   UNL     1       6.154   5.018  13.610  0.00  0.00    +0.000 C 
BRANCH  23  24
ATOM     24  C   UNL     1       6.195   3.823  12.694  0.00  0.00    +0.000 A 
ATOM     25  C   UNL     1       7.417   3.336  12.209  0.00  0.00    +0.000 A 
ATOM     26  C   UNL     1       7.447   2.259  11.322  0.00  0.00    +0.000 A 
ATOM     27  C   UNL     1       6.260   1.655  10.915  0.00  0.00    +0.000 A 
ATOM     28  C   UNL     1       5.039   2.123  11.399  0.00  0.00    +0.000 A 
ATOM     29  C   UNL     1       5.005   3.203  12.283  0.00  0.00    +0.000 A 
ENDBRANCH  23  24
ENDBRANCH  20  23
ENDBRANCH  16  18
ENDBRANCH   1  16
TORSDOF 5
ENDMDL
MODEL 8
REMARK VINA RESULT:      -8.6      1.361      1.873
REMARK  Name = 
REMARK  6 active torsions:
REMARK  status: ('A' for Active; 'I' for Inactive)
REMARK    1  A    between atoms: C_1  and  C_2
REMARK    2  A    between atoms: C_9  and  S_10
REMARK    3  A    between atoms: S_10  and  N_13
REMARK    4  A    between atoms: N_13  and  C_14
REMARK    5  A    between atoms: N_16  and  C_17
REMARK    6  A    between atoms: C_17  and  C_18
REMARK                            x       y       z     vdW  Elec       q    Type
REMARK                         _______ _______ _______ _____ _____    ______ ____
ROOT
ATOM      1  S   UNL     1       2.388   3.112  20.031  0.00  0.00    +0.000 S 
ATOM      2  O   UNL     1       1.841   1.850  19.584  0.00  0.00    +0.000 OA
ATOM      3  O   UNL     1       2.994   3.250  21.339  0.00  0.00    +0.000 OA
ENDROOT
BRANCH   1  12
ATOM      4  C   UNL     1       6.081   4.138  13.933  0.00  0.00    +0.000 C 
ATOM      5  C   UNL     1       6.952   4.886  14.900  0.00  0.00    +0.000 C 
ATOM      6  O   UNL     1       7.975   5.439  14.480  0.00  0.00    +0.000 OA
ATOM      7  N   UNL     1       6.597   4.954  16.231  0.00  0.00    +0.000 N 
ATOM      8  C   UNL     1       7.411   5.777  17.137  0.00  0.00    +0.000 C 
ATOM      9  C   UNL     1       6.886   5.563  18.556  0.00  0.00    +0.000 C 
ATOM     10  C   UNL     1       5.625   4.799  18.303  0.00  0.00    +0.000 A 
ATOM     11  C   UNL     1       4.685   4.422  19.256  0.00  0.00    +0.000 A 
ATOM     12  C   UNL     1       3.595   3.656  18.834  0.00  0.00    +0.000 A 
ATOM     13  C   UNL     1       3.481   3.255  17.497  0.00  0.00    +0.000 A 
ATOM     14  C   UNL     1       4.438   3.649  16.549  0.00  0.00    +0.000 A 
ATOM     15  C   UNL     1       5.509   4.429  16.955  0.00  0.00    +0.000 A 
ENDBRANCH   1  12
BRANCH   1  16
ATOM     16  N   UNL     1       1.191   4.312  19.934  0.00  0.00    +0.000 N 
ATOM     17  H   UNL     1       0.588   4.217  20.751  0.00  0.00    +0.000 HD
BRANCH  16  18
ATOM     18  C   UNL     1       1.598   5.621  19.705  0.00  0.00    +0.000 A 
ATOM     19  C   UNL     1       1.809   6.244  18.502  0.00  0.00    +0.000 A 
ATOM     20  N   UNL     1       2.109   7.530  18.845  0.00  0.00    +0.000 N 
ATOM     21  N   UNL     1       2.087   7.692  20.183  0.00  0.00    +0.000 NA
ATOM     22  N   UNL     1       1.743   6.528  20.717  0.00  0.00    +0.000 NA
BRANCH  20  23
ATOM     23  C   UNL     1       2.299   8.670  17.966  0.00  0.00    +0.000 C 
BRANCH  23  24
ATOM     24  C   UNL     1       1.252   9.727  18.202  0.00  0.00    +0.000 A 
ATOM     25  C   UNL     1      -0.099   9.466  17.932  0.00  0.00    +0.000 A 
ATOM     26  C   UNL     1      -1.060  10.464  18.106  0.00  0.00    +0.000 A 
ATOM     27  C   UNL     1      -0.683  11.727  18.553  0.00  0.00    +0.000 A 
ATOM     28  C   UNL     1       0.656  11.995  18.835  0.00  0.00    +0.000 A 
ATOM     29  C   UNL     1       1.620  11.001  18.659  0.00  0.00    +0.000 A 
ENDBRANCH  23  24
ENDBRANCH  20  23
ENDBRANCH  16  18
ENDBRANCH   1  16
TORSDOF 5
ENDMDL
MODEL 9
REMARK VINA RESULT:      -8.5      2.572      7.849
REMARK  Name = 
REMARK  6 active torsions:
REMARK  status: ('A' for Active; 'I' for Inactive)
REMARK    1  A    between atoms: C_1  and  C_2
REMARK    2  A    between atoms: C_9  and  S_10
REMARK    3  A    between atoms: S_10  and  N_13
REMARK    4  A    between atoms: N_13  and  C_14
REMARK    5  A    between atoms: N_16  and  C_17
REMARK    6  A    between atoms: C_17  and  C_18
REMARK                            x       y       z     vdW  Elec       q    Type
REMARK                         _______ _______ _______ _____ _____    ______ ____
ROOT
ATOM      1  S   UNL     1       2.067   4.976  20.068  0.00  0.00    +0.000 S 
ATOM      2  O   UNL     1       3.440   4.798  20.485  0.00  0.00    +0.000 OA
ATOM      3  O   UNL     1       0.981   4.287  20.734  0.00  0.00    +0.000 OA
ENDROOT
BRANCH   1  12
ATOM      4  C   UNL     1      -0.328  11.465  22.076  0.00  0.00    +0.000 C 
ATOM      5  C   UNL     1       0.218  11.792  20.716  0.00  0.00    +0.000 C 
ATOM      6  O   UNL     1       0.141  12.956  20.305  0.00  0.00    +0.000 OA
ATOM      7  N   UNL     1       0.801  10.801  19.955  0.00  0.00    +0.000 N 
ATOM      8  C   UNL     1       1.417  11.168  18.672  0.00  0.00    +0.000 C 
ATOM      9  C   UNL     1       1.853   9.877  17.981  0.00  0.00    +0.000 C 
ATOM     10  C   UNL     1       1.660   8.869  19.069  0.00  0.00    +0.000 A 
ATOM     11  C   UNL     1       2.002   7.521  19.013  0.00  0.00    +0.000 A 
ATOM     12  C   UNL     1       1.687   6.720  20.114  0.00  0.00    +0.000 A 
ATOM     13  C   UNL     1       1.015   7.258  21.219  0.00  0.00    +0.000 A 
ATOM     14  C   UNL     1       0.682   8.621  21.257  0.00  0.00    +0.000 A 
ATOM     15  C   UNL     1       1.013   9.427  20.180  0.00  0.00    +0.000 A 
ENDBRANCH   1  12
BRANCH   1  16
ATOM     16  N   UNL     1       1.925   4.601  18.418  0.00  0.00    +0.000 N 
ATOM     17  H   UNL     1       1.391   5.347  17.974  0.00  0.00    +0.000 HD
BRANCH  16  18
ATOM     18  C   UNL     1       3.083   4.271  17.723  0.00  0.00    +0.000 A 
ATOM     19  C   UNL     1       4.034   5.117  17.213  0.00  0.00    +0.000 A 
ATOM     20  N   UNL     1       4.986   4.277  16.711  0.00  0.00    +0.000 N 
ATOM     21  N   UNL     1       4.641   2.988  16.898  0.00  0.00    +0.000 NA
ATOM     22  N   UNL     1       3.485   2.977  17.547  0.00  0.00    +0.000 NA
BRANCH  20  23
ATOM     23  C   UNL     1       6.285   4.622  16.165  0.00  0.00    +0.000 C 
BRANCH  23  24
ATOM     24  C   UNL     1       7.013   5.601  17.049  0.00  0.00    +0.000 A 
ATOM     25  C   UNL     1       7.548   5.191  18.279  0.00  0.00    +0.000 A 
ATOM     26  C   UNL     1       8.178   6.111  19.118  0.00  0.00    +0.000 A 
ATOM     27  C   UNL     1       8.285   7.446  18.735  0.00  0.00    +0.000 A 
ATOM     28  C   UNL     1       7.768   7.863  17.509  0.00  0.00    +0.000 A 
ATOM     29  C   UNL     1       7.133   6.946  16.671  0.00  0.00    +0.000 A 
ENDBRANCH  23  24
ENDBRANCH  20  23
ENDBRANCH  16  18
ENDBRANCH   1  16
TORSDOF 5
ENDMDL
