MODEL 1
REMARK VINA RESULT:      -8.8      0.000      0.000
REMARK  Name = 
REMARK  6 active torsions:
REMARK  status: ('A' for Active; 'I' for Inactive)
REMARK    1  A    between atoms: C_1  and  N_2
REMARK    2  A    between atoms: C_6  and  C_7
REMARK    3  A    between atoms: C_11  and  N_12
REMARK    4  A    between atoms: N_12  and  S_13
REMARK    5  A    between atoms: S_13  and  C_16
REMARK    6  A    between atoms: C_20  and  C_21
REMARK                            x       y       z     vdW  Elec       q    Type
REMARK                         _______ _______ _______ _____ _____    ______ ____
ROOT
ATOM      1  N   UNL     1       2.757   5.673  20.544  0.00  0.00    +0.000 N 
ATOM      2  H   UNL     1       3.682   5.714  20.970  0.00  0.00    +0.000 HD
ENDROOT
BRANCH   1   7
ATOM      3  C   UNL     1       1.049   8.991  20.290  0.00  0.00    +0.000 A 
ATOM      4  C   UNL     1       1.386   9.319  18.970  0.00  0.00    +0.000 A 
ATOM      5  C   UNL     1       2.114   8.438  18.171  0.00  0.00    +0.000 A 
ATOM      6  C   UNL     1       2.556   7.230  18.694  0.00  0.00    +0.000 A 
ATOM      7  C   UNL     1       2.249   6.892  20.014  0.00  0.00    +0.000 A 
ATOM      8  C   UNL     1       1.499   7.764  20.802  0.00  0.00    +0.000 A 
BRANCH   3  14
ATOM      9  C   UNL     1      -1.277  11.068  19.560  0.00  0.00    +0.000 C 
ATOM     10  N   UNL     1      -0.639  10.841  20.829  0.00  0.00    +0.000 N 
ATOM     11  C   UNL     1      -0.971  11.492  21.980  0.00  0.00    +0.000 A 
ATOM     12  N   UNL     1      -0.323  10.963  22.988  0.00  0.00    +0.000 NA
ATOM     13  N   UNL     1       0.469   9.962  22.485  0.00  0.00    +0.000 NA
ATOM     14  C   UNL     1       0.316   9.908  21.170  0.00  0.00    +0.000 A 
ENDBRANCH   3  14
ENDBRANCH   1   7
BRANCH   1  15
ATOM     15  S   UNL     1       2.549   4.248  19.649  0.00  0.00    +0.000 S 
ATOM     16  O   UNL     1       2.828   3.156  20.559  0.00  0.00    +0.000 OA
ATOM     17  O   UNL     1       1.308   4.309  18.907  0.00  0.00    +0.000 OA
BRANCH  15  18
ATOM     18  C   UNL     1       3.901   4.303  18.488  0.00  0.00    +0.000 A 
ATOM     19  C   UNL     1       3.709   3.901  17.165  0.00  0.00    +0.000 A 
ATOM     20  C   UNL     1       4.776   3.969  16.268  0.00  0.00    +0.000 A 
ATOM     21  C   UNL     1       6.026   4.430  16.692  0.00  0.00    +0.000 A 
ATOM     22  C   UNL     1       6.232   4.817  18.025  0.00  0.00    +0.000 A 
ATOM     23  C   UNL     1       5.161   4.729  18.929  0.00  0.00    +0.000 A 
BRANCH  22  24
ATOM     24  C   UNL     1       7.567   5.347  18.492  0.00  0.00    +0.000 C 
ATOM     25  F   UNL     1       8.592   4.462  18.347  0.00  0.00    +0.000 F 
ATOM     26  F   UNL     1       7.939   6.465  17.809  0.00  0.00    +0.000 F 
ATOM     27  F   UNL     1       7.559   5.698  19.807  0.00  0.00    +0.000 F 
ENDBRANCH  22  24
ENDBRANCH  15  18
ENDBRANCH   1  15
TORSDOF 5
ENDMDL
MODEL 2
REMARK VINA RESULT:      -8.7      3.403      4.741
REMARK  Name = 
REMARK  6 active torsions:
REMARK  status: ('A' for Active; 'I' for Inactive)
REMARK    1  A    between atoms: C_1  and  N_2
REMARK    2  A    between atoms: C_6  and  C_7
REMARK    3  A    between atoms: C_11  and  N_12
REMARK    4  A    between atoms: N_12  and  S_13
REMARK    5  A    between atoms: S_13  and  C_16
REMARK    6  A    between atoms: C_20  and  C_21
REMARK                            x       y       z     vdW  Elec       q    Type
REMARK                         _______ _______ _______ _____ _____    ______ ____
ROOT
ATOM      1  N   UNL     1       6.111   3.836  18.925  0.00  0.00    +0.000 N 
ATOM      2  H   UNL     1       6.386   3.599  19.877  0.00  0.00    +0.000 HD
ENDROOT
BRANCH   1   7
ATOM      3  C   UNL     1       2.750   5.473  19.077  0.00  0.00    +0.000 A 
ATOM      4  C   UNL     1       2.059   4.656  18.172  0.00  0.00    +0.000 A 
ATOM      5  C   UNL     1       2.678   3.560  17.570  0.00  0.00    +0.000 A 
ATOM      6  C   UNL     1       4.014   3.289  17.831  0.00  0.00    +0.000 A 
ATOM      7  C   UNL     1       4.728   4.102  18.714  0.00  0.00    +0.000 A 
ATOM      8  C   UNL     1       4.100   5.182  19.334  0.00  0.00    +0.000 A 
BRANCH   3  14
ATOM      9  C   UNL     1       2.449   8.443  17.918  0.00  0.00    +0.000 C 
ATOM     10  N   UNL     1       2.077   7.941  19.214  0.00  0.00    +0.000 N 
ATOM     11  C   UNL     1       1.478   8.690  20.183  0.00  0.00    +0.000 A 
ATOM     12  N   UNL     1       1.128   7.920  21.182  0.00  0.00    +0.000 NA
ATOM     13  N   UNL     1       1.528   6.643  20.874  0.00  0.00    +0.000 NA
ATOM     14  C   UNL     1       2.141   6.653  19.701  0.00  0.00    +0.000 A 
ENDBRANCH   3  14
ENDBRANCH   1   7
BRANCH   1  15
ATOM     15  S   UNL     1       7.254   4.842  18.179  0.00  0.00    +0.000 S 
ATOM     16  O   UNL     1       7.329   6.039  18.993  0.00  0.00    +0.000 OA
ATOM     17  O   UNL     1       8.440   4.082  17.851  0.00  0.00    +0.000 OA
BRANCH  15  18
ATOM     18  C   UNL     1       6.446   5.309  16.661  0.00  0.00    +0.000 A 
ATOM     19  C   UNL     1       5.753   6.518  16.575  0.00  0.00    +0.000 A 
ATOM     20  C   UNL     1       5.142   6.872  15.371  0.00  0.00    +0.000 A 
ATOM     21  C   UNL     1       5.219   6.022  14.264  0.00  0.00    +0.000 A 
ATOM     22  C   UNL     1       5.897   4.796  14.348  0.00  0.00    +0.000 A 
ATOM     23  C   UNL     1       6.494   4.434  15.566  0.00  0.00    +0.000 A 
BRANCH  22  24
ATOM     24  C   UNL     1       6.015   3.881  13.152  0.00  0.00    +0.000 C 
ATOM     25  F   UNL     1       6.914   4.304  12.222  0.00  0.00    +0.000 F 
ATOM     26  F   UNL     1       6.407   2.625  13.509  0.00  0.00    +0.000 F 
ATOM     27  F   UNL     1       4.835   3.728  12.491  0.00  0.00    +0.000 F 
ENDBRANCH  22  24
ENDBRANCH  15  18
ENDBRANCH   1  15
TORSDOF 5
ENDMDL
MODEL 3
REMARK VINA RESULT:      -8.6      1.653      2.240
REMARK  Name = 
REMARK  6 active torsions:
REMARK  status: ('A' for Active; 'I' for Inactive)
REMARK    1  A    between atoms: C_1  and  N_2
REMARK    2  A    between atoms: C_6  and  C_7
REMARK    3  A    between atoms: C_11  and  N_12
REMARK    4  A    between atoms: N_12  and  S_13
REMARK    5  A    between atoms: S_13  and  C_16
REMARK    6  A    between atoms: C_20  and  C_21
REMARK                            x       y       z     vdW  Elec       q    Type
REMARK                         _______ _______ _______ _____ _____    ______ ____
ROOT
ATOM      1  N   UNL     1       2.986   5.670  20.200  0.00  0.00    +0.000 N 
ATOM      2  H   UNL     1       3.816   5.764  20.783  0.00  0.00    +0.000 HD
ENDROOT
BRANCH   1   7
ATOM      3  C   UNL     1       1.188   8.946  20.030  0.00  0.00    +0.000 A 
ATOM      4  C   UNL     1       1.461   9.286  18.698  0.00  0.00    +0.000 A 
ATOM      5  C   UNL     1       2.177   8.425  17.866  0.00  0.00    +0.000 A 
ATOM      6  C   UNL     1       2.669   7.227  18.366  0.00  0.00    +0.000 A 
ATOM      7  C   UNL     1       2.426   6.878  19.695  0.00  0.00    +0.000 A 
ATOM      8  C   UNL     1       1.689   7.728  20.518  0.00  0.00    +0.000 A 
BRANCH   3  14
ATOM      9  C   UNL     1      -1.344  10.820  19.450  0.00  0.00    +0.000 C 
ATOM     10  N   UNL     1      -0.579  10.690  20.662  0.00  0.00    +0.000 N 
ATOM     11  C   UNL     1      -0.854  11.361  21.816  0.00  0.00    +0.000 A 
ATOM     12  N   UNL     1      -0.081  10.920  22.776  0.00  0.00    +0.000 NA
ATOM     13  N   UNL     1       0.736   9.958  22.235  0.00  0.00    +0.000 NA
ATOM     14  C   UNL     1       0.470   9.842  20.944  0.00  0.00    +0.000 A 
ENDBRANCH   3  14
ENDBRANCH   1   7
BRANCH   1  15
ATOM     15  S   UNL     1       3.102   4.333  19.162  0.00  0.00    +0.000 S 
ATOM     16  O   UNL     1       3.221   3.169  20.017  0.00  0.00    +0.000 OA
ATOM     17  O   UNL     1       2.083   4.414  18.139  0.00  0.00    +0.000 OA
BRANCH  15  18
ATOM     18  C   UNL     1       4.693   4.564  18.391  0.00  0.00    +0.000 A 
ATOM     19  C   UNL     1       5.809   4.892  19.164  0.00  0.00    +0.000 A 
ATOM     20  C   UNL     1       7.048   5.051  18.543  0.00  0.00    +0.000 A 
ATOM     21  C   UNL     1       7.170   4.889  17.160  0.00  0.00    +0.000 A 
ATOM     22  C   UNL     1       6.050   4.579  16.373  0.00  0.00    +0.000 A 
ATOM     23  C   UNL     1       4.801   4.439  16.999  0.00  0.00    +0.000 A 
BRANCH  22  24
ATOM     24  C   UNL     1       6.170   4.371  14.882  0.00  0.00    +0.000 C 
ATOM     25  F   UNL     1       5.198   4.992  14.159  0.00  0.00    +0.000 F 
ATOM     26  F   UNL     1       7.354   4.837  14.396  0.00  0.00    +0.000 F 
ATOM     27  F   UNL     1       6.115   3.056  14.531  0.00  0.00    +0.000 F 
ENDBRANCH  22  24
ENDBRANCH  15  18
ENDBRANCH   1  15
TORSDOF 5
ENDMDL
MODEL 4
REMARK VINA RESULT:      -8.5      1.036      1.252
REMARK  Name = 
REMARK  6 active torsions:
REMARK  status: ('A' for Active; 'I' for Inactive)
REMARK    1  A    between atoms: C_1  and  N_2
REMARK    2  A    between atoms: C_6  and  C_7
REMARK    3  A    between atoms: C_11  and  N_12
REMARK    4  A    between atoms: N_12  and  S_13
REMARK    5  A    between atoms: S_13  and  C_16
REMARK    6  A    between atoms: C_20  and  C_21
REMARK                            x       y       z     vdW  Elec       q    Type
REMARK                         _______ _______ _______ _____ _____    ______ ____
ROOT
ATOM      1  N   UNL     1       3.065   6.046  19.914  0.00  0.00    +0.000 N 
ATOM      2  H   UNL     1       4.017   6.174  20.253  0.00  0.00    +0.000 HD
ENDROOT
BRANCH   1   7
ATOM      3  C   UNL     1       0.974   9.130  20.255  0.00  0.00    +0.000 A 
ATOM      4  C   UNL     1       1.058   9.607  18.940  0.00  0.00    +0.000 A 
ATOM      5  C   UNL     1       1.744   8.895  17.956  0.00  0.00    +0.000 A 
ATOM      6  C   UNL     1       2.397   7.715  18.283  0.00  0.00    +0.000 A 
ATOM      7  C   UNL     1       2.344   7.231  19.591  0.00  0.00    +0.000 A 
ATOM      8  C   UNL     1       1.636   7.932  20.567  0.00  0.00    +0.000 A 
BRANCH   3  14
ATOM      9  C   UNL     1      -1.323  11.349  20.028  0.00  0.00    +0.000 C 
ATOM     10  N   UNL     1      -0.651  10.868  21.205  0.00  0.00    +0.000 N 
ATOM     11  C   UNL     1      -0.929  11.287  22.472  0.00  0.00    +0.000 A 
ATOM     12  N   UNL     1      -0.263  10.560  23.333  0.00  0.00    +0.000 NA
ATOM     13  N   UNL     1       0.489   9.663  22.616  0.00  0.00    +0.000 NA
ATOM     14  C   UNL     1       0.292   9.870  21.323  0.00  0.00    +0.000 A 
ENDBRANCH   3  14
ENDBRANCH   1   7
BRANCH   1  15
ATOM     15  S   UNL     1       2.949   4.716  18.869  0.00  0.00    +0.000 S 
ATOM     16  O   UNL     1       3.232   3.545  19.675  0.00  0.00    +0.000 OA
ATOM     17  O   UNL     1       1.739   4.811  18.082  0.00  0.00    +0.000 OA
BRANCH  15  18
ATOM     18  C   UNL     1       4.345   4.937  17.784  0.00  0.00    +0.000 A 
ATOM     19  C   UNL     1       4.490   4.134  16.651  0.00  0.00    +0.000 A 
ATOM     20  C   UNL     1       5.581   4.335  15.804  0.00  0.00    +0.000 A 
ATOM     21  C   UNL     1       6.523   5.327  16.091  0.00  0.00    +0.000 A 
ATOM     22  C   UNL     1       6.396   6.125  17.239  0.00  0.00    +0.000 A 
ATOM     23  C   UNL     1       5.307   5.907  18.098  0.00  0.00    +0.000 A 
BRANCH  22  24
ATOM     24  C   UNL     1       7.388   7.222  17.547  0.00  0.00    +0.000 C 
ATOM     25  F   UNL     1       8.250   7.488  16.527  0.00  0.00    +0.000 F 
ATOM     26  F   UNL     1       6.770   8.402  17.832  0.00  0.00    +0.000 F 
ATOM     27  F   UNL     1       8.163   6.937  18.629  0.00  0.00    +0.000 F 
ENDBRANCH  22  24
ENDBRANCH  15  18
ENDBRANCH   1  15
TORSDOF 5
ENDMDL
MODEL 5
REMARK VINA RESULT:      -8.2      0.690      1.305
REMARK  Name = 
REMARK  6 active torsions:
REMARK  status: ('A' for Active; 'I' for Inactive)
REMARK    1  A    between atoms: C_1  and  N_2
REMARK    2  A    between atoms: C_6  and  C_7
REMARK    3  A    between atoms: C_11  and  N_12
REMARK    4  A    between atoms: N_12  and  S_13
REMARK    5  A    between atoms: S_13  and  C_16
REMARK    6  A    between atoms: C_20  and  C_21
REMARK                            x       y       z     vdW  Elec       q    Type
REMARK                         _______ _______ _______ _____ _____    ______ ____
ROOT
ATOM      1  N   UNL     1       2.709   5.983  20.480  0.00  0.00    +0.000 N 
ATOM      2  H   UNL     1       3.626   6.062  20.915  0.00  0.00    +0.000 HD
ENDROOT
BRANCH   1   7
ATOM      3  C   UNL     1       1.146   9.336  19.925  0.00  0.00    +0.000 A 
ATOM      4  C   UNL     1       1.369   9.466  18.548  0.00  0.00    +0.000 A 
ATOM      5  C   UNL     1       1.973   8.443  17.815  0.00  0.00    +0.000 A 
ATOM      6  C   UNL     1       2.405   7.291  18.458  0.00  0.00    +0.000 A 
ATOM      7  C   UNL     1       2.211   7.149  19.834  0.00  0.00    +0.000 A 
ATOM      8  C   UNL     1       1.584   8.162  20.559  0.00  0.00    +0.000 A 
BRANCH   3  14
ATOM      9  C   UNL     1      -0.522   9.119  22.650  0.00  0.00    +0.000 C 
ATOM     10  N   UNL     1      -0.222  10.289  21.870  0.00  0.00    +0.000 N 
ATOM     11  C   UNL     1      -0.599  11.554  22.211  0.00  0.00    +0.000 A 
ATOM     12  N   UNL     1      -0.051  12.414  21.389  0.00  0.00    +0.000 NA
ATOM     13  N   UNL     1       0.679  11.697  20.474  0.00  0.00    +0.000 NA
ATOM     14  C   UNL     1       0.547  10.405  20.733  0.00  0.00    +0.000 A 
ENDBRANCH   3  14
ENDBRANCH   1   7
BRANCH   1  15
ATOM     15  S   UNL     1       2.512   4.483  19.712  0.00  0.00    +0.000 S 
ATOM     16  O   UNL     1       2.794   3.477  20.716  0.00  0.00    +0.000 OA
ATOM     17  O   UNL     1       1.275   4.472  18.962  0.00  0.00    +0.000 OA
BRANCH  15  18
ATOM     18  C   UNL     1       3.870   4.445  18.557  0.00  0.00    +0.000 A 
ATOM     19  C   UNL     1       3.667   4.007  17.247  0.00  0.00    +0.000 A 
ATOM     20  C   UNL     1       4.738   4.001  16.353  0.00  0.00    +0.000 A 
ATOM     21  C   UNL     1       6.005   4.425  16.768  0.00  0.00    +0.000 A 
ATOM     22  C   UNL     1       6.222   4.847  18.088  0.00  0.00    +0.000 A 
ATOM     23  C   UNL     1       5.145   4.833  18.989  0.00  0.00    +0.000 A 
BRANCH  22  24
ATOM     24  C   UNL     1       7.576   5.336  18.544  0.00  0.00    +0.000 C 
ATOM     25  F   UNL     1       7.964   6.505  17.963  0.00  0.00    +0.000 F 
ATOM     26  F   UNL     1       7.613   5.557  19.888  0.00  0.00    +0.000 F 
ATOM     27  F   UNL     1       8.569   4.441  18.287  0.00  0.00    +0.000 F 
ENDBRANCH  22  24
ENDBRANCH  15  18
ENDBRANCH   1  15
TORSDOF 5
ENDMDL
MODEL 6
REMARK VINA RESULT:      -8.2      4.364      6.716
REMARK  Name = 
REMARK  6 active torsions:
REMARK  status: ('A' for Active; 'I' for Inactive)
REMARK    1  A    between atoms: C_1  and  N_2
REMARK    2  A    between atoms: C_6  and  C_7
REMARK    3  A    between atoms: C_11  and  N_12
REMARK    4  A    between atoms: N_12  and  S_13
REMARK    5  A    between atoms: S_13  and  C_16
REMARK    6  A    between atoms: C_20  and  C_21
REMARK                            x       y       z     vdW  Elec       q    Type
REMARK                         _______ _______ _______ _____ _____    ______ ____
ROOT
ATOM      1  N   UNL     1       4.272   2.750  17.866  0.00  0.00    +0.000 N 
ATOM      2  H   UNL     1       4.549   1.770  17.873  0.00  0.00    +0.000 HD
ENDROOT
BRANCH   1   7
ATOM      3  C   UNL     1       6.523   5.545  16.808  0.00  0.00    +0.000 A 
ATOM      4  C   UNL     1       6.658   5.225  15.450  0.00  0.00    +0.000 A 
ATOM      5  C   UNL     1       5.977   4.143  14.892  0.00  0.00    +0.000 A 
ATOM      6  C   UNL     1       5.182   3.335  15.694  0.00  0.00    +0.000 A 
ATOM      7  C   UNL     1       5.049   3.623  17.054  0.00  0.00    +0.000 A 
ATOM      8  C   UNL     1       5.711   4.720  17.604  0.00  0.00    +0.000 A 
BRANCH   3  14
ATOM      9  C   UNL     1       8.219   5.567  19.524  0.00  0.00    +0.000 C 
ATOM     10  N   UNL     1       7.924   6.661  18.639  0.00  0.00    +0.000 N 
ATOM     11  C   UNL     1       8.376   7.935  18.819  0.00  0.00    +0.000 A 
ATOM     12  N   UNL     1       8.070   8.663  17.773  0.00  0.00    +0.000 NA
ATOM     13  N   UNL     1       7.381   7.857  16.901  0.00  0.00    +0.000 NA
ATOM     14  C   UNL     1       7.252   6.652  17.436  0.00  0.00    +0.000 A 
ENDBRANCH   3  14
ENDBRANCH   1   7
BRANCH   1  15
ATOM     15  S   UNL     1       2.584   2.919  17.855  0.00  0.00    +0.000 S 
ATOM     16  O   UNL     1       2.224   3.268  16.496  0.00  0.00    +0.000 OA
ATOM     17  O   UNL     1       1.972   1.796  18.530  0.00  0.00    +0.000 OA
BRANCH  15  18
ATOM     18  C   UNL     1       2.322   4.380  18.843  0.00  0.00    +0.000 A 
ATOM     19  C   UNL     1       2.084   4.268  20.214  0.00  0.00    +0.000 A 
ATOM     20  C   UNL     1       1.898   5.425  20.973  0.00  0.00    +0.000 A 
ATOM     21  C   UNL     1       1.945   6.682  20.364  0.00  0.00    +0.000 A 
ATOM     22  C   UNL     1       2.164   6.802  18.983  0.00  0.00    +0.000 A 
ATOM     23  C   UNL     1       2.331   5.635  18.220  0.00  0.00    +0.000 A 
BRANCH  22  24
ATOM     24  C   UNL     1       2.249   8.155  18.315  0.00  0.00    +0.000 C 
ATOM     25  F   UNL     1       1.329   8.340  17.329  0.00  0.00    +0.000 F 
ATOM     26  F   UNL     1       2.060   9.173  19.201  0.00  0.00    +0.000 F 
ATOM     27  F   UNL     1       3.463   8.380  17.743  0.00  0.00    +0.000 F 
ENDBRANCH  22  24
ENDBRANCH  15  18
ENDBRANCH   1  15
TORSDOF 5
ENDMDL
MODEL 7
REMARK VINA RESULT:      -8.2      1.572      1.953
REMARK  Name = 
REMARK  6 active torsions:
REMARK  status: ('A' for Active; 'I' for Inactive)
REMARK    1  A    between atoms: C_1  and  N_2
REMARK    2  A    between atoms: C_6  and  C_7
REMARK    3  A    between atoms: C_11  and  N_12
REMARK    4  A    between atoms: N_12  and  S_13
REMARK    5  A    between atoms: S_13  and  C_16
REMARK    6  A    between atoms: C_20  and  C_21
REMARK                            x       y       z     vdW  Elec       q    Type
REMARK                         _______ _______ _______ _____ _____    ______ ____
ROOT
ATOM      1  N   UNL     1       2.835   6.158  20.457  0.00  0.00    +0.000 N 
ATOM      2  H   UNL     1       3.802   5.991  20.186  0.00  0.00    +0.000 HD
ENDROOT
BRANCH   1   7
ATOM      3  C   UNL     1       0.902   9.342  20.109  0.00  0.00    +0.000 A 
ATOM      4  C   UNL     1       1.098   9.579  18.742  0.00  0.00    +0.000 A 
ATOM      5  C   UNL     1       1.807   8.676  17.948  0.00  0.00    +0.000 A 
ATOM      6  C   UNL     1       2.370   7.543  18.519  0.00  0.00    +0.000 A 
ATOM      7  C   UNL     1       2.205   7.298  19.884  0.00  0.00    +0.000 A 
ATOM      8  C   UNL     1       1.474   8.189  20.670  0.00  0.00    +0.000 A 
BRANCH   3  14
ATOM      9  C   UNL     1      -1.537  11.296  19.414  0.00  0.00    +0.000 C 
ATOM     10  N   UNL     1      -0.813  11.167  20.650  0.00  0.00    +0.000 N 
ATOM     11  C   UNL     1      -1.095  11.874  21.780  0.00  0.00    +0.000 A 
ATOM     12  N   UNL     1      -0.366  11.427  22.772  0.00  0.00    +0.000 NA
ATOM     13  N   UNL     1       0.428  10.423  22.277  0.00  0.00    +0.000 NA
ATOM     14  C   UNL     1       0.194  10.286  20.981  0.00  0.00    +0.000 A 
ENDBRANCH   3  14
ENDBRANCH   1   7
BRANCH   1  15
ATOM     15  S   UNL     1       1.958   4.710  20.556  0.00  0.00    +0.000 S 
ATOM     16  O   UNL     1       2.379   4.067  21.785  0.00  0.00    +0.000 OA
ATOM     17  O   UNL     1       0.560   4.960  20.281  0.00  0.00    +0.000 OA
BRANCH  15  18
ATOM     18  C   UNL     1       2.630   3.743  19.218  0.00  0.00    +0.000 A 
ATOM     19  C   UNL     1       2.092   2.490  18.916  0.00  0.00    +0.000 A 
ATOM     20  C   UNL     1       2.622   1.756  17.854  0.00  0.00    +0.000 A 
ATOM     21  C   UNL     1       3.683   2.269  17.103  0.00  0.00    +0.000 A 
ATOM     22  C   UNL     1       4.242   3.518  17.412  0.00  0.00    +0.000 A 
ATOM     23  C   UNL     1       3.720   4.245  18.494  0.00  0.00    +0.000 A 
BRANCH  22  24
ATOM     24  C   UNL     1       5.369   4.100  16.591  0.00  0.00    +0.000 C 
ATOM     25  F   UNL     1       5.882   3.238  15.670  0.00  0.00    +0.000 F 
ATOM     26  F   UNL     1       4.976   5.202  15.894  0.00  0.00    +0.000 F 
ATOM     27  F   UNL     1       6.421   4.500  17.357  0.00  0.00    +0.000 F 
ENDBRANCH  22  24
ENDBRANCH  15  18
ENDBRANCH   1  15
TORSDOF 5
ENDMDL
MODEL 8
REMARK VINA RESULT:      -8.2      0.950      1.034
REMARK  Name = 
REMARK  6 active torsions:
REMARK  status: ('A' for Active; 'I' for Inactive)
REMARK    1  A    between atoms: C_1  and  N_2
REMARK    2  A    between atoms: C_6  and  C_7
REMARK    3  A    between atoms: C_11  and  N_12
REMARK    4  A    between atoms: N_12  and  S_13
REMARK    5  A    between atoms: S_13  and  C_16
REMARK    6  A    between atoms: C_20  and  C_21
REMARK                            x       y       z     vdW  Elec       q    Type
REMARK                         _______ _______ _______ _____ _____    ______ ____
ROOT
ATOM      1  N   UNL     1       2.690   4.812  19.617  0.00  0.00    +0.000 N 
ATOM      2  H   UNL     1       3.398   4.635  20.329  0.00  0.00    +0.000 HD
ENDROOT
BRANCH   1   7
ATOM      3  C   UNL     1       1.504   8.337  20.027  0.00  0.00    +0.000 A 
ATOM      4  C   UNL     1       1.956   8.871  18.812  0.00  0.00    +0.000 A 
ATOM      5  C   UNL     1       2.589   8.069  17.862  0.00  0.00    +0.000 A 
ATOM      6  C   UNL     1       2.820   6.727  18.130  0.00  0.00    +0.000 A 
ATOM      7  C   UNL     1       2.396   6.178  19.342  0.00  0.00    +0.000 A 
ATOM      8  C   UNL     1       1.742   6.976  20.280  0.00  0.00    +0.000 A 
BRANCH   3  14
ATOM      9  C   UNL     1      -0.885  10.450  19.748  0.00  0.00    +0.000 C 
ATOM     10  N   UNL     1      -0.118  10.109  20.916  0.00  0.00    +0.000 N 
ATOM     11  C   UNL     1      -0.326  10.643  22.153  0.00  0.00    +0.000 A 
ATOM     12  N   UNL     1       0.424  10.026  23.031  0.00  0.00    +0.000 NA
ATOM     13  N   UNL     1       1.159   9.086  22.353  0.00  0.00    +0.000 NA
ATOM     14  C   UNL     1       0.868   9.157  21.063  0.00  0.00    +0.000 A 
ENDBRANCH   3  14
ENDBRANCH   1   7
BRANCH   1  15
ATOM     15  S   UNL     1       2.835   3.735  18.315  0.00  0.00    +0.000 S 
ATOM     16  O   UNL     1       2.974   2.416  18.897  0.00  0.00    +0.000 OA
ATOM     17  O   UNL     1       1.817   4.017  17.327  0.00  0.00    +0.000 OA
BRANCH  15  18
ATOM     18  C   UNL     1       4.423   4.157  17.622  0.00  0.00    +0.000 A 
ATOM     19  C   UNL     1       4.657   4.002  16.254  0.00  0.00    +0.000 A 
ATOM     20  C   UNL     1       5.901   4.354  15.729  0.00  0.00    +0.000 A 
ATOM     21  C   UNL     1       6.904   4.852  16.565  0.00  0.00    +0.000 A 
ATOM     22  C   UNL     1       6.684   4.991  17.944  0.00  0.00    +0.000 A 
ATOM     23  C   UNL     1       5.437   4.618  18.472  0.00  0.00    +0.000 A 
BRANCH  22  24
ATOM     24  C   UNL     1       7.747   5.556  18.857  0.00  0.00    +0.000 C 
ATOM     25  F   UNL     1       8.837   4.753  18.997  0.00  0.00    +0.000 F 
ATOM     26  F   UNL     1       8.219   6.754  18.410  0.00  0.00    +0.000 F 
ATOM     27  F   UNL     1       7.285   5.786  20.117  0.00  0.00    +0.000 F 
ENDBRANCH  22  24
ENDBRANCH  15  18
ENDBRANCH   1  15
TORSDOF 5
ENDMDL
MODEL 9
REMARK VINA RESULT:      -8.2      4.624      7.985
REMARK  Name = 
REMARK  6 active torsions:
REMARK  status: ('A' for Active; 'I' for Inactive)
REMARK    1  A    between atoms: C_1  and  N_2
REMARK    2  A    between atoms: C_6  and  C_7
REMARK    3  A    between atoms: C_11  and  N_12
REMARK    4  A    between atoms: N_12  and  S_13
REMARK    5  A    between atoms: S_13  and  C_16
REMARK    6  A    between atoms: C_20  and  C_21
REMARK                            x       y       z     vdW  Elec       q    Type
REMARK                         _______ _______ _______ _____ _____    ______ ____
ROOT
ATOM      1  N   UNL     1       1.735   8.546  21.671  0.00  0.00    +0.000 N 
ATOM      2  H   UNL     1       2.180   8.173  22.508  0.00  0.00    +0.000 HD
ENDROOT
BRANCH   1   7
ATOM      3  C   UNL     1       2.135   5.699  19.278  0.00  0.00    +0.000 A 
ATOM      4  C   UNL     1       2.204   6.419  18.077  0.00  0.00    +0.000 A 
ATOM      5  C   UNL     1       2.173   7.814  18.070  0.00  0.00    +0.000 A 
ATOM      6  C   UNL     1       2.028   8.511  19.262  0.00  0.00    +0.000 A 
ATOM      7  C   UNL     1       1.937   7.813  20.467  0.00  0.00    +0.000 A 
ATOM      8  C   UNL     1       1.994   6.420  20.474  0.00  0.00    +0.000 A 
BRANCH   3  14
ATOM      9  C   UNL     1       4.597   3.660  19.082  0.00  0.00    +0.000 C 
ATOM     10  N   UNL     1       3.191   3.367  19.171  0.00  0.00    +0.000 N 
ATOM     11  C   UNL     1       2.673   2.107  19.219  0.00  0.00    +0.000 A 
ATOM     12  N   UNL     1       1.385   2.170  19.450  0.00  0.00    +0.000 NA
ATOM     13  N   UNL     1       1.048   3.498  19.530  0.00  0.00    +0.000 NA
ATOM     14  C   UNL     1       2.129   4.232  19.320  0.00  0.00    +0.000 A 
ENDBRANCH   3  14
ENDBRANCH   1   7
BRANCH   1  15
ATOM     15  S   UNL     1       0.186   9.149  22.005  0.00  0.00    +0.000 S 
ATOM     16  O   UNL     1      -0.733   8.056  21.760  0.00  0.00    +0.000 OA
ATOM     17  O   UNL     1       0.194   9.856  23.267  0.00  0.00    +0.000 OA
BRANCH  15  18
ATOM     18  C   UNL     1      -0.072  10.334  20.698  0.00  0.00    +0.000 A 
ATOM     19  C   UNL     1       0.583  11.567  20.727  0.00  0.00    +0.000 A 
ATOM     20  C   UNL     1       0.381  12.474  19.686  0.00  0.00    +0.000 A 
ATOM     21  C   UNL     1      -0.474  12.153  18.627  0.00  0.00    +0.000 A 
ATOM     22  C   UNL     1      -1.152  10.924  18.601  0.00  0.00    +0.000 A 
ATOM     23  C   UNL     1      -0.961  10.023  19.660  0.00  0.00    +0.000 A 
BRANCH  22  24
ATOM     24  C   UNL     1      -2.055  10.549  17.449  0.00  0.00    +0.000 C 
ATOM     25  F   UNL     1      -2.226  11.545  16.537  0.00  0.00    +0.000 F 
ATOM     26  F   UNL     1      -1.575   9.481  16.752  0.00  0.00    +0.000 F 
ATOM     27  F   UNL     1      -3.305  10.196  17.858  0.00  0.00    +0.000 F 
ENDBRANCH  22  24
ENDBRANCH  15  18
ENDBRANCH   1  15
TORSDOF 5
ENDMDL
