MODEL 1
REMARK VINA RESULT:      -8.1      0.000      0.000
REMARK  Name = 
REMARK  5 active torsions:
REMARK  status: ('A' for Active; 'I' for Inactive)
REMARK    1  A    between atoms: C_1  and  C_2
REMARK    2  A    between atoms: C_7  and  C_8
REMARK    3  A    between atoms: C_12  and  C_13
REMARK    4  A    between atoms: C_15  and  C_16
REMARK    5  A    between atoms: C_21  and  C_22
REMARK                            x       y       z     vdW  Elec       q    Type
REMARK                         _______ _______ _______ _____ _____    ______ ____
ROOT
ATOM      1  C   UNL     1       4.720   3.829  18.953  0.00  0.00    +0.000 C 
ATOM      2  O   UNL     1       5.465   3.116  19.626  0.00  0.00    +0.000 OA
ATOM      3  N   UNL     1       5.263   4.932  18.288  0.00  0.00    +0.000 N 
ATOM      4  C   UNL     1       4.662   5.861  17.340  0.00  0.00    +0.000 C 
ATOM      5  C   UNL     1       5.835   6.404  16.524  0.00  0.00    +0.000 C 
ATOM      6  C   UNL     1       7.022   6.393  17.508  0.00  0.00    +0.000 C 
ATOM      7  C   UNL     1       6.660   5.290  18.525  0.00  0.00    +0.000 C 
ENDROOT
BRANCH   1  14
ATOM      8  C   UNL     1       2.528   5.172  20.656  0.00  0.00    +0.000 C 
ATOM      9  C   UNL     1       2.281   4.072  19.655  0.00  0.00    +0.000 A 
ATOM     10  N   UNL     1       0.968   3.717  19.572  0.00  0.00    +0.000 NA
ATOM     11  C   UNL     1       0.641   2.781  18.676  0.00  0.00    +0.000 A 
ATOM     12  N   UNL     1       1.489   2.184  17.840  0.00  0.00    +0.000 NA
ATOM     13  C   UNL     1       2.785   2.563  17.958  0.00  0.00    +0.000 A 
ATOM     14  C   UNL     1       3.274   3.465  18.884  0.00  0.00    +0.000 A 
ENDBRANCH   1  14
BRANCH   5  15
ATOM     15  C   UNL     1       6.046   5.568  15.300  0.00  0.00    +0.000 A 
ATOM     16  N   UNL     1       5.145   4.813  14.709  0.00  0.00    +0.000 NA
ATOM     17  C   UNL     1       5.870   4.110  13.781  0.00  0.00    +0.000 A 
ATOM     18  N   UNL     1       7.167   4.433  13.731  0.00  0.00    +0.000 NA
ATOM     19  N   UNL     1       7.260   5.345  14.709  0.00  0.00    +0.000 N 
ATOM     20  H   UNL     1       8.172   5.716  14.955  0.00  0.00    +0.000 HD
BRANCH  17  21
ATOM     21  C   UNL     1       5.292   2.975  12.953  0.00  0.00    +0.000 C 
ATOM     22  C   UNL     1       5.907   2.599  11.623  0.00  0.00    +0.000 C 
ATOM     23  C   UNL     1       4.624   3.353  11.642  0.00  0.00    +0.000 C 
ENDBRANCH  17  21
ENDBRANCH   5  15
BRANCH   6  24
ATOM     24  C   UNL     1       7.199   7.738  18.189  0.00  0.00    +0.000 C 
ATOM     25  C   UNL     1       7.864   8.886  17.469  0.00  0.00    +0.000 C 
ATOM     26  C   UNL     1       8.581   8.197  18.593  0.00  0.00    +0.000 C 
ENDBRANCH   6  24
TORSDOF 4
ENDMDL
MODEL 2
REMARK VINA RESULT:      -7.8      2.686      7.101
REMARK  Name = 
REMARK  5 active torsions:
REMARK  status: ('A' for Active; 'I' for Inactive)
REMARK    1  A    between atoms: C_1  and  C_2
REMARK    2  A    between atoms: C_7  and  C_8
REMARK    3  A    between atoms: C_12  and  C_13
REMARK    4  A    between atoms: C_15  and  C_16
REMARK    5  A    between atoms: C_21  and  C_22
REMARK                            x       y       z     vdW  Elec       q    Type
REMARK                         _______ _______ _______ _____ _____    ______ ____
ROOT
ATOM      1  C   UNL     1       5.889   4.475  18.083  0.00  0.00    +0.000 C 
ATOM      2  O   UNL     1       6.792   4.405  18.917  0.00  0.00    +0.000 OA
ATOM      3  N   UNL     1       4.563   4.416  18.521  0.00  0.00    +0.000 N 
ATOM      4  C   UNL     1       3.312   4.595  17.793  0.00  0.00    +0.000 C 
ATOM      5  C   UNL     1       2.300   5.035  18.852  0.00  0.00    +0.000 C 
ATOM      6  C   UNL     1       2.775   4.340  20.144  0.00  0.00    +0.000 C 
ATOM      7  C   UNL     1       4.289   4.129  19.927  0.00  0.00    +0.000 C 
ENDROOT
BRANCH   1  14
ATOM      8  C   UNL     1       7.493   6.863  16.974  0.00  0.00    +0.000 C 
ATOM      9  C   UNL     1       6.994   5.708  16.145  0.00  0.00    +0.000 A 
ATOM     10  N   UNL     1       7.324   5.821  14.827  0.00  0.00    +0.000 NA
ATOM     11  C   UNL     1       6.966   4.820  14.017  0.00  0.00    +0.000 A 
ATOM     12  N   UNL     1       6.335   3.710  14.396  0.00  0.00    +0.000 NA
ATOM     13  C   UNL     1       6.022   3.639  15.712  0.00  0.00    +0.000 A 
ATOM     14  C   UNL     1       6.268   4.626  16.648  0.00  0.00    +0.000 A 
ENDBRANCH   1  14
BRANCH   5  15
ATOM     15  C   UNL     1       2.258   6.530  18.939  0.00  0.00    +0.000 A 
ATOM     16  N   UNL     1       1.814   7.237  19.955  0.00  0.00    +0.000 NA
ATOM     17  C   UNL     1       1.797   8.521  19.472  0.00  0.00    +0.000 A 
ATOM     18  N   UNL     1       2.260   8.650  18.224  0.00  0.00    +0.000 NA
ATOM     19  N   UNL     1       2.533   7.377  17.901  0.00  0.00    +0.000 N 
ATOM     20  H   UNL     1       2.834   7.160  16.957  0.00  0.00    +0.000 HD
BRANCH  17  21
ATOM     21  C   UNL     1       1.196   9.692  20.231  0.00  0.00    +0.000 C 
ATOM     22  C   UNL     1       0.294   9.458  21.423  0.00  0.00    +0.000 C 
ATOM     23  C   UNL     1      -0.309   9.876  20.128  0.00  0.00    +0.000 C 
ENDBRANCH  17  21
ENDBRANCH   5  15
BRANCH   6  24
ATOM     24  C   UNL     1       2.058   3.021  20.368  0.00  0.00    +0.000 C 
ATOM     25  C   UNL     1       0.550   2.957  20.391  0.00  0.00    +0.000 C 
ATOM     26  C   UNL     1       1.323   2.779  21.665  0.00  0.00    +0.000 C 
ENDBRANCH   6  24
TORSDOF 4
ENDMDL
MODEL 3
REMARK VINA RESULT:      -7.7      3.183      7.064
REMARK  Name = 
REMARK  5 active torsions:
REMARK  status: ('A' for Active; 'I' for Inactive)
REMARK    1  A    between atoms: C_1  and  C_2
REMARK    2  A    between atoms: C_7  and  C_8
REMARK    3  A    between atoms: C_12  and  C_13
REMARK    4  A    between atoms: C_15  and  C_16
REMARK    5  A    between atoms: C_21  and  C_22
REMARK                            x       y       z     vdW  Elec       q    Type
REMARK                         _______ _______ _______ _____ _____    ______ ____
ROOT
ATOM      1  C   UNL     1       5.436   4.851  18.448  0.00  0.00    +0.000 C 
ATOM      2  O   UNL     1       6.202   4.768  19.408  0.00  0.00    +0.000 OA
ATOM      3  N   UNL     1       4.064   4.959  18.689  0.00  0.00    +0.000 N 
ATOM      4  C   UNL     1       2.953   5.193  17.774  0.00  0.00    +0.000 C 
ATOM      5  C   UNL     1       1.858   5.819  18.637  0.00  0.00    +0.000 C 
ATOM      6  C   UNL     1       2.070   5.198  20.032  0.00  0.00    +0.000 C 
ATOM      7  C   UNL     1       3.568   4.824  20.057  0.00  0.00    +0.000 C 
ENDROOT
BRANCH   1  14
ATOM      8  C   UNL     1       7.445   6.953  17.422  0.00  0.00    +0.000 C 
ATOM      9  C   UNL     1       6.935   5.790  16.611  0.00  0.00    +0.000 A 
ATOM     10  N   UNL     1       7.454   5.755  15.352  0.00  0.00    +0.000 NA
ATOM     11  C   UNL     1       7.098   4.732  14.569  0.00  0.00    +0.000 A 
ATOM     12  N   UNL     1       6.296   3.730  14.928  0.00  0.00    +0.000 NA
ATOM     13  C   UNL     1       5.798   3.806  16.186  0.00  0.00    +0.000 A 
ATOM     14  C   UNL     1       6.025   4.838  17.076  0.00  0.00    +0.000 A 
ENDBRANCH   1  14
BRANCH   5  15
ATOM     15  C   UNL     1       1.966   7.313  18.608  0.00  0.00    +0.000 A 
ATOM     16  N   UNL     1       1.481   8.145  19.503  0.00  0.00    +0.000 NA
ATOM     17  C   UNL     1       1.659   9.378  18.928  0.00  0.00    +0.000 A 
ATOM     18  N   UNL     1       2.280   9.353  17.744  0.00  0.00    +0.000 NA
ATOM     19  N   UNL     1       2.452   8.037  17.553  0.00  0.00    +0.000 N 
ATOM     20  H   UNL     1       2.839   7.710  16.674  0.00  0.00    +0.000 HD
BRANCH  17  21
ATOM     21  C   UNL     1       1.100  10.663  19.515  0.00  0.00    +0.000 C 
ATOM     22  C   UNL     1      -0.148  10.642  20.370  0.00  0.00    +0.000 C 
ATOM     23  C   UNL     1      -0.236  11.141  18.970  0.00  0.00    +0.000 C 
ENDBRANCH  17  21
ENDBRANCH   5  15
BRANCH   6  24
ATOM     24  C   UNL     1       1.191   3.979  20.244  0.00  0.00    +0.000 C 
ATOM     25  C   UNL     1       1.457   3.026  21.384  0.00  0.00    +0.000 C 
ATOM     26  C   UNL     1       1.746   2.600  19.975  0.00  0.00    +0.000 C 
ENDBRANCH   6  24
TORSDOF 4
ENDMDL
MODEL 4
REMARK VINA RESULT:      -7.6      0.388      1.372
REMARK  Name = 
REMARK  5 active torsions:
REMARK  status: ('A' for Active; 'I' for Inactive)
REMARK    1  A    between atoms: C_1  and  C_2
REMARK    2  A    between atoms: C_7  and  C_8
REMARK    3  A    between atoms: C_12  and  C_13
REMARK    4  A    between atoms: C_15  and  C_16
REMARK    5  A    between atoms: C_21  and  C_22
REMARK                            x       y       z     vdW  Elec       q    Type
REMARK                         _______ _______ _______ _____ _____    ______ ____
ROOT
ATOM      1  C   UNL     1       4.734   4.115  19.123  0.00  0.00    +0.000 C 
ATOM      2  O   UNL     1       5.468   3.405  19.810  0.00  0.00    +0.000 OA
ATOM      3  N   UNL     1       5.295   5.188  18.426  0.00  0.00    +0.000 N 
ATOM      4  C   UNL     1       4.708   6.104  17.456  0.00  0.00    +0.000 C 
ATOM      5  C   UNL     1       5.888   6.602  16.620  0.00  0.00    +0.000 C 
ATOM      6  C   UNL     1       7.078   6.593  17.599  0.00  0.00    +0.000 C 
ATOM      7  C   UNL     1       6.700   5.524  18.647  0.00  0.00    +0.000 C 
ENDROOT
BRANCH   1  14
ATOM      8  C   UNL     1       3.558   1.846  17.395  0.00  0.00    +0.000 C 
ATOM      9  C   UNL     1       2.748   2.752  18.287  0.00  0.00    +0.000 A 
ATOM     10  N   UNL     1       1.415   2.469  18.256  0.00  0.00    +0.000 NA
ATOM     11  C   UNL     1       0.616   3.188  19.051  0.00  0.00    +0.000 A 
ATOM     12  N   UNL     1       1.019   4.141  19.889  0.00  0.00    +0.000 NA
ATOM     13  C   UNL     1       2.351   4.393  19.886  0.00  0.00    +0.000 A 
ATOM     14  C   UNL     1       3.280   3.778  19.069  0.00  0.00    +0.000 A 
ENDBRANCH   1  14
BRANCH   5  15
ATOM     15  C   UNL     1       6.075   5.729  15.418  0.00  0.00    +0.000 A 
ATOM     16  N   UNL     1       5.147   5.006  14.829  0.00  0.00    +0.000 NA
ATOM     17  C   UNL     1       5.851   4.249  13.928  0.00  0.00    +0.000 A 
ATOM     18  N   UNL     1       7.162   4.506  13.892  0.00  0.00    +0.000 NA
ATOM     19  N   UNL     1       7.286   5.434  14.852  0.00  0.00    +0.000 N 
ATOM     20  H   UNL     1       8.211   5.765  15.104  0.00  0.00    +0.000 HD
BRANCH  17  21
ATOM     21  C   UNL     1       5.230   3.125  13.115  0.00  0.00    +0.000 C 
ATOM     22  C   UNL     1       5.865   2.666  11.821  0.00  0.00    +0.000 C 
ATOM     23  C   UNL     1       4.633   3.500  11.769  0.00  0.00    +0.000 C 
ENDBRANCH  17  21
ENDBRANCH   5  15
BRANCH   6  24
ATOM     24  C   UNL     1       7.286   7.951  18.244  0.00  0.00    +0.000 C 
ATOM     25  C   UNL     1       7.969   9.066  17.490  0.00  0.00    +0.000 C 
ATOM     26  C   UNL     1       8.679   8.393  18.627  0.00  0.00    +0.000 C 
ENDBRANCH   6  24
TORSDOF 4
ENDMDL
MODEL 5
REMARK VINA RESULT:      -7.1      2.753      6.783
REMARK  Name = 
REMARK  5 active torsions:
REMARK  status: ('A' for Active; 'I' for Inactive)
REMARK    1  A    between atoms: C_1  and  C_2
REMARK    2  A    between atoms: C_7  and  C_8
REMARK    3  A    between atoms: C_12  and  C_13
REMARK    4  A    between atoms: C_15  and  C_16
REMARK    5  A    between atoms: C_21  and  C_22
REMARK                            x       y       z     vdW  Elec       q    Type
REMARK                         _______ _______ _______ _____ _____    ______ ____
ROOT
ATOM      1  C   UNL     1       5.977   4.479  18.198  0.00  0.00    +0.000 C 
ATOM      2  O   UNL     1       6.908   4.542  19.000  0.00  0.00    +0.000 OA
ATOM      3  N   UNL     1       4.683   4.270  18.683  0.00  0.00    +0.000 N 
ATOM      4  C   UNL     1       3.397   4.276  17.997  0.00  0.00    +0.000 C 
ATOM      5  C   UNL     1       2.374   4.615  19.081  0.00  0.00    +0.000 C 
ATOM      6  C   UNL     1       2.972   4.017  20.370  0.00  0.00    +0.000 C 
ATOM      7  C   UNL     1       4.492   3.988  20.104  0.00  0.00    +0.000 C 
ENDROOT
BRANCH   1  14
ATOM      8  C   UNL     1       7.460   6.912  17.017  0.00  0.00    +0.000 C 
ATOM      9  C   UNL     1       6.959   5.740  16.211  0.00  0.00    +0.000 A 
ATOM     10  N   UNL     1       7.226   5.861  14.880  0.00  0.00    +0.000 NA
ATOM     11  C   UNL     1       6.863   4.849  14.087  0.00  0.00    +0.000 A 
ATOM     12  N   UNL     1       6.282   3.721  14.494  0.00  0.00    +0.000 NA
ATOM     13  C   UNL     1       6.030   3.643  15.824  0.00  0.00    +0.000 A 
ATOM     14  C   UNL     1       6.288   4.639  16.747  0.00  0.00    +0.000 A 
ENDBRANCH   1  14
BRANCH   5  15
ATOM     15  C   UNL     1       2.151   6.095  19.138  0.00  0.00    +0.000 A 
ATOM     16  N   UNL     1       1.930   6.888  18.112  0.00  0.00    +0.000 NA
ATOM     17  C   UNL     1       1.997   8.146  18.654  0.00  0.00    +0.000 A 
ATOM     18  N   UNL     1       2.195   8.169  19.977  0.00  0.00    +0.000 NA
ATOM     19  N   UNL     1       2.305   6.863  20.260  0.00  0.00    +0.000 N 
ATOM     20  H   UNL     1       2.543   6.580  21.204  0.00  0.00    +0.000 HD
BRANCH  17  21
ATOM     21  C   UNL     1       1.969   9.418  17.824  0.00  0.00    +0.000 C 
ATOM     22  C   UNL     1       1.854  10.772  18.489  0.00  0.00    +0.000 C 
ATOM     23  C   UNL     1       0.664  10.196  17.803  0.00  0.00    +0.000 C 
ENDBRANCH  17  21
ENDBRANCH   5  15
BRANCH   6  24
ATOM     24  C   UNL     1       2.431   2.627  20.647  0.00  0.00    +0.000 C 
ATOM     25  C   UNL     1       1.045   2.234  20.196  0.00  0.00    +0.000 C 
ATOM     26  C   UNL     1       1.322   2.442  21.656  0.00  0.00    +0.000 C 
ENDBRANCH   6  24
TORSDOF 4
ENDMDL
MODEL 6
REMARK VINA RESULT:      -6.6      1.990      5.126
REMARK  Name = 
REMARK  5 active torsions:
REMARK  status: ('A' for Active; 'I' for Inactive)
REMARK    1  A    between atoms: C_1  and  C_2
REMARK    2  A    between atoms: C_7  and  C_8
REMARK    3  A    between atoms: C_12  and  C_13
REMARK    4  A    between atoms: C_15  and  C_16
REMARK    5  A    between atoms: C_21  and  C_22
REMARK                            x       y       z     vdW  Elec       q    Type
REMARK                         _______ _______ _______ _____ _____    ______ ____
ROOT
ATOM      1  C   UNL     1       3.099   4.801  17.822  0.00  0.00    +0.000 C 
ATOM      2  O   UNL     1       2.232   5.470  17.258  0.00  0.00    +0.000 OA
ATOM      3  N   UNL     1       4.329   4.620  17.186  0.00  0.00    +0.000 N 
ATOM      4  C   UNL     1       5.560   3.996  17.656  0.00  0.00    +0.000 C 
ATOM      5  C   UNL     1       6.670   4.639  16.823  0.00  0.00    +0.000 C 
ATOM      6  C   UNL     1       5.999   4.954  15.472  0.00  0.00    +0.000 C 
ATOM      7  C   UNL     1       4.502   5.102  15.817  0.00  0.00    +0.000 C 
ENDROOT
BRANCH   1  14
ATOM      8  C   UNL     1       2.773   1.783  18.365  0.00  0.00    +0.000 C 
ATOM      9  C   UNL     1       2.633   2.861  19.410  0.00  0.00    +0.000 A 
ATOM     10  N   UNL     1       2.339   2.366  20.645  0.00  0.00    +0.000 NA
ATOM     11  C   UNL     1       2.242   3.241  21.650  0.00  0.00    +0.000 A 
ATOM     12  N   UNL     1       2.432   4.556  21.548  0.00  0.00    +0.000 NA
ATOM     13  C   UNL     1       2.717   5.008  20.302  0.00  0.00    +0.000 A 
ATOM     14  C   UNL     1       2.781   4.228  19.163  0.00  0.00    +0.000 A 
ENDBRANCH   1  14
BRANCH   5  15
ATOM     15  C   UNL     1       7.218   5.841  17.531  0.00  0.00    +0.000 A 
ATOM     16  N   UNL     1       7.395   7.036  17.011  0.00  0.00    +0.000 NA
ATOM     17  C   UNL     1       8.096   7.709  17.978  0.00  0.00    +0.000 A 
ATOM     18  N   UNL     1       8.314   7.006  19.095  0.00  0.00    +0.000 NA
ATOM     19  N   UNL     1       7.764   5.823  18.785  0.00  0.00    +0.000 N 
ATOM     20  H   UNL     1       7.854   5.050  19.436  0.00  0.00    +0.000 HD
BRANCH  17  21
ATOM     21  C   UNL     1       8.685   9.094  17.773  0.00  0.00    +0.000 C 
ATOM     22  C   UNL     1       9.044   9.964  18.958  0.00  0.00    +0.000 C 
ATOM     23  C   UNL     1       7.817  10.275  18.174  0.00  0.00    +0.000 C 
ENDBRANCH  17  21
ENDBRANCH   5  15
BRANCH   6  24
ATOM     24  C   UNL     1       6.227   3.846  14.460  0.00  0.00    +0.000 C 
ATOM     25  C   UNL     1       6.838   4.145  13.113  0.00  0.00    +0.000 C 
ATOM     26  C   UNL     1       5.384   3.789  13.208  0.00  0.00    +0.000 C 
ENDBRANCH   6  24
TORSDOF 4
ENDMDL
MODEL 7
REMARK VINA RESULT:      -6.5      3.258      7.028
REMARK  Name = 
REMARK  5 active torsions:
REMARK  status: ('A' for Active; 'I' for Inactive)
REMARK    1  A    between atoms: C_1  and  C_2
REMARK    2  A    between atoms: C_7  and  C_8
REMARK    3  A    between atoms: C_12  and  C_13
REMARK    4  A    between atoms: C_15  and  C_16
REMARK    5  A    between atoms: C_21  and  C_22
REMARK                            x       y       z     vdW  Elec       q    Type
REMARK                         _______ _______ _______ _____ _____    ______ ____
ROOT
ATOM      1  C   UNL     1       5.478   4.923  18.482  0.00  0.00    +0.000 C 
ATOM      2  O   UNL     1       6.250   4.872  19.439  0.00  0.00    +0.000 OA
ATOM      3  N   UNL     1       4.109   5.055  18.728  0.00  0.00    +0.000 N 
ATOM      4  C   UNL     1       2.994   5.262  17.812  0.00  0.00    +0.000 C 
ATOM      5  C   UNL     1       1.911   5.936  18.656  0.00  0.00    +0.000 C 
ATOM      6  C   UNL     1       2.128   5.372  20.074  0.00  0.00    +0.000 C 
ATOM      7  C   UNL     1       3.621   4.983  20.103  0.00  0.00    +0.000 C 
ENDROOT
BRANCH   1  14
ATOM      8  C   UNL     1       4.662   2.809  16.390  0.00  0.00    +0.000 C 
ATOM      9  C   UNL     1       5.688   3.889  16.161  0.00  0.00    +0.000 A 
ATOM     10  N   UNL     1       6.236   3.842  14.914  0.00  0.00    +0.000 NA
ATOM     11  C   UNL     1       7.124   4.789  14.597  0.00  0.00    +0.000 A 
ATOM     12  N   UNL     1       7.499   5.790  15.392  0.00  0.00    +0.000 NA
ATOM     13  C   UNL     1       6.933   5.798  16.624  0.00  0.00    +0.000 A 
ATOM     14  C   UNL     1       6.057   4.846  17.108  0.00  0.00    +0.000 A 
ENDBRANCH   1  14
BRANCH   5  15
ATOM     15  C   UNL     1       2.034   7.426  18.563  0.00  0.00    +0.000 A 
ATOM     16  N   UNL     1       1.488   8.304  19.377  0.00  0.00    +0.000 NA
ATOM     17  C   UNL     1       1.721   9.506  18.759  0.00  0.00    +0.000 A 
ATOM     18  N   UNL     1       2.432   9.420  17.629  0.00  0.00    +0.000 NA
ATOM     19  N   UNL     1       2.607   8.095  17.516  0.00  0.00    +0.000 N 
ATOM     20  H   UNL     1       3.058   7.725  16.686  0.00  0.00    +0.000 HD
BRANCH  17  21
ATOM     21  C   UNL     1       1.130  10.821  19.238  0.00  0.00    +0.000 C 
ATOM     22  C   UNL     1       0.003  10.838  20.248  0.00  0.00    +0.000 C 
ATOM     23  C   UNL     1      -0.299  11.123  18.818  0.00  0.00    +0.000 C 
ENDBRANCH  17  21
ENDBRANCH   5  15
BRANCH   6  24
ATOM     24  C   UNL     1       1.238   4.172  20.343  0.00  0.00    +0.000 C 
ATOM     25  C   UNL     1       1.553   3.216  21.468  0.00  0.00    +0.000 C 
ATOM     26  C   UNL     1       1.746   2.781  20.045  0.00  0.00    +0.000 C 
ENDBRANCH   6  24
TORSDOF 4
ENDMDL
MODEL 8
REMARK VINA RESULT:      -6.5      0.964      1.232
REMARK  Name = 
REMARK  5 active torsions:
REMARK  status: ('A' for Active; 'I' for Inactive)
REMARK    1  A    between atoms: C_1  and  C_2
REMARK    2  A    between atoms: C_7  and  C_8
REMARK    3  A    between atoms: C_12  and  C_13
REMARK    4  A    between atoms: C_15  and  C_16
REMARK    5  A    between atoms: C_21  and  C_22
REMARK                            x       y       z     vdW  Elec       q    Type
REMARK                         _______ _______ _______ _____ _____    ______ ____
ROOT
ATOM      1  C   UNL     1       4.620   3.766  19.228  0.00  0.00    +0.000 C 
ATOM      2  O   UNL     1       5.316   3.083  19.979  0.00  0.00    +0.000 OA
ATOM      3  N   UNL     1       5.216   4.820  18.531  0.00  0.00    +0.000 N 
ATOM      4  C   UNL     1       4.682   5.702  17.500  0.00  0.00    +0.000 C 
ATOM      5  C   UNL     1       5.906   6.180  16.718  0.00  0.00    +0.000 C 
ATOM      6  C   UNL     1       7.038   6.209  17.763  0.00  0.00    +0.000 C 
ATOM      7  C   UNL     1       6.605   5.172  18.821  0.00  0.00    +0.000 C 
ENDROOT
BRANCH   1  14
ATOM      8  C   UNL     1       2.385   5.092  20.889  0.00  0.00    +0.000 C 
ATOM      9  C   UNL     1       2.161   4.019  19.854  0.00  0.00    +0.000 A 
ATOM     10  N   UNL     1       0.848   3.680  19.719  0.00  0.00    +0.000 NA
ATOM     11  C   UNL     1       0.541   2.769  18.791  0.00  0.00    +0.000 A 
ATOM     12  N   UNL     1       1.411   2.183  17.969  0.00  0.00    +0.000 NA
ATOM     13  C   UNL     1       2.706   2.545  18.139  0.00  0.00    +0.000 A 
ATOM     14  C   UNL     1       3.173   3.420  19.102  0.00  0.00    +0.000 A 
ENDBRANCH   1  14
BRANCH   5  15
ATOM     15  C   UNL     1       6.166   5.271  15.557  0.00  0.00    +0.000 A 
ATOM     16  N   UNL     1       7.170   5.357  14.712  0.00  0.00    +0.000 NA
ATOM     17  C   UNL     1       6.851   4.447  13.737  0.00  0.00    +0.000 A 
ATOM     18  N   UNL     1       5.725   3.762  13.965  0.00  0.00    +0.000 NA
ATOM     19  N   UNL     1       5.300   4.309  15.112  0.00  0.00    +0.000 N 
ATOM     20  H   UNL     1       4.401   4.030  15.491  0.00  0.00    +0.000 HD
BRANCH  17  21
ATOM     21  C   UNL     1       7.634   4.297  12.443  0.00  0.00    +0.000 C 
ATOM     22  C   UNL     1       7.566   5.364  11.372  0.00  0.00    +0.000 C 
ATOM     23  C   UNL     1       6.827   4.087  11.173  0.00  0.00    +0.000 C 
ENDBRANCH  17  21
ENDBRANCH   5  15
BRANCH   6  24
ATOM     24  C   UNL     1       7.203   7.588  18.375  0.00  0.00    +0.000 C 
ATOM     25  C   UNL     1       7.736   8.738  17.555  0.00  0.00    +0.000 C 
ATOM     26  C   UNL     1       8.588   8.134  18.632  0.00  0.00    +0.000 C 
ENDBRANCH   6  24
TORSDOF 4
ENDMDL
MODEL 9
REMARK VINA RESULT:      -6.4      2.024      4.985
REMARK  Name = 
REMARK  5 active torsions:
REMARK  status: ('A' for Active; 'I' for Inactive)
REMARK    1  A    between atoms: C_1  and  C_2
REMARK    2  A    between atoms: C_7  and  C_8
REMARK    3  A    between atoms: C_12  and  C_13
REMARK    4  A    between atoms: C_15  and  C_16
REMARK    5  A    between atoms: C_21  and  C_22
REMARK                            x       y       z     vdW  Elec       q    Type
REMARK                         _______ _______ _______ _____ _____    ______ ____
ROOT
ATOM      1  C   UNL     1       3.154   4.741  17.873  0.00  0.00    +0.000 C 
ATOM      2  O   UNL     1       2.262   5.381  17.317  0.00  0.00    +0.000 OA
ATOM      3  N   UNL     1       4.381   4.593  17.221  0.00  0.00    +0.000 N 
ATOM      4  C   UNL     1       5.636   4.008  17.677  0.00  0.00    +0.000 C 
ATOM      5  C   UNL     1       6.716   4.679  16.827  0.00  0.00    +0.000 C 
ATOM      6  C   UNL     1       6.018   4.966  15.483  0.00  0.00    +0.000 C 
ATOM      7  C   UNL     1       4.521   5.072  15.848  0.00  0.00    +0.000 C 
ENDROOT
BRANCH   1  14
ATOM      8  C   UNL     1       2.259   6.417  20.302  0.00  0.00    +0.000 C 
ATOM      9  C   UNL     1       2.467   4.924  20.321  0.00  0.00    +0.000 A 
ATOM     10  N   UNL     1       2.218   4.371  21.542  0.00  0.00    +0.000 NA
ATOM     11  C   UNL     1       2.329   3.043  21.648  0.00  0.00    +0.000 A 
ATOM     12  N   UNL     1       2.638   2.214  20.653  0.00  0.00    +0.000 NA
ATOM     13  C   UNL     1       2.881   2.804  19.457  0.00  0.00    +0.000 A 
ATOM     14  C   UNL     1       2.871   4.166  19.221  0.00  0.00    +0.000 A 
ENDBRANCH   1  14
BRANCH   5  15
ATOM     15  C   UNL     1       7.237   5.900  17.521  0.00  0.00    +0.000 A 
ATOM     16  N   UNL     1       7.421   7.084  16.979  0.00  0.00    +0.000 NA
ATOM     17  C   UNL     1       8.091   7.784  17.949  0.00  0.00    +0.000 A 
ATOM     18  N   UNL     1       8.284   7.108  19.087  0.00  0.00    +0.000 NA
ATOM     19  N   UNL     1       7.750   5.914  18.790  0.00  0.00    +0.000 N 
ATOM     20  H   UNL     1       7.826   5.157  19.460  0.00  0.00    +0.000 HD
BRANCH  17  21
ATOM     21  C   UNL     1       8.678   9.168  17.728  0.00  0.00    +0.000 C 
ATOM     22  C   UNL     1       9.066  10.039  18.903  0.00  0.00    +0.000 C 
ATOM     23  C   UNL     1       7.821  10.351  18.148  0.00  0.00    +0.000 C 
ENDBRANCH  17  21
ENDBRANCH   5  15
BRANCH   6  24
ATOM     24  C   UNL     1       6.265   3.860  14.474  0.00  0.00    +0.000 C 
ATOM     25  C   UNL     1       6.959   4.151  13.165  0.00  0.00    +0.000 C 
ATOM     26  C   UNL     1       5.490   3.842  13.178  0.00  0.00    +0.000 C 
ENDBRANCH   6  24
TORSDOF 4
ENDMDL
