MODEL 1
REMARK VINA RESULT:      -8.6      0.000      0.000
REMARK  Name = 
REMARK  5 active torsions:
REMARK  status: ('A' for Active; 'I' for Inactive)
REMARK    1  A    between atoms: C_1  and  C_2
REMARK    2  A    between atoms: C_3  and  C_4
REMARK    3  A    between atoms: C_13  and  C_15
REMARK    4  A    between atoms: N_24  and  C_25
REMARK    5  A    between atoms: C_25  and  C_26
REMARK                            x       y       z     vdW  Elec       q    Type
REMARK                         _______ _______ _______ _____ _____    ______ ____
ROOT
ATOM      1  C   UNL     1       1.163  10.885  19.332  0.00  0.00    +0.000 C 
ATOM      2  C   UNL     1       0.482  12.278  18.672  0.00  0.00    +0.000 C 
ATOM      3  C   UNL     1       0.067  13.824  18.889  0.00  0.00    +0.000 C 
ATOM      4  C   UNL     1       1.297  14.715  18.874  0.00  0.00    +0.000 C 
ATOM      5  C   UNL     1       2.089  14.459  19.958  0.00  0.00    +0.000 C 
ATOM      6  C   UNL     1       1.687  13.132  20.713  0.00  0.00    +0.000 C 
ATOM      7  C   UNL     1       0.223  13.309  21.296  0.00  0.00    +0.000 C 
ATOM      8  C   UNL     1      -0.871  12.197  21.325  0.00  0.00    +0.000 C 
ATOM      9  O   UNL     1      -0.726  11.068  21.766  0.00  0.00    +0.000 OA
ATOM     10  N   UNL     1      -2.044  12.718  20.808  0.00  0.00    +0.000 N 
ATOM     11  C   UNL     1      -1.904  14.027  20.497  0.00  0.00    +0.000 C 
ATOM     12  O   UNL     1      -2.769  14.870  20.338  0.00  0.00    +0.000 OA
ATOM     13  C   UNL     1      -0.465  14.234  20.304  0.00  0.00    +0.000 C 
ATOM     14  C   UNL     1       1.757  12.174  19.545  0.00  0.00    +0.000 C 
ENDROOT
BRANCH   1  21
ATOM     15  C   UNL     1       1.121   8.049  20.951  0.00  0.00    +0.000 C 
ATOM     16  C   UNL     1       1.561   7.644  19.556  0.00  0.00    +0.000 C 
ATOM     17  C   UNL     1       2.645   6.529  19.631  0.00  0.00    +0.000 C 
ATOM     18  C   UNL     1       3.369   6.582  18.277  0.00  0.00    +0.000 C 
ATOM     19  C   UNL     1       2.900   7.887  17.633  0.00  0.00    +0.000 C 
ATOM     20  N   UNL     1       2.174   8.629  18.659  0.00  0.00    +0.000 N 
ATOM     21  C   UNL     1       1.840   9.951  18.343  0.00  0.00    +0.000 C 
ATOM     22  O   UNL     1       2.198  10.443  17.271  0.00  0.00    +0.000 OA
BRANCH  17  23
ATOM     23  C   UNL     1       2.085   5.180  20.037  0.00  0.00    +0.000 A 
ATOM     24  C   UNL     1       2.323   4.630  21.304  0.00  0.00    +0.000 A 
ATOM     25  C   UNL     1       1.971   3.306  21.579  0.00  0.00    +0.000 A 
ATOM     26  C   UNL     1       1.365   2.522  20.600  0.00  0.00    +0.000 A 
ATOM     27  C   UNL     1       1.079   3.071  19.353  0.00  0.00    +0.000 A 
ATOM     28  C   UNL     1       1.430   4.393  19.076  0.00  0.00    +0.000 A 
ENDBRANCH  17  23
ENDBRANCH   1  21
BRANCH  10  29
ATOM     29  C   UNL     1      -3.212  12.036  20.301  0.00  0.00    +0.000 C 
BRANCH  29  30
ATOM     30  C   UNL     1      -3.099  11.489  18.906  0.00  0.00    +0.000 A 
ATOM     31  C   UNL     1      -2.154  10.502  18.575  0.00  0.00    +0.000 A 
ATOM     32  C   UNL     1      -2.147   9.932  17.299  0.00  0.00    +0.000 A 
ATOM     33  C   UNL     1      -3.070  10.355  16.347  0.00  0.00    +0.000 A 
ATOM     34  C   UNL     1      -3.993  11.351  16.664  0.00  0.00    +0.000 A 
ATOM     35  C   UNL     1      -4.006  11.919  17.934  0.00  0.00    +0.000 A 
ENDBRANCH  29  30
ENDBRANCH  10  29
TORSDOF 4
ENDMDL
MODEL 2
REMARK VINA RESULT:      -8.3      0.272      1.183
REMARK  Name = 
REMARK  5 active torsions:
REMARK  status: ('A' for Active; 'I' for Inactive)
REMARK    1  A    between atoms: C_1  and  C_2
REMARK    2  A    between atoms: C_3  and  C_4
REMARK    3  A    between atoms: C_13  and  C_15
REMARK    4  A    between atoms: N_24  and  C_25
REMARK    5  A    between atoms: C_25  and  C_26
REMARK                            x       y       z     vdW  Elec       q    Type
REMARK                         _______ _______ _______ _____ _____    ______ ____
ROOT
ATOM      1  C   UNL     1       1.191  10.824  19.254  0.00  0.00    +0.000 C 
ATOM      2  C   UNL     1       0.478  12.217  18.631  0.00  0.00    +0.000 C 
ATOM      3  C   UNL     1       0.002  13.739  18.896  0.00  0.00    +0.000 C 
ATOM      4  C   UNL     1       1.199  14.671  18.950  0.00  0.00    +0.000 C 
ATOM      5  C   UNL     1       1.971  14.400  20.045  0.00  0.00    +0.000 C 
ATOM      6  C   UNL     1       1.596  13.031  20.736  0.00  0.00    +0.000 C 
ATOM      7  C   UNL     1       0.113  13.133  21.284  0.00  0.00    +0.000 C 
ATOM      8  C   UNL     1      -0.941  11.983  21.239  0.00  0.00    +0.000 C 
ATOM      9  O   UNL     1      -0.768  10.844  21.640  0.00  0.00    +0.000 OA
ATOM     10  N   UNL     1      -2.119  12.484  20.710  0.00  0.00    +0.000 N 
ATOM     11  C   UNL     1      -2.016  13.808  20.454  0.00  0.00    +0.000 C 
ATOM     12  O   UNL     1      -2.907  14.627  20.305  0.00  0.00    +0.000 OA
ATOM     13  C   UNL     1      -0.581  14.073  20.311  0.00  0.00    +0.000 C 
ATOM     14  C   UNL     1       1.732  12.123  19.534  0.00  0.00    +0.000 C 
ENDROOT
BRANCH   1  21
ATOM     15  C   UNL     1       1.245   7.936  20.779  0.00  0.00    +0.000 C 
ATOM     16  C   UNL     1       1.728   7.598  19.380  0.00  0.00    +0.000 C 
ATOM     17  C   UNL     1       2.860   6.530  19.441  0.00  0.00    +0.000 C 
ATOM     18  C   UNL     1       3.606   6.660  18.104  0.00  0.00    +0.000 C 
ATOM     19  C   UNL     1       3.090   7.963  17.493  0.00  0.00    +0.000 C 
ATOM     20  N   UNL     1       2.314   8.638  18.529  0.00  0.00    +0.000 N 
ATOM     21  C   UNL     1       1.927   9.954  18.250  0.00  0.00    +0.000 C 
ATOM     22  O   UNL     1       2.282  10.497  17.201  0.00  0.00    +0.000 OA
BRANCH  17  23
ATOM     23  C   UNL     1       2.353   5.145  19.791  0.00  0.00    +0.000 A 
ATOM     24  C   UNL     1       1.641   4.362  18.871  0.00  0.00    +0.000 A 
ATOM     25  C   UNL     1       1.013   3.183  19.280  0.00  0.00    +0.000 A 
ATOM     26  C   UNL     1       1.101   2.764  20.606  0.00  0.00    +0.000 A 
ATOM     27  C   UNL     1       1.846   3.506  21.519  0.00  0.00    +0.000 A 
ATOM     28  C   UNL     1       2.474   4.684  21.112  0.00  0.00    +0.000 A 
ENDBRANCH  17  23
ENDBRANCH   1  21
BRANCH  10  29
ATOM     29  C   UNL     1      -3.247  11.782  20.144  0.00  0.00    +0.000 C 
BRANCH  29  30
ATOM     30  C   UNL     1      -3.065  11.264  18.746  0.00  0.00    +0.000 A 
ATOM     31  C   UNL     1      -3.767  11.813  17.658  0.00  0.00    +0.000 A 
ATOM     32  C   UNL     1      -3.495  11.387  16.356  0.00  0.00    +0.000 A 
ATOM     33  C   UNL     1      -2.534  10.405  16.135  0.00  0.00    +0.000 A 
ATOM     34  C   UNL     1      -1.852   9.841  17.214  0.00  0.00    +0.000 A 
ATOM     35  C   UNL     1      -2.118  10.263  18.513  0.00  0.00    +0.000 A 
ENDBRANCH  29  30
ENDBRANCH  10  29
TORSDOF 4
ENDMDL
MODEL 3
REMARK VINA RESULT:      -8.3      1.715      2.810
REMARK  Name = 
REMARK  5 active torsions:
REMARK  status: ('A' for Active; 'I' for Inactive)
REMARK    1  A    between atoms: C_1  and  C_2
REMARK    2  A    between atoms: C_3  and  C_4
REMARK    3  A    between atoms: C_13  and  C_15
REMARK    4  A    between atoms: N_24  and  C_25
REMARK    5  A    between atoms: C_25  and  C_26
REMARK                            x       y       z     vdW  Elec       q    Type
REMARK                         _______ _______ _______ _____ _____    ______ ____
ROOT
ATOM      1  C   UNL     1       1.378  11.113  19.414  0.00  0.00    +0.000 C 
ATOM      2  C   UNL     1       0.590  12.492  18.851  0.00  0.00    +0.000 C 
ATOM      3  C   UNL     1       0.248  14.054  19.082  0.00  0.00    +0.000 C 
ATOM      4  C   UNL     1       1.459  14.918  18.773  0.00  0.00    +0.000 C 
ATOM      5  C   UNL     1       2.456  14.689  19.679  0.00  0.00    +0.000 C 
ATOM      6  C   UNL     1       2.205  13.402  20.558  0.00  0.00    +0.000 C 
ATOM      7  C   UNL     1       0.897  13.632  21.424  0.00  0.00    +0.000 C 
ATOM      8  C   UNL     1      -0.180  12.544  21.728  0.00  0.00    +0.000 C 
ATOM      9  O   UNL     1       0.040  11.432  22.178  0.00  0.00    +0.000 OA
ATOM     10  N   UNL     1      -1.429  13.069  21.444  0.00  0.00    +0.000 N 
ATOM     11  C   UNL     1      -1.341  14.361  21.054  0.00  0.00    +0.000 C 
ATOM     12  O   UNL     1      -2.210  15.215  21.043  0.00  0.00    +0.000 OA
ATOM     13  C   UNL     1       0.029  14.531  20.558  0.00  0.00    +0.000 C 
ATOM     14  C   UNL     1       2.018  12.396  19.443  0.00  0.00    +0.000 C 
ENDROOT
BRANCH   1  21
ATOM     15  C   UNL     1       1.441   8.305  21.082  0.00  0.00    +0.000 C 
ATOM     16  C   UNL     1       1.614   7.856  19.642  0.00  0.00    +0.000 C 
ATOM     17  C   UNL     1       2.628   6.677  19.560  0.00  0.00    +0.000 C 
ATOM     18  C   UNL     1       3.116   6.668  18.104  0.00  0.00    +0.000 C 
ATOM     19  C   UNL     1       2.623   7.992  17.517  0.00  0.00    +0.000 C 
ATOM     20  N   UNL     1       2.126   8.790  18.633  0.00  0.00    +0.000 N 
ATOM     21  C   UNL     1       1.822  10.126  18.348  0.00  0.00    +0.000 C 
ATOM     22  O   UNL     1       2.023  10.582  17.220  0.00  0.00    +0.000 OA
BRANCH  17  23
ATOM     23  C   UNL     1       2.066   5.371  20.084  0.00  0.00    +0.000 A 
ATOM     24  C   UNL     1       2.455   4.839  21.321  0.00  0.00    +0.000 A 
ATOM     25  C   UNL     1       2.081   3.544  21.686  0.00  0.00    +0.000 A 
ATOM     26  C   UNL     1       1.301   2.770  20.828  0.00  0.00    +0.000 A 
ATOM     27  C   UNL     1       0.867   3.303  19.617  0.00  0.00    +0.000 A 
ATOM     28  C   UNL     1       1.240   4.597  19.251  0.00  0.00    +0.000 A 
ENDBRANCH  17  23
ENDBRANCH   1  21
BRANCH  10  29
ATOM     29  C   UNL     1      -2.685  12.391  21.221  0.00  0.00    +0.000 C 
BRANCH  29  30
ATOM     30  C   UNL     1      -3.731  12.578  22.283  0.00  0.00    +0.000 A 
ATOM     31  C   UNL     1      -5.066  12.875  21.960  0.00  0.00    +0.000 A 
ATOM     32  C   UNL     1      -6.038  12.933  22.962  0.00  0.00    +0.000 A 
ATOM     33  C   UNL     1      -5.680  12.710  24.288  0.00  0.00    +0.000 A 
ATOM     34  C   UNL     1      -4.351  12.440  24.616  0.00  0.00    +0.000 A 
ATOM     35  C   UNL     1      -3.380  12.379  23.621  0.00  0.00    +0.000 A 
ENDBRANCH  29  30
ENDBRANCH  10  29
TORSDOF 4
ENDMDL
MODEL 4
REMARK VINA RESULT:      -8.1      2.311      5.311
REMARK  Name = 
REMARK  5 active torsions:
REMARK  status: ('A' for Active; 'I' for Inactive)
REMARK    1  A    between atoms: C_1  and  C_2
REMARK    2  A    between atoms: C_3  and  C_4
REMARK    3  A    between atoms: C_13  and  C_15
REMARK    4  A    between atoms: N_24  and  C_25
REMARK    5  A    between atoms: C_25  and  C_26
REMARK                            x       y       z     vdW  Elec       q    Type
REMARK                         _______ _______ _______ _____ _____    ______ ____
ROOT
ATOM      1  C   UNL     1       0.873   9.945  19.919  0.00  0.00    +0.000 C 
ATOM      2  C   UNL     1       0.090  11.192  20.738  0.00  0.00    +0.000 C 
ATOM      3  C   UNL     1      -0.795  12.541  20.640  0.00  0.00    +0.000 C 
ATOM      4  C   UNL     1      -2.231  12.213  20.270  0.00  0.00    +0.000 C 
ATOM      5  C   UNL     1      -2.297  11.713  19.000  0.00  0.00    +0.000 C 
ATOM      6  C   UNL     1      -0.883  11.321  18.418  0.00  0.00    +0.000 C 
ATOM      7  C   UNL     1      -0.004  12.636  18.305  0.00  0.00    +0.000 C 
ATOM      8  C   UNL     1       1.521  12.724  18.623  0.00  0.00    +0.000 C 
ATOM      9  O   UNL     1       2.386  11.991  18.172  0.00  0.00    +0.000 OA
ATOM     10  N   UNL     1       1.735  13.802  19.466  0.00  0.00    +0.000 N 
ATOM     11  C   UNL     1       0.584  14.472  19.704  0.00  0.00    +0.000 C 
ATOM     12  O   UNL     1       0.437  15.613  20.108  0.00  0.00    +0.000 OA
ATOM     13  C   UNL     1      -0.493  13.512  19.447  0.00  0.00    +0.000 C 
ATOM     14  C   UNL     1      -0.432  10.389  19.521  0.00  0.00    +0.000 C 
ENDROOT
BRANCH   1  21
ATOM     15  C   UNL     1       2.718   8.163  17.897  0.00  0.00    +0.000 C 
ATOM     16  C   UNL     1       2.660   7.312  19.153  0.00  0.00    +0.000 C 
ATOM     17  C   UNL     1       2.551   5.804  18.781  0.00  0.00    +0.000 C 
ATOM     18  C   UNL     1       1.980   5.122  20.034  0.00  0.00    +0.000 C 
ATOM     19  C   UNL     1       1.503   6.272  20.922  0.00  0.00    +0.000 C 
ATOM     20  N   UNL     1       1.565   7.486  20.114  0.00  0.00    +0.000 N 
ATOM     21  C   UNL     1       0.971   8.626  20.666  0.00  0.00    +0.000 C 
ATOM     22  O   UNL     1       0.392   8.560  21.753  0.00  0.00    +0.000 OA
BRANCH  17  23
ATOM     23  C   UNL     1       3.845   5.229  18.240  0.00  0.00    +0.000 A 
ATOM     24  C   UNL     1       5.089   5.546  18.803  0.00  0.00    +0.000 A 
ATOM     25  C   UNL     1       6.273   5.169  18.164  0.00  0.00    +0.000 A 
ATOM     26  C   UNL     1       6.230   4.459  16.966  0.00  0.00    +0.000 A 
ATOM     27  C   UNL     1       5.001   4.096  16.421  0.00  0.00    +0.000 A 
ATOM     28  C   UNL     1       3.817   4.471  17.057  0.00  0.00    +0.000 A 
ENDBRANCH  17  23
ENDBRANCH   1  21
BRANCH  10  29
ATOM     29  C   UNL     1       2.866  14.101  20.312  0.00  0.00    +0.000 C 
BRANCH  29  30
ATOM     30  C   UNL     1       3.864  15.076  19.754  0.00  0.00    +0.000 A 
ATOM     31  C   UNL     1       4.041  16.353  20.316  0.00  0.00    +0.000 A 
ATOM     32  C   UNL     1       5.052  17.195  19.848  0.00  0.00    +0.000 A 
ATOM     33  C   UNL     1       5.879  16.774  18.810  0.00  0.00    +0.000 A 
ATOM     34  C   UNL     1       5.690  15.518  18.233  0.00  0.00    +0.000 A 
ATOM     35  C   UNL     1       4.686  14.674  18.698  0.00  0.00    +0.000 A 
ENDBRANCH  29  30
ENDBRANCH  10  29
TORSDOF 4
ENDMDL
MODEL 5
REMARK VINA RESULT:      -8.1      8.781     11.734
REMARK  Name = 
REMARK  5 active torsions:
REMARK  status: ('A' for Active; 'I' for Inactive)
REMARK    1  A    between atoms: C_1  and  C_2
REMARK    2  A    between atoms: C_3  and  C_4
REMARK    3  A    between atoms: C_13  and  C_15
REMARK    4  A    between atoms: N_24  and  C_25
REMARK    5  A    between atoms: C_25  and  C_26
REMARK                            x       y       z     vdW  Elec       q    Type
REMARK                         _______ _______ _______ _____ _____    ______ ____
ROOT
ATOM      1  C   UNL     1       9.963  13.036  21.170  0.00  0.00    +0.000 C 
ATOM      2  C   UNL     1       9.647  13.035  19.515  0.00  0.00    +0.000 C 
ATOM      3  C   UNL     1      10.236  13.165  18.016  0.00  0.00    +0.000 C 
ATOM      4  C   UNL     1      10.985  11.904  17.625  0.00  0.00    +0.000 C 
ATOM      5  C   UNL     1      12.113  11.760  18.383  0.00  0.00    +0.000 C 
ATOM      6  C   UNL     1      12.145  12.730  19.628  0.00  0.00    +0.000 C 
ATOM      7  C   UNL     1      12.181  14.225  19.101  0.00  0.00    +0.000 C 
ATOM      8  C   UNL     1      11.414  15.421  19.744  0.00  0.00    +0.000 C 
ATOM      9  O   UNL     1      11.444  15.734  20.923  0.00  0.00    +0.000 OA
ATOM     10  N   UNL     1      10.731  16.096  18.747  0.00  0.00    +0.000 N 
ATOM     11  C   UNL     1      10.981  15.556  17.531  0.00  0.00    +0.000 C 
ATOM     12  O   UNL     1      10.834  16.057  16.430  0.00  0.00    +0.000 OA
ATOM     13  C   UNL     1      11.409  14.178  17.792  0.00  0.00    +0.000 C 
ATOM     14  C   UNL     1      10.822  12.345  20.251  0.00  0.00    +0.000 C 
ENDROOT
BRANCH   1  21
ATOM     15  C   UNL     1       9.216  15.112  23.578  0.00  0.00    +0.000 C 
ATOM     16  C   UNL     1       8.242  13.967  23.793  0.00  0.00    +0.000 C 
ATOM     17  C   UNL     1       8.053  13.694  25.315  0.00  0.00    +0.000 C 
ATOM     18  C   UNL     1       7.516  12.258  25.401  0.00  0.00    +0.000 C 
ATOM     19  C   UNL     1       7.716  11.680  23.999  0.00  0.00    +0.000 C 
ATOM     20  N   UNL     1       8.540  12.633  23.262  0.00  0.00    +0.000 N 
ATOM     21  C   UNL     1       9.023  12.201  22.022  0.00  0.00    +0.000 C 
ATOM     22  O   UNL     1       8.788  11.056  21.629  0.00  0.00    +0.000 OA
BRANCH  17  23
ATOM     23  C   UNL     1       7.230  14.758  26.013  0.00  0.00    +0.000 A 
ATOM     24  C   UNL     1       7.608  15.294  27.252  0.00  0.00    +0.000 A 
ATOM     25  C   UNL     1       6.733  16.117  27.965  0.00  0.00    +0.000 A 
ATOM     26  C   UNL     1       5.479  16.428  27.445  0.00  0.00    +0.000 A 
ATOM     27  C   UNL     1       5.109  15.942  26.193  0.00  0.00    +0.000 A 
ATOM     28  C   UNL     1       5.982  15.120  25.479  0.00  0.00    +0.000 A 
ENDBRANCH  17  23
ENDBRANCH   1  21
BRANCH  10  29
ATOM     29  C   UNL     1       9.629  17.023  18.848  0.00  0.00    +0.000 C 
BRANCH  29  30
ATOM     30  C   UNL     1       8.289  16.420  19.159  0.00  0.00    +0.000 A 
ATOM     31  C   UNL     1       7.496  15.828  18.159  0.00  0.00    +0.000 A 
ATOM     32  C   UNL     1       6.307  15.176  18.496  0.00  0.00    +0.000 A 
ATOM     33  C   UNL     1       5.898  15.126  19.826  0.00  0.00    +0.000 A 
ATOM     34  C   UNL     1       6.669  15.734  20.817  0.00  0.00    +0.000 A 
ATOM     35  C   UNL     1       7.855  16.382  20.487  0.00  0.00    +0.000 A 
ENDBRANCH  29  30
ENDBRANCH  10  29
TORSDOF 4
ENDMDL
MODEL 6
REMARK VINA RESULT:      -8.0      8.588     11.649
REMARK  Name = 
REMARK  5 active torsions:
REMARK  status: ('A' for Active; 'I' for Inactive)
REMARK    1  A    between atoms: C_1  and  C_2
REMARK    2  A    between atoms: C_3  and  C_4
REMARK    3  A    between atoms: C_13  and  C_15
REMARK    4  A    between atoms: N_24  and  C_25
REMARK    5  A    between atoms: C_25  and  C_26
REMARK                            x       y       z     vdW  Elec       q    Type
REMARK                         _______ _______ _______ _____ _____    ______ ____
ROOT
ATOM      1  C   UNL     1       9.900  12.854  21.167  0.00  0.00    +0.000 C 
ATOM      2  C   UNL     1       9.635  12.802  19.504  0.00  0.00    +0.000 C 
ATOM      3  C   UNL     1      10.266  12.911  18.021  0.00  0.00    +0.000 C 
ATOM      4  C   UNL     1      11.062  11.661  17.685  0.00  0.00    +0.000 C 
ATOM      5  C   UNL     1      12.169  11.570  18.480  0.00  0.00    +0.000 C 
ATOM      6  C   UNL     1      12.136  12.572  19.700  0.00  0.00    +0.000 C 
ATOM      7  C   UNL     1      12.147  14.052  19.135  0.00  0.00    +0.000 C 
ATOM      8  C   UNL     1      11.328  15.243  19.723  0.00  0.00    +0.000 C 
ATOM      9  O   UNL     1      11.312  15.586  20.894  0.00  0.00    +0.000 OA
ATOM     10  N   UNL     1      10.657  15.872  18.688  0.00  0.00    +0.000 N 
ATOM     11  C   UNL     1      10.960  15.309  17.495  0.00  0.00    +0.000 C 
ATOM     12  O   UNL     1      10.832  15.777  16.377  0.00  0.00    +0.000 OA
ATOM     13  C   UNL     1      11.418  13.951  17.805  0.00  0.00    +0.000 C 
ATOM     14  C   UNL     1      10.805  12.165  20.293  0.00  0.00    +0.000 C 
ENDROOT
BRANCH   1  21
ATOM     15  C   UNL     1       9.033  14.965  23.504  0.00  0.00    +0.000 C 
ATOM     16  C   UNL     1       8.082  13.801  23.719  0.00  0.00    +0.000 C 
ATOM     17  C   UNL     1       7.858  13.558  25.241  0.00  0.00    +0.000 C 
ATOM     18  C   UNL     1       7.354  12.110  25.346  0.00  0.00    +0.000 C 
ATOM     19  C   UNL     1       7.608  11.506  23.964  0.00  0.00    +0.000 C 
ATOM     20  N   UNL     1       8.429  12.463  23.228  0.00  0.00    +0.000 N 
ATOM     21  C   UNL     1       8.957  12.015  22.012  0.00  0.00    +0.000 C 
ATOM     22  O   UNL     1       8.762  10.856  21.639  0.00  0.00    +0.000 OA
BRANCH  17  23
ATOM     23  C   UNL     1       6.988  14.615  25.891  0.00  0.00    +0.000 A 
ATOM     24  C   UNL     1       5.724  14.949  25.385  0.00  0.00    +0.000 A 
ATOM     25  C   UNL     1       5.035  16.060  25.876  0.00  0.00    +0.000 A 
ATOM     26  C   UNL     1       5.591  16.842  26.886  0.00  0.00    +0.000 A 
ATOM     27  C   UNL     1       6.824  16.495  27.431  0.00  0.00    +0.000 A 
ATOM     28  C   UNL     1       7.515  15.384  26.942  0.00  0.00    +0.000 A 
ENDBRANCH  17  23
ENDBRANCH   1  21
BRANCH  10  29
ATOM     29  C   UNL     1       9.527  16.770  18.731  0.00  0.00    +0.000 C 
BRANCH  29  30
ATOM     30  C   UNL     1       8.198  16.139  19.032  0.00  0.00    +0.000 A 
ATOM     31  C   UNL     1       7.667  16.121  20.335  0.00  0.00    +0.000 A 
ATOM     32  C   UNL     1       6.381  15.628  20.566  0.00  0.00    +0.000 A 
ATOM     33  C   UNL     1       5.626  15.137  19.503  0.00  0.00    +0.000 A 
ATOM     34  C   UNL     1       6.159  15.130  18.214  0.00  0.00    +0.000 A 
ATOM     35  C   UNL     1       7.439  15.623  17.979  0.00  0.00    +0.000 A 
ENDBRANCH  29  30
ENDBRANCH  10  29
TORSDOF 4
ENDMDL
MODEL 7
REMARK VINA RESULT:      -8.0      3.087      9.175
REMARK  Name = 
REMARK  5 active torsions:
REMARK  status: ('A' for Active; 'I' for Inactive)
REMARK    1  A    between atoms: C_1  and  C_2
REMARK    2  A    between atoms: C_3  and  C_4
REMARK    3  A    between atoms: C_13  and  C_15
REMARK    4  A    between atoms: N_24  and  C_25
REMARK    5  A    between atoms: C_25  and  C_26
REMARK                            x       y       z     vdW  Elec       q    Type
REMARK                         _______ _______ _______ _____ _____    ______ ____
ROOT
ATOM      1  C   UNL     1       2.714   6.710  18.805  0.00  0.00    +0.000 C 
ATOM      2  C   UNL     1       2.290   5.266  18.047  0.00  0.00    +0.000 C 
ATOM      3  C   UNL     1       1.943   3.696  18.205  0.00  0.00    +0.000 C 
ATOM      4  C   UNL     1       0.554   3.511  18.790  0.00  0.00    +0.000 C 
ATOM      5  C   UNL     1       0.511   3.963  20.079  0.00  0.00    +0.000 C 
ATOM      6  C   UNL     1       1.778   4.819  20.473  0.00  0.00    +0.000 C 
ATOM      7  C   UNL     1       3.058   3.888  20.397  0.00  0.00    +0.000 C 
ATOM      8  C   UNL     1       4.456   4.328  19.862  0.00  0.00    +0.000 C 
ATOM      9  O   UNL     1       5.077   5.316  20.221  0.00  0.00    +0.000 OA
ATOM     10  N   UNL     1       4.896   3.386  18.947  0.00  0.00    +0.000 N 
ATOM     11  C   UNL     1       4.021   2.360  18.843  0.00  0.00    +0.000 C 
ATOM     12  O   UNL     1       4.212   1.236  18.410  0.00  0.00    +0.000 OA
ATOM     13  C   UNL     1       2.732   2.892  19.295  0.00  0.00    +0.000 C 
ATOM     14  C   UNL     1       1.714   5.845  19.362  0.00  0.00    +0.000 C 
ENDROOT
BRANCH   1  21
ATOM     15  C   UNL     1       1.021   8.178  21.180  0.00  0.00    +0.000 C 
ATOM     16  C   UNL     1       1.115   9.250  20.110  0.00  0.00    +0.000 C 
ATOM     17  C   UNL     1      -0.217  10.052  20.027  0.00  0.00    +0.000 C 
ATOM     18  C   UNL     1      -0.210  10.699  18.634  0.00  0.00    +0.000 C 
ATOM     19  C   UNL     1       0.929  10.005  17.886  0.00  0.00    +0.000 C 
ATOM     20  N   UNL     1       1.353   8.878  18.711  0.00  0.00    +0.000 N 
ATOM     21  C   UNL     1       2.244   7.979  18.115  0.00  0.00    +0.000 C 
ATOM     22  O   UNL     1       2.591   8.133  16.942  0.00  0.00    +0.000 OA
BRANCH  17  23
ATOM     23  C   UNL     1      -0.419  10.993  21.198  0.00  0.00    +0.000 A 
ATOM     24  C   UNL     1      -1.131  10.609  22.343  0.00  0.00    +0.000 A 
ATOM     25  C   UNL     1      -1.476  11.553  23.314  0.00  0.00    +0.000 A 
ATOM     26  C   UNL     1      -1.101  12.886  23.161  0.00  0.00    +0.000 A 
ATOM     27  C   UNL     1      -0.352  13.272  22.053  0.00  0.00    +0.000 A 
ATOM     28  C   UNL     1      -0.006  12.331  21.082  0.00  0.00    +0.000 A 
ENDBRANCH  17  23
ENDBRANCH   1  21
BRANCH  10  29
ATOM     29  C   UNL     1       5.922   3.491  17.936  0.00  0.00    +0.000 C 
BRANCH  29  30
ATOM     30  C   UNL     1       6.406   4.880  17.632  0.00  0.00    +0.000 A 
ATOM     31  C   UNL     1       5.703   5.732  16.762  0.00  0.00    +0.000 A 
ATOM     32  C   UNL     1       6.115   7.056  16.586  0.00  0.00    +0.000 A 
ATOM     33  C   UNL     1       7.235   7.528  17.264  0.00  0.00    +0.000 A 
ATOM     34  C   UNL     1       7.950   6.678  18.109  0.00  0.00    +0.000 A 
ATOM     35  C   UNL     1       7.541   5.360  18.289  0.00  0.00    +0.000 A 
ENDBRANCH  29  30
ENDBRANCH  10  29
TORSDOF 4
ENDMDL
MODEL 8
REMARK VINA RESULT:      -7.9      2.199      4.433
REMARK  Name = 
REMARK  5 active torsions:
REMARK  status: ('A' for Active; 'I' for Inactive)
REMARK    1  A    between atoms: C_1  and  C_2
REMARK    2  A    between atoms: C_3  and  C_4
REMARK    3  A    between atoms: C_13  and  C_15
REMARK    4  A    between atoms: N_24  and  C_25
REMARK    5  A    between atoms: C_25  and  C_26
REMARK                            x       y       z     vdW  Elec       q    Type
REMARK                         _______ _______ _______ _____ _____    ______ ____
ROOT
ATOM      1  C   UNL     1       0.914   9.936  20.318  0.00  0.00    +0.000 C 
ATOM      2  C   UNL     1      -0.675  10.488  20.407  0.00  0.00    +0.000 C 
ATOM      3  C   UNL     1      -1.823  11.440  19.784  0.00  0.00    +0.000 C 
ATOM      4  C   UNL     1      -2.359  10.853  18.490  0.00  0.00    +0.000 C 
ATOM      5  C   UNL     1      -1.395  10.866  17.521  0.00  0.00    +0.000 C 
ATOM      6  C   UNL     1       0.046  11.169  18.091  0.00  0.00    +0.000 C 
ATOM      7  C   UNL     1       0.048  12.631  18.704  0.00  0.00    +0.000 C 
ATOM      8  C   UNL     1       0.786  13.054  20.011  0.00  0.00    +0.000 C 
ATOM      9  O   UNL     1       1.960  12.840  20.267  0.00  0.00    +0.000 OA
ATOM     10  N   UNL     1      -0.101  13.751  20.814  0.00  0.00    +0.000 N 
ATOM     11  C   UNL     1      -1.299  13.901  20.203  0.00  0.00    +0.000 C 
ATOM     12  O   UNL     1      -2.182  14.707  20.444  0.00  0.00    +0.000 OA
ATOM     13  C   UNL     1      -1.373  12.826  19.209  0.00  0.00    +0.000 C 
ATOM     14  C   UNL     1       0.111  10.078  19.137  0.00  0.00    +0.000 C 
ENDROOT
BRANCH   1  21
ATOM     15  C   UNL     1       2.461   8.535  17.806  0.00  0.00    +0.000 C 
ATOM     16  C   UNL     1       2.616   7.515  18.919  0.00  0.00    +0.000 C 
ATOM     17  C   UNL     1       2.482   6.070  18.354  0.00  0.00    +0.000 C 
ATOM     18  C   UNL     1       2.126   5.197  19.567  0.00  0.00    +0.000 C 
ATOM     19  C   UNL     1       1.769   6.190  20.674  0.00  0.00    +0.000 C 
ATOM     20  N   UNL     1       1.680   7.506  20.049  0.00  0.00    +0.000 N 
ATOM     21  C   UNL     1       1.154   8.531  20.843  0.00  0.00    +0.000 C 
ATOM     22  O   UNL     1       0.752   8.290  21.983  0.00  0.00    +0.000 OA
BRANCH  17  23
ATOM     23  C   UNL     1       3.688   5.632  17.548  0.00  0.00    +0.000 A 
ATOM     24  C   UNL     1       4.560   6.557  16.956  0.00  0.00    +0.000 A 
ATOM     25  C   UNL     1       5.539   6.133  16.055  0.00  0.00    +0.000 A 
ATOM     26  C   UNL     1       5.670   4.781  15.745  0.00  0.00    +0.000 A 
ATOM     27  C   UNL     1       4.843   3.846  16.362  0.00  0.00    +0.000 A 
ATOM     28  C   UNL     1       3.864   4.268  17.263  0.00  0.00    +0.000 A 
ENDBRANCH  17  23
ENDBRANCH   1  21
BRANCH  10  29
ATOM     29  C   UNL     1      -0.034  14.043  22.227  0.00  0.00    +0.000 C 
BRANCH  29  30
ATOM     30  C   UNL     1      -1.251  13.683  23.031  0.00  0.00    +0.000 A 
ATOM     31  C   UNL     1      -1.997  14.659  23.716  0.00  0.00    +0.000 A 
ATOM     32  C   UNL     1      -3.186  14.312  24.363  0.00  0.00    +0.000 A 
ATOM     33  C   UNL     1      -3.626  12.992  24.340  0.00  0.00    +0.000 A 
ATOM     34  C   UNL     1      -2.877  12.017  23.682  0.00  0.00    +0.000 A 
ATOM     35  C   UNL     1      -1.693  12.358  23.035  0.00  0.00    +0.000 A 
ENDBRANCH  29  30
ENDBRANCH  10  29
TORSDOF 4
ENDMDL
MODEL 9
REMARK VINA RESULT:      -7.8      2.129      5.146
REMARK  Name = 
REMARK  5 active torsions:
REMARK  status: ('A' for Active; 'I' for Inactive)
REMARK    1  A    between atoms: C_1  and  C_2
REMARK    2  A    between atoms: C_3  and  C_4
REMARK    3  A    between atoms: C_13  and  C_15
REMARK    4  A    between atoms: N_24  and  C_25
REMARK    5  A    between atoms: C_25  and  C_26
REMARK                            x       y       z     vdW  Elec       q    Type
REMARK                         _______ _______ _______ _____ _____    ______ ____
ROOT
ATOM      1  C   UNL     1       0.829  10.179  19.881  0.00  0.00    +0.000 C 
ATOM      2  C   UNL     1      -0.214  11.253  20.655  0.00  0.00    +0.000 C 
ATOM      3  C   UNL     1      -1.291  12.448  20.510  0.00  0.00    +0.000 C 
ATOM      4  C   UNL     1      -2.617  11.913  19.998  0.00  0.00    +0.000 C 
ATOM      5  C   UNL     1      -2.490  11.461  18.715  0.00  0.00    +0.000 C 
ATOM      6  C   UNL     1      -0.985  11.322  18.258  0.00  0.00    +0.000 C 
ATOM      7  C   UNL     1      -0.323  12.762  18.263  0.00  0.00    +0.000 C 
ATOM      8  C   UNL     1       1.134  13.078  18.724  0.00  0.00    +0.000 C 
ATOM      9  O   UNL     1       2.142  12.509  18.337  0.00  0.00    +0.000 OA
ATOM     10  N   UNL     1       1.096  14.140  19.612  0.00  0.00    +0.000 N 
ATOM     11  C   UNL     1      -0.164  14.610  19.759  0.00  0.00    +0.000 C 
ATOM     12  O   UNL     1      -0.529  15.696  20.177  0.00  0.00    +0.000 OA
ATOM     13  C   UNL     1      -1.046  13.502  19.377  0.00  0.00    +0.000 C 
ATOM     14  C   UNL     1      -0.490  10.429  19.373  0.00  0.00    +0.000 C 
ENDROOT
BRANCH   1  21
ATOM     15  C   UNL     1       2.410   8.454  17.603  0.00  0.00    +0.000 C 
ATOM     16  C   UNL     1       2.560   7.600  18.849  0.00  0.00    +0.000 C 
ATOM     17  C   UNL     1       2.441   6.090  18.489  0.00  0.00    +0.000 C 
ATOM     18  C   UNL     1       2.077   5.391  19.808  0.00  0.00    +0.000 C 
ATOM     19  C   UNL     1       1.702   6.525  20.762  0.00  0.00    +0.000 C 
ATOM     20  N   UNL     1       1.612   7.741  19.959  0.00  0.00    +0.000 N 
ATOM     21  C   UNL     1       1.072   8.863  20.599  0.00  0.00    +0.000 C 
ATOM     22  O   UNL     1       0.660   8.780  21.758  0.00  0.00    +0.000 OA
BRANCH  17  23
ATOM     23  C   UNL     1       3.658   5.553  17.763  0.00  0.00    +0.000 A 
ATOM     24  C   UNL     1       3.632   4.331  17.076  0.00  0.00    +0.000 A 
ATOM     25  C   UNL     1       4.814   3.765  16.592  0.00  0.00    +0.000 A 
ATOM     26  C   UNL     1       6.031   4.418  16.773  0.00  0.00    +0.000 A 
ATOM     27  C   UNL     1       6.065   5.655  17.410  0.00  0.00    +0.000 A 
ATOM     28  C   UNL     1       4.886   6.223  17.894  0.00  0.00    +0.000 A 
ENDBRANCH  17  23
ENDBRANCH   1  21
BRANCH  10  29
ATOM     29  C   UNL     1       2.085  14.579  20.568  0.00  0.00    +0.000 C 
BRANCH  29  30
ATOM     30  C   UNL     1       3.312  15.228  19.992  0.00  0.00    +0.000 A 
ATOM     31  C   UNL     1       4.605  14.839  20.386  0.00  0.00    +0.000 A 
ATOM     32  C   UNL     1       5.727  15.381  19.753  0.00  0.00    +0.000 A 
ATOM     33  C   UNL     1       5.564  16.320  18.739  0.00  0.00    +0.000 A 
ATOM     34  C   UNL     1       4.283  16.726  18.363  0.00  0.00    +0.000 A 
ATOM     35  C   UNL     1       3.163  16.188  18.989  0.00  0.00    +0.000 A 
ENDBRANCH  29  30
ENDBRANCH  10  29
TORSDOF 4
ENDMDL
