MODEL 1
REMARK VINA RESULT:      -8.9      0.000      0.000
REMARK  Name = 
REMARK  3 active torsions:
REMARK  status: ('A' for Active; 'I' for Inactive)
REMARK    1  A    between atoms: C_4  and  C_5
REMARK    2  A    between atoms: C_8  and  C_9
REMARK    3  A    between atoms: N_15  and  C_16
REMARK                            x       y       z     vdW  Elec       q    Type
REMARK                         _______ _______ _______ _____ _____    ______ ____
ROOT
ATOM      1  C   UNL     1       3.127   4.566  17.996  0.00  0.00    +0.000 C 
ATOM      2  C   UNL     1       3.857   3.864  19.182  0.00  0.00    +0.000 C 
ATOM      3  C   UNL     1       5.310   4.356  19.381  0.00  0.00    +0.000 C 
ATOM      4  C   UNL     1       5.987   4.488  18.073  0.00  0.00    +0.000 A 
ATOM      5  N   UNL     1       7.316   4.703  17.900  0.00  0.00    +0.000 NA
ATOM      6  N   UNL     1       7.533   4.819  16.596  0.00  0.00    +0.000 NA
ATOM      7  N   UNL     1       6.352   4.680  15.953  0.00  0.00    +0.000 N 
ATOM      8  C   UNL     1       5.346   4.480  16.855  0.00  0.00    +0.000 A 
ATOM      9  C   UNL     1       3.882   4.316  16.649  0.00  0.00    +0.000 C 
ENDROOT
BRANCH   7  10
ATOM     10  C   UNL     1       6.312   4.731  14.500  0.00  0.00    +0.000 C 
ATOM     11  C   UNL     1       5.922   3.374  13.901  0.00  0.00    +0.000 C 
ATOM     12  C   UNL     1       6.004   3.411  12.384  0.00  0.00    +0.000 C 
ATOM     13  O   UNL     1       7.297   3.830  11.957  0.00  0.00    +0.000 OA
ATOM     14  C   UNL     1       7.617   5.148  12.392  0.00  0.00    +0.000 C 
ATOM     15  C   UNL     1       7.639   5.224  13.911  0.00  0.00    +0.000 C 
ENDBRANCH   7  10
BRANCH   1  19
ATOM     16  C   UNL     1       2.278   7.948  18.688  0.00  0.00    +0.000 A 
ATOM     17  N   UNL     1       3.229   8.168  17.771  0.00  0.00    +0.000 NA
ATOM     18  O   UNL     1       3.718   6.886  17.500  0.00  0.00    +0.000 OA
ATOM     19  C   UNL     1       2.997   6.029  18.279  0.00  0.00    +0.000 A 
ATOM     20  N   UNL     1       2.157   6.642  19.078  0.00  0.00    +0.000 NA
BRANCH  16  24
ATOM     21  C   UNL     1       0.965   9.264  22.842  0.00  0.00    +0.000 A 
ATOM     22  C   UNL     1       1.484   8.751  21.710  0.00  0.00    +0.000 A 
ATOM     23  N   UNL     1       1.052   9.256  20.496  0.00  0.00    +0.000 N 
ATOM     24  C   UNL     1       1.362   8.989  19.187  0.00  0.00    +0.000 A 
ATOM     25  C   UNL     1       0.601   9.870  18.446  0.00  0.00    +0.000 A 
ATOM     26  N   UNL     1      -0.181  10.660  19.259  0.00  0.00    +0.000 NA
ATOM     27  C   UNL     1       0.113  10.260  20.475  0.00  0.00    +0.000 A 
ATOM     28  C   UNL     1      -0.401  10.742  21.727  0.00  0.00    +0.000 A 
ATOM     29  N   UNL     1       0.013  10.268  22.874  0.00  0.00    +0.000 NA
ENDBRANCH  16  24
ENDBRANCH   1  19
TORSDOF 3
ENDMDL
MODEL 2
REMARK VINA RESULT:      -8.6      0.749      1.623
REMARK  Name = 
REMARK  3 active torsions:
REMARK  status: ('A' for Active; 'I' for Inactive)
REMARK    1  A    between atoms: C_4  and  C_5
REMARK    2  A    between atoms: C_8  and  C_9
REMARK    3  A    between atoms: N_15  and  C_16
REMARK                            x       y       z     vdW  Elec       q    Type
REMARK                         _______ _______ _______ _____ _____    ______ ____
ROOT
ATOM      1  C   UNL     1       3.155   4.299  18.073  0.00  0.00    +0.000 C 
ATOM      2  C   UNL     1       3.915   3.545  19.206  0.00  0.00    +0.000 C 
ATOM      3  C   UNL     1       5.355   4.067  19.426  0.00  0.00    +0.000 C 
ATOM      4  C   UNL     1       6.016   4.302  18.124  0.00  0.00    +0.000 A 
ATOM      5  N   UNL     1       7.336   4.566  17.956  0.00  0.00    +0.000 NA
ATOM      6  N   UNL     1       7.539   4.770  16.661  0.00  0.00    +0.000 NA
ATOM      7  N   UNL     1       6.357   4.637  16.019  0.00  0.00    +0.000 N 
ATOM      8  C   UNL     1       5.365   4.351  16.913  0.00  0.00    +0.000 A 
ATOM      9  C   UNL     1       3.905   4.157  16.707  0.00  0.00    +0.000 C 
ENDROOT
BRANCH   7  10
ATOM     10  C   UNL     1       6.302   4.779  14.571  0.00  0.00    +0.000 C 
ATOM     11  C   UNL     1       5.829   3.484  13.898  0.00  0.00    +0.000 C 
ATOM     12  C   UNL     1       5.895   3.608  12.385  0.00  0.00    +0.000 C 
ATOM     13  O   UNL     1       7.205   3.979  11.965  0.00  0.00    +0.000 OA
ATOM     14  C   UNL     1       7.603   5.248  12.473  0.00  0.00    +0.000 C 
ATOM     15  C   UNL     1       7.647   5.231  13.993  0.00  0.00    +0.000 C 
ENDBRANCH   7  10
BRANCH   1  19
ATOM     16  C   UNL     1       2.288   7.553  19.211  0.00  0.00    +0.000 A 
ATOM     17  N   UNL     1       2.716   7.881  17.985  0.00  0.00    +0.000 NA
ATOM     18  O   UNL     1       3.190   6.669  17.474  0.00  0.00    +0.000 OA
ATOM     19  C   UNL     1       2.985   5.737  18.448  0.00  0.00    +0.000 A 
ATOM     20  N   UNL     1       2.506   6.248  19.557  0.00  0.00    +0.000 NA
BRANCH  16  24
ATOM     21  C   UNL     1       0.660  11.776  18.729  0.00  0.00    +0.000 A 
ATOM     22  C   UNL     1       1.186  10.538  18.672  0.00  0.00    +0.000 A 
ATOM     23  N   UNL     1       1.144   9.749  19.809  0.00  0.00    +0.000 N 
ATOM     24  C   UNL     1       1.560   8.475  20.102  0.00  0.00    +0.000 A 
ATOM     25  C   UNL     1       1.191   8.264  21.414  0.00  0.00    +0.000 A 
ATOM     26  N   UNL     1       0.575   9.376  21.944  0.00  0.00    +0.000 NA
ATOM     27  C   UNL     1       0.571  10.242  20.956  0.00  0.00    +0.000 A 
ATOM     28  C   UNL     1       0.045  11.579  20.937  0.00  0.00    +0.000 A 
ATOM     29  N   UNL     1       0.079  12.321  19.860  0.00  0.00    +0.000 NA
ENDBRANCH  16  24
ENDBRANCH   1  19
TORSDOF 3
ENDMDL
MODEL 3
REMARK VINA RESULT:      -8.2      1.867      2.920
REMARK  Name = 
REMARK  3 active torsions:
REMARK  status: ('A' for Active; 'I' for Inactive)
REMARK    1  A    between atoms: C_4  and  C_5
REMARK    2  A    between atoms: C_8  and  C_9
REMARK    3  A    between atoms: N_15  and  C_16
REMARK                            x       y       z     vdW  Elec       q    Type
REMARK                         _______ _______ _______ _____ _____    ______ ____
ROOT
ATOM      1  C   UNL     1       1.145   4.562  19.456  0.00  0.00    +0.000 C 
ATOM      2  C   UNL     1       1.404   3.449  20.516  0.00  0.00    +0.000 C 
ATOM      3  C   UNL     1       2.873   3.399  21.001  0.00  0.00    +0.000 C 
ATOM      4  C   UNL     1       3.793   3.554  19.854  0.00  0.00    +0.000 A 
ATOM      5  N   UNL     1       5.135   3.357  19.899  0.00  0.00    +0.000 NA
ATOM      6  N   UNL     1       5.619   3.645  18.697  0.00  0.00    +0.000 NA
ATOM      7  N   UNL     1       4.591   4.019  17.902  0.00  0.00    +0.000 N 
ATOM      8  C   UNL     1       3.419   3.986  18.603  0.00  0.00    +0.000 A 
ATOM      9  C   UNL     1       2.036   4.345  18.189  0.00  0.00    +0.000 C 
ENDROOT
BRANCH   7  10
ATOM     10  C   UNL     1       4.843   4.358  16.510  0.00  0.00    +0.000 C 
ATOM     11  C   UNL     1       6.041   3.581  15.950  0.00  0.00    +0.000 C 
ATOM     12  C   UNL     1       6.366   4.036  14.537  0.00  0.00    +0.000 C 
ATOM     13  O   UNL     1       6.578   5.444  14.496  0.00  0.00    +0.000 OA
ATOM     14  C   UNL     1       5.423   6.183  14.881  0.00  0.00    +0.000 C 
ATOM     15  C   UNL     1       5.036   5.866  16.318  0.00  0.00    +0.000 C 
ENDBRANCH   7  10
BRANCH   1  19
ATOM     16  C   UNL     1       1.181   7.805  20.913  0.00  0.00    +0.000 A 
ATOM     17  N   UNL     1       2.189   7.967  20.047  0.00  0.00    +0.000 NA
ATOM     18  O   UNL     1       2.337   6.697  19.481  0.00  0.00    +0.000 OA
ATOM     19  C   UNL     1       1.390   5.907  20.064  0.00  0.00    +0.000 A 
ATOM     20  N   UNL     1       0.710   6.523  21.001  0.00  0.00    +0.000 NA
BRANCH  16  24
ATOM     21  C   UNL     1      -1.331  11.398  19.691  0.00  0.00    +0.000 A 
ATOM     22  C   UNL     1      -0.601  10.279  19.856  0.00  0.00    +0.000 A 
ATOM     23  N   UNL     1      -0.177   9.948  21.132  0.00  0.00    +0.000 N 
ATOM     24  C   UNL     1       0.550   8.910  21.656  0.00  0.00    +0.000 A 
ATOM     25  C   UNL     1       0.598   9.148  23.014  0.00  0.00    +0.000 A 
ATOM     26  N   UNL     1      -0.063  10.313  23.340  0.00  0.00    +0.000 NA
ATOM     27  C   UNL     1      -0.507  10.762  22.188  0.00  0.00    +0.000 A 
ATOM     28  C   UNL     1      -1.276  11.947  21.925  0.00  0.00    +0.000 A 
ATOM     29  N   UNL     1      -1.682  12.254  20.720  0.00  0.00    +0.000 NA
ENDBRANCH  16  24
ENDBRANCH   1  19
TORSDOF 3
ENDMDL
MODEL 4
REMARK VINA RESULT:      -8.2      1.312      2.116
REMARK  Name = 
REMARK  3 active torsions:
REMARK  status: ('A' for Active; 'I' for Inactive)
REMARK    1  A    between atoms: C_4  and  C_5
REMARK    2  A    between atoms: C_8  and  C_9
REMARK    3  A    between atoms: N_15  and  C_16
REMARK                            x       y       z     vdW  Elec       q    Type
REMARK                         _______ _______ _______ _____ _____    ______ ____
ROOT
ATOM      1  C   UNL     1       1.992   4.759  18.739  0.00  0.00    +0.000 C 
ATOM      2  C   UNL     1       2.404   3.797  19.895  0.00  0.00    +0.000 C 
ATOM      3  C   UNL     1       3.860   4.009  20.375  0.00  0.00    +0.000 C 
ATOM      4  C   UNL     1       4.757   4.194  19.214  0.00  0.00    +0.000 A 
ATOM      5  N   UNL     1       6.113   4.203  19.270  0.00  0.00    +0.000 NA
ATOM      6  N   UNL     1       6.559   4.448  18.044  0.00  0.00    +0.000 NA
ATOM      7  N   UNL     1       5.494   4.593  17.224  0.00  0.00    +0.000 N 
ATOM      8  C   UNL     1       4.334   4.450  17.930  0.00  0.00    +0.000 A 
ATOM      9  C   UNL     1       2.916   4.562  17.493  0.00  0.00    +0.000 C 
ENDROOT
BRANCH   7  10
ATOM     10  C   UNL     1       5.704   4.837  15.805  0.00  0.00    +0.000 C 
ATOM     11  C   UNL     1       5.132   3.700  14.949  0.00  0.00    +0.000 C 
ATOM     12  C   UNL     1       5.467   3.909  13.481  0.00  0.00    +0.000 C 
ATOM     13  O   UNL     1       6.873   4.058  13.300  0.00  0.00    +0.000 OA
ATOM     14  C   UNL     1       7.395   5.195  13.980  0.00  0.00    +0.000 C 
ATOM     15  C   UNL     1       7.184   5.069  15.481  0.00  0.00    +0.000 C 
ENDBRANCH   7  10
BRANCH   1  19
ATOM     16  C   UNL     1       1.598   8.013  20.116  0.00  0.00    +0.000 A 
ATOM     17  N   UNL     1       2.091   8.363  18.921  0.00  0.00    +0.000 NA
ATOM     18  O   UNL     1       2.389   7.135  18.322  0.00  0.00    +0.000 OA
ATOM     19  C   UNL     1       2.031   6.174  19.221  0.00  0.00    +0.000 A 
ATOM     20  N   UNL     1       1.614   6.667  20.363  0.00  0.00    +0.000 NA
BRANCH  16  24
ATOM     21  C   UNL     1      -1.381  11.429  19.711  0.00  0.00    +0.000 A 
ATOM     22  C   UNL     1      -0.539  10.381  19.634  0.00  0.00    +0.000 A 
ATOM     23  N   UNL     1       0.111   9.969  20.784  0.00  0.00    +0.000 N 
ATOM     24  C   UNL     1       1.000   8.964  21.069  0.00  0.00    +0.000 A 
ATOM     25  C   UNL     1       1.244   9.067  22.423  0.00  0.00    +0.000 A 
ATOM     26  N   UNL     1       0.545  10.116  22.978  0.00  0.00    +0.000 NA
ATOM     27  C   UNL     1      -0.116  10.632  21.966  0.00  0.00    +0.000 A 
ATOM     28  C   UNL     1      -1.018  11.751  21.960  0.00  0.00    +0.000 A 
ATOM     29  N   UNL     1      -1.637  12.135  20.874  0.00  0.00    +0.000 NA
ENDBRANCH  16  24
ENDBRANCH   1  19
TORSDOF 3
ENDMDL
MODEL 5
REMARK VINA RESULT:      -8.0      1.196      2.084
REMARK  Name = 
REMARK  3 active torsions:
REMARK  status: ('A' for Active; 'I' for Inactive)
REMARK    1  A    between atoms: C_4  and  C_5
REMARK    2  A    between atoms: C_8  and  C_9
REMARK    3  A    between atoms: N_15  and  C_16
REMARK                            x       y       z     vdW  Elec       q    Type
REMARK                         _______ _______ _______ _____ _____    ______ ____
ROOT
ATOM      1  C   UNL     1       3.306   5.160  18.240  0.00  0.00    +0.000 C 
ATOM      2  C   UNL     1       4.205   4.783  19.455  0.00  0.00    +0.000 C 
ATOM      3  C   UNL     1       5.575   5.504  19.448  0.00  0.00    +0.000 C 
ATOM      4  C   UNL     1       6.142   5.506  18.082  0.00  0.00    +0.000 A 
ATOM      5  N   UNL     1       7.408   5.875  17.764  0.00  0.00    +0.000 NA
ATOM      6  N   UNL     1       7.526   5.796  16.444  0.00  0.00    +0.000 NA
ATOM      7  N   UNL     1       6.344   5.381  15.936  0.00  0.00    +0.000 N 
ATOM      8  C   UNL     1       5.437   5.198  16.941  0.00  0.00    +0.000 A 
ATOM      9  C   UNL     1       4.007   4.794  16.890  0.00  0.00    +0.000 C 
ENDROOT
BRANCH   7  10
ATOM     10  C   UNL     1       6.207   5.176  14.502  0.00  0.00    +0.000 C 
ATOM     11  C   UNL     1       5.555   3.824  14.187  0.00  0.00    +0.000 C 
ATOM     12  C   UNL     1       5.532   3.572  12.689  0.00  0.00    +0.000 C 
ATOM     13  O   UNL     1       6.843   3.671  12.140  0.00  0.00    +0.000 OA
ATOM     14  C   UNL     1       7.408   4.968  12.303  0.00  0.00    +0.000 C 
ATOM     15  C   UNL     1       7.552   5.312  13.778  0.00  0.00    +0.000 C 
ENDBRANCH   7  10
BRANCH   1  19
ATOM     16  C   UNL     1       2.031   8.460  18.599  0.00  0.00    +0.000 A 
ATOM     17  N   UNL     1       2.565   8.587  17.377  0.00  0.00    +0.000 NA
ATOM     18  O   UNL     1       3.199   7.358  17.172  0.00  0.00    +0.000 OA
ATOM     19  C   UNL     1       2.968   6.617  18.294  0.00  0.00    +0.000 A 
ATOM     20  N   UNL     1       2.323   7.279  19.225  0.00  0.00    +0.000 NA
BRANCH  16  24
ATOM     21  C   UNL     1      -1.899  10.359  17.312  0.00  0.00    +0.000 A 
ATOM     22  C   UNL     1      -0.757   9.680  17.527  0.00  0.00    +0.000 A 
ATOM     23  N   UNL     1      -0.035   9.946  18.678  0.00  0.00    +0.000 N 
ATOM     24  C   UNL     1       1.129   9.453  19.209  0.00  0.00    +0.000 A 
ATOM     25  C   UNL     1       1.291  10.115  20.408  0.00  0.00    +0.000 A 
ATOM     26  N   UNL     1       0.271  11.016  20.623  0.00  0.00    +0.000 NA
ATOM     27  C   UNL     1      -0.498  10.887  19.565  0.00  0.00    +0.000 A 
ATOM     28  C   UNL     1      -1.719  11.579  19.255  0.00  0.00    +0.000 A 
ATOM     29  N   UNL     1      -2.403  11.321  18.170  0.00  0.00    +0.000 NA
ENDBRANCH  16  24
ENDBRANCH   1  19
TORSDOF 3
ENDMDL
MODEL 6
REMARK VINA RESULT:      -7.7      4.196      9.969
REMARK  Name = 
REMARK  3 active torsions:
REMARK  status: ('A' for Active; 'I' for Inactive)
REMARK    1  A    between atoms: C_4  and  C_5
REMARK    2  A    between atoms: C_8  and  C_9
REMARK    3  A    between atoms: N_15  and  C_16
REMARK                            x       y       z     vdW  Elec       q    Type
REMARK                         _______ _______ _______ _____ _____    ______ ____
ROOT
ATOM      1  C   UNL     1       0.531  10.322  18.428  0.00  0.00    +0.000 C 
ATOM      2  C   UNL     1       1.538  11.449  18.049  0.00  0.00    +0.000 C 
ATOM      3  C   UNL     1       2.141  12.168  19.281  0.00  0.00    +0.000 C 
ATOM      4  C   UNL     1       1.088  12.426  20.286  0.00  0.00    +0.000 A 
ATOM      5  N   UNL     1       1.233  13.209  21.384  0.00  0.00    +0.000 NA
ATOM      6  N   UNL     1       0.096  13.151  22.067  0.00  0.00    +0.000 NA
ATOM      7  N   UNL     1      -0.757  12.339  21.404  0.00  0.00    +0.000 N 
ATOM      8  C   UNL     1      -0.162  11.850  20.277  0.00  0.00    +0.000 A 
ATOM      9  C   UNL     1      -0.667  10.897  19.253  0.00  0.00    +0.000 C 
ENDROOT
BRANCH   7  10
ATOM     10  C   UNL     1      -2.100  12.126  21.923  0.00  0.00    +0.000 C 
ATOM     11  C   UNL     1      -3.143  12.916  21.123  0.00  0.00    +0.000 C 
ATOM     12  C   UNL     1      -4.520  12.782  21.750  0.00  0.00    +0.000 C 
ATOM     13  O   UNL     1      -4.491  13.174  23.120  0.00  0.00    +0.000 OA
ATOM     14  C   UNL     1      -3.629  12.356  23.905  0.00  0.00    +0.000 C 
ATOM     15  C   UNL     1      -2.193  12.463  23.416  0.00  0.00    +0.000 C 
ENDBRANCH   7  10
BRANCH   1  19
ATOM     16  C   UNL     1       2.147   7.457  19.778  0.00  0.00    +0.000 A 
ATOM     17  N   UNL     1       1.453   7.821  20.864  0.00  0.00    +0.000 NA
ATOM     18  O   UNL     1       0.850   9.021  20.474  0.00  0.00    +0.000 OA
ATOM     19  C   UNL     1       1.240   9.244  19.186  0.00  0.00    +0.000 A 
ATOM     20  N   UNL     1       2.095   8.353  18.745  0.00  0.00    +0.000 NA
BRANCH  16  24
ATOM     21  C   UNL     1       1.000   3.145  20.673  0.00  0.00    +0.000 A 
ATOM     22  C   UNL     1       1.146   4.465  20.455  0.00  0.00    +0.000 A 
ATOM     23  N   UNL     1       2.360   4.927  19.979  0.00  0.00    +0.000 N 
ATOM     24  C   UNL     1       2.844   6.166  19.643  0.00  0.00    +0.000 A 
ATOM     25  C   UNL     1       4.131   5.945  19.197  0.00  0.00    +0.000 A 
ATOM     26  N   UNL     1       4.461   4.609  19.265  0.00  0.00    +0.000 NA
ATOM     27  C   UNL     1       3.379   4.036  19.740  0.00  0.00    +0.000 A 
ATOM     28  C   UNL     1       3.147   2.644  20.013  0.00  0.00    +0.000 A 
ATOM     29  N   UNL     1       1.996   2.208  20.457  0.00  0.00    +0.000 NA
ENDBRANCH  16  24
ENDBRANCH   1  19
TORSDOF 3
ENDMDL
MODEL 7
REMARK VINA RESULT:      -7.7      1.320      1.777
REMARK  Name = 
REMARK  3 active torsions:
REMARK  status: ('A' for Active; 'I' for Inactive)
REMARK    1  A    between atoms: C_4  and  C_5
REMARK    2  A    between atoms: C_8  and  C_9
REMARK    3  A    between atoms: N_15  and  C_16
REMARK                            x       y       z     vdW  Elec       q    Type
REMARK                         _______ _______ _______ _____ _____    ______ ____
ROOT
ATOM      1  C   UNL     1       4.663   4.135  18.443  0.00  0.00    +0.000 C 
ATOM      2  C   UNL     1       5.811   4.722  19.319  0.00  0.00    +0.000 C 
ATOM      3  C   UNL     1       6.559   5.894  18.638  0.00  0.00    +0.000 C 
ATOM      4  C   UNL     1       6.801   5.585  17.213  0.00  0.00    +0.000 A 
ATOM      5  N   UNL     1       7.600   6.303  16.384  0.00  0.00    +0.000 NA
ATOM      6  N   UNL     1       7.521   5.751  15.179  0.00  0.00    +0.000 NA
ATOM      7  N   UNL     1       6.680   4.695  15.249  0.00  0.00    +0.000 N 
ATOM      8  C   UNL     1       6.194   4.564  16.519  0.00  0.00    +0.000 A 
ATOM      9  C   UNL     1       5.216   3.596  17.083  0.00  0.00    +0.000 C 
ENDROOT
BRANCH   7  10
ATOM     10  C   UNL     1       6.439   3.885  14.064  0.00  0.00    +0.000 C 
ATOM     11  C   UNL     1       7.375   4.280  12.915  0.00  0.00    +0.000 C 
ATOM     12  C   UNL     1       7.029   3.512  11.650  0.00  0.00    +0.000 C 
ATOM     13  O   UNL     1       5.658   3.694  11.307  0.00  0.00    +0.000 OA
ATOM     14  C   UNL     1       4.773   3.203  12.309  0.00  0.00    +0.000 C 
ATOM     15  C   UNL     1       4.974   3.951  13.619  0.00  0.00    +0.000 C 
ENDBRANCH   7  10
BRANCH   1  19
ATOM     16  C   UNL     1       2.394   6.871  18.346  0.00  0.00    +0.000 A 
ATOM     17  N   UNL     1       1.520   5.883  18.113  0.00  0.00    +0.000 NA
ATOM     18  O   UNL     1       2.333   4.748  18.023  0.00  0.00    +0.000 OA
ATOM     19  C   UNL     1       3.612   5.178  18.223  0.00  0.00    +0.000 A 
ATOM     20  N   UNL     1       3.705   6.480  18.347  0.00  0.00    +0.000 NA
BRANCH  16  24
ATOM     21  C   UNL     1       0.903   8.937  22.117  0.00  0.00    +0.000 A 
ATOM     22  C   UNL     1       1.370   8.162  21.120  0.00  0.00    +0.000 A 
ATOM     23  N   UNL     1       1.549   8.728  19.870  0.00  0.00    +0.000 N 
ATOM     24  C   UNL     1       2.003   8.256  18.665  0.00  0.00    +0.000 A 
ATOM     25  C   UNL     1       1.971   9.341  17.813  0.00  0.00    +0.000 A 
ATOM     26  N   UNL     1       1.494  10.463  18.453  0.00  0.00    +0.000 NA
ATOM     27  C   UNL     1       1.249  10.055  19.678  0.00  0.00    +0.000 A 
ATOM     28  C   UNL     1       0.741  10.810  20.790  0.00  0.00    +0.000 A 
ATOM     29  N   UNL     1       0.579  10.275  21.973  0.00  0.00    +0.000 NA
ENDBRANCH  16  24
ENDBRANCH   1  19
TORSDOF 3
ENDMDL
MODEL 8
REMARK VINA RESULT:      -7.7      1.275      1.677
REMARK  Name = 
REMARK  3 active torsions:
REMARK  status: ('A' for Active; 'I' for Inactive)
REMARK    1  A    between atoms: C_4  and  C_5
REMARK    2  A    between atoms: C_8  and  C_9
REMARK    3  A    between atoms: N_15  and  C_16
REMARK                            x       y       z     vdW  Elec       q    Type
REMARK                         _______ _______ _______ _____ _____    ______ ____
ROOT
ATOM      1  C   UNL     1       4.115   3.509  18.371  0.00  0.00    +0.000 C 
ATOM      2  C   UNL     1       5.215   3.487  19.475  0.00  0.00    +0.000 C 
ATOM      3  C   UNL     1       6.122   4.741  19.456  0.00  0.00    +0.000 C 
ATOM      4  C   UNL     1       6.479   5.090  18.064  0.00  0.00    +0.000 A 
ATOM      5  N   UNL     1       7.415   6.006  17.706  0.00  0.00    +0.000 NA
ATOM      6  N   UNL     1       7.411   6.080  16.380  0.00  0.00    +0.000 NA
ATOM      7  N   UNL     1       6.481   5.219  15.909  0.00  0.00    +0.000 N 
ATOM      8  C   UNL     1       5.861   4.582  16.946  0.00  0.00    +0.000 A 
ATOM      9  C   UNL     1       4.754   3.588  16.945  0.00  0.00    +0.000 C 
ENDROOT
BRANCH   7  10
ATOM     10  C   UNL     1       6.292   5.076  14.473  0.00  0.00    +0.000 C 
ATOM     11  C   UNL     1       5.684   3.713  14.120  0.00  0.00    +0.000 C 
ATOM     12  C   UNL     1       5.608   3.531  12.613  0.00  0.00    +0.000 C 
ATOM     13  O   UNL     1       6.889   3.713  12.017  0.00  0.00    +0.000 OA
ATOM     14  C   UNL     1       7.406   5.024  12.220  0.00  0.00    +0.000 C 
ATOM     15  C   UNL     1       7.598   5.304  13.703  0.00  0.00    +0.000 C 
ENDBRANCH   7  10
BRANCH   1  19
ATOM     16  C   UNL     1       2.329   6.552  18.811  0.00  0.00    +0.000 A 
ATOM     17  N   UNL     1       1.842   5.884  19.865  0.00  0.00    +0.000 NA
ATOM     18  O   UNL     1       2.406   4.611  19.729  0.00  0.00    +0.000 OA
ATOM     19  C   UNL     1       3.183   4.655  18.609  0.00  0.00    +0.000 A 
ATOM     20  N   UNL     1       3.105   5.799  17.972  0.00  0.00    +0.000 NA
BRANCH  16  24
ATOM     21  C   UNL     1       0.501   9.899  21.293  0.00  0.00    +0.000 A 
ATOM     22  C   UNL     1       1.013   8.792  20.724  0.00  0.00    +0.000 A 
ATOM     23  N   UNL     1       1.540   8.888  19.448  0.00  0.00    +0.000 N 
ATOM     24  C   UNL     1       2.136   7.996  18.592  0.00  0.00    +0.000 A 
ATOM     25  C   UNL     1       2.472   8.733  17.475  0.00  0.00    +0.000 A 
ATOM     26  N   UNL     1       2.085  10.048  17.609  0.00  0.00    +0.000 NA
ATOM     27  C   UNL     1       1.528  10.099  18.798  0.00  0.00    +0.000 A 
ATOM     28  C   UNL     1       0.949  11.230  19.470  0.00  0.00    +0.000 A 
ATOM     29  N   UNL     1       0.458  11.139  20.679  0.00  0.00    +0.000 NA
ENDBRANCH  16  24
ENDBRANCH   1  19
TORSDOF 3
ENDMDL
MODEL 9
REMARK VINA RESULT:      -7.6      1.235      1.756
REMARK  Name = 
REMARK  3 active torsions:
REMARK  status: ('A' for Active; 'I' for Inactive)
REMARK    1  A    between atoms: C_4  and  C_5
REMARK    2  A    between atoms: C_8  and  C_9
REMARK    3  A    between atoms: N_15  and  C_16
REMARK                            x       y       z     vdW  Elec       q    Type
REMARK                         _______ _______ _______ _____ _____    ______ ____
ROOT
ATOM      1  C   UNL     1       2.187   5.209  18.061  0.00  0.00    +0.000 C 
ATOM      2  C   UNL     1       2.131   4.505  19.451  0.00  0.00    +0.000 C 
ATOM      3  C   UNL     1       3.413   4.712  20.292  0.00  0.00    +0.000 C 
ATOM      4  C   UNL     1       4.611   4.565  19.438  0.00  0.00    +0.000 A 
ATOM      5  N   UNL     1       5.888   4.487  19.892  0.00  0.00    +0.000 NA
ATOM      6  N   UNL     1       6.683   4.416  18.832  0.00  0.00    +0.000 NA
ATOM      7  N   UNL     1       5.915   4.450  17.721  0.00  0.00    +0.000 N 
ATOM      8  C   UNL     1       4.597   4.555  18.063  0.00  0.00    +0.000 A 
ATOM      9  C   UNL     1       3.384   4.669  17.210  0.00  0.00    +0.000 C 
ENDROOT
BRANCH   7  10
ATOM     10  C   UNL     1       6.538   4.352  16.409  0.00  0.00    +0.000 C 
ATOM     11  C   UNL     1       6.898   5.736  15.854  0.00  0.00    +0.000 C 
ATOM     12  C   UNL     1       7.433   5.627  14.437  0.00  0.00    +0.000 C 
ATOM     13  O   UNL     1       6.508   4.941  13.598  0.00  0.00    +0.000 OA
ATOM     14  C   UNL     1       6.270   3.603  14.025  0.00  0.00    +0.000 C 
ATOM     15  C   UNL     1       5.660   3.582  15.417  0.00  0.00    +0.000 C 
ENDBRANCH   7  10
BRANCH   1  19
ATOM     16  C   UNL     1       1.898   8.697  18.686  0.00  0.00    +0.000 A 
ATOM     17  N   UNL     1       2.559   8.760  17.523  0.00  0.00    +0.000 NA
ATOM     18  O   UNL     1       2.825   7.418  17.230  0.00  0.00    +0.000 OA
ATOM     19  C   UNL     1       2.283   6.690  18.248  0.00  0.00    +0.000 A 
ATOM     20  N   UNL     1       1.774   7.435  19.200  0.00  0.00    +0.000 NA
BRANCH  16  24
ATOM     21  C   UNL     1       0.255   9.465  22.860  0.00  0.00    +0.000 A 
ATOM     22  C   UNL     1       0.805   9.058  21.700  0.00  0.00    +0.000 A 
ATOM     23  N   UNL     1       0.803   9.931  20.625  0.00  0.00    +0.000 N 
ATOM     24  C   UNL     1       1.270   9.859  19.338  0.00  0.00    +0.000 A 
ATOM     25  C   UNL     1       0.984  11.088  18.779  0.00  0.00    +0.000 A 
ATOM     26  N   UNL     1       0.339  11.908  19.678  0.00  0.00    +0.000 NA
ATOM     27  C   UNL     1       0.246  11.179  20.767  0.00  0.00    +0.000 A 
ATOM     28  C   UNL     1      -0.333  11.530  22.034  0.00  0.00    +0.000 A 
ATOM     29  N   UNL     1      -0.324  10.707  23.051  0.00  0.00    +0.000 NA
ENDBRANCH  16  24
ENDBRANCH   1  19
TORSDOF 3
ENDMDL
