MODEL 1
REMARK VINA RESULT:      -8.6      0.000      0.000
REMARK  Name = 
REMARK  5 active torsions:
REMARK  status: ('A' for Active; 'I' for Inactive)
REMARK    1  A    between atoms: C_1  and  C_2
REMARK    2  A    between atoms: C_4  and  N_5
REMARK    3  A    between atoms: N_5  and  C_6
REMARK    4  A    between atoms: N_9  and  C_10
REMARK    5  A    between atoms: C_10  and  C_11
REMARK                            x       y       z     vdW  Elec       q    Type
REMARK                         _______ _______ _______ _____ _____    ______ ____
ROOT
ATOM      1  C   UNL     1       2.441   4.428  18.390  0.00  0.00    +0.000 C 
ATOM      2  C   UNL     1       2.423   5.867  17.889  0.00  0.00    +0.000 C 
ATOM      3  C   UNL     1       2.540   6.924  18.982  0.00  0.00    +0.000 C 
ATOM      4  N   UNL     1       1.606   6.715  20.100  0.00  0.00    +0.000 NA
ATOM      5  C   UNL     1       1.758   5.364  20.668  0.00  0.00    +0.000 C 
ATOM      6  C   UNL     1       1.588   4.247  19.642  0.00  0.00    +0.000 C 
ENDROOT
BRANCH   1   7
ATOM      7  N   UNL     1       3.808   3.910  18.572  0.00  0.00    +0.000 N 
ATOM      8  H   UNL     1       3.882   2.964  18.961  0.00  0.00    +0.000 HD
BRANCH   7  12
ATOM      9  C   UNL     1       6.239   3.821  14.226  0.00  0.00    +0.000 C 
ATOM     10  C   UNL     1       6.188   4.266  15.673  0.00  0.00    +0.000 A 
ATOM     11  C   UNL     1       4.911   4.012  16.402  0.00  0.00    +0.000 A 
ATOM     12  C   UNL     1       4.900   4.215  17.735  0.00  0.00    +0.000 A 
ATOM     13  N   UNL     1       6.068   4.792  18.303  0.00  0.00    +0.000 N 
ATOM     14  N   UNL     1       6.313   5.138  19.600  0.00  0.00    +0.000 NA
ATOM     15  C   UNL     1       7.529   5.690  19.507  0.00  0.00    +0.000 A 
ATOM     16  N   UNL     1       8.097   5.682  18.271  0.00  0.00    +0.000 NA
ATOM     17  C   UNL     1       7.189   5.107  17.517  0.00  0.00    +0.000 A 
ATOM     18  N   UNL     1       7.252   4.799  16.187  0.00  0.00    +0.000 NA
ENDBRANCH   7  12
ENDBRANCH   1   7
BRANCH   4  19
ATOM     19  C   UNL     1       1.850   7.708  21.174  0.00  0.00    +0.000 C 
BRANCH  19  20
ATOM     20  C   UNL     1       0.876   8.871  21.212  0.00  0.00    +0.000 A 
ATOM     21  C   UNL     1       0.644   9.639  20.057  0.00  0.00    +0.000 A 
ATOM     22  C   UNL     1      -0.195  10.758  20.101  0.00  0.00    +0.000 A 
ATOM     23  C   UNL     1      -0.808  11.107  21.298  0.00  0.00    +0.000 A 
ATOM     24  F   UNL     1      -1.595  12.193  21.340  0.00  0.00    +0.000 F 
ATOM     25  C   UNL     1      -0.598  10.349  22.442  0.00  0.00    +0.000 A 
ATOM     26  F   UNL     1      -1.192  10.690  23.595  0.00  0.00    +0.000 F 
ATOM     27  C   UNL     1       0.238   9.234  22.408  0.00  0.00    +0.000 A 
ENDBRANCH  19  20
ENDBRANCH   4  19
TORSDOF 4
ENDMDL
MODEL 2
REMARK VINA RESULT:      -8.5      0.527      1.285
REMARK  Name = 
REMARK  5 active torsions:
REMARK  status: ('A' for Active; 'I' for Inactive)
REMARK    1  A    between atoms: C_1  and  C_2
REMARK    2  A    between atoms: C_4  and  N_5
REMARK    3  A    between atoms: N_5  and  C_6
REMARK    4  A    between atoms: N_9  and  C_10
REMARK    5  A    between atoms: C_10  and  C_11
REMARK                            x       y       z     vdW  Elec       q    Type
REMARK                         _______ _______ _______ _____ _____    ______ ____
ROOT
ATOM      1  C   UNL     1       2.415   4.449  18.428  0.00  0.00    +0.000 C 
ATOM      2  C   UNL     1       2.446   5.903  17.975  0.00  0.00    +0.000 C 
ATOM      3  C   UNL     1       2.611   6.918  19.102  0.00  0.00    +0.000 C 
ATOM      4  N   UNL     1       1.679   6.707  20.220  0.00  0.00    +0.000 NA
ATOM      5  C   UNL     1       1.784   5.333  20.743  0.00  0.00    +0.000 C 
ATOM      6  C   UNL     1       1.566   4.257  19.682  0.00  0.00    +0.000 C 
ENDROOT
BRANCH   1   7
ATOM      7  N   UNL     1       3.763   3.875  18.582  0.00  0.00    +0.000 N 
ATOM      8  H   UNL     1       3.804   2.911  18.930  0.00  0.00    +0.000 HD
BRANCH   7  12
ATOM      9  C   UNL     1       6.228   3.764  14.255  0.00  0.00    +0.000 C 
ATOM     10  C   UNL     1       6.165   4.216  15.699  0.00  0.00    +0.000 A 
ATOM     11  C   UNL     1       4.883   3.966  16.420  0.00  0.00    +0.000 A 
ATOM     12  C   UNL     1       4.862   4.175  17.751  0.00  0.00    +0.000 A 
ATOM     13  N   UNL     1       6.025   4.755  18.325  0.00  0.00    +0.000 N 
ATOM     14  N   UNL     1       6.260   5.107  19.623  0.00  0.00    +0.000 NA
ATOM     15  C   UNL     1       7.477   5.658  19.537  0.00  0.00    +0.000 A 
ATOM     16  N   UNL     1       8.054   5.644  18.306  0.00  0.00    +0.000 NA
ATOM     17  C   UNL     1       7.153   5.065  17.547  0.00  0.00    +0.000 A 
ATOM     18  N   UNL     1       7.225   4.751  16.219  0.00  0.00    +0.000 NA
ENDBRANCH   7  12
ENDBRANCH   1   7
BRANCH   4  19
ATOM     19  C   UNL     1       1.968   7.654  21.325  0.00  0.00    +0.000 C 
BRANCH  19  20
ATOM     20  C   UNL     1       1.000   8.815  21.450  0.00  0.00    +0.000 A 
ATOM     21  C   UNL     1       0.517   9.203  22.713  0.00  0.00    +0.000 A 
ATOM     22  C   UNL     1      -0.433  10.224  22.832  0.00  0.00    +0.000 A 
ATOM     23  C   UNL     1      -0.897  10.863  21.689  0.00  0.00    +0.000 A 
ATOM     24  F   UNL     1      -1.823  11.826  21.806  0.00  0.00    +0.000 F 
ATOM     25  C   UNL     1      -0.418  10.499  20.437  0.00  0.00    +0.000 A 
ATOM     26  F   UNL     1      -0.869  11.118  19.337  0.00  0.00    +0.000 F 
ATOM     27  C   UNL     1       0.526   9.482  20.309  0.00  0.00    +0.000 A 
ENDBRANCH  19  20
ENDBRANCH   4  19
TORSDOF 4
ENDMDL
MODEL 3
REMARK VINA RESULT:      -8.4      0.953      1.111
REMARK  Name = 
REMARK  5 active torsions:
REMARK  status: ('A' for Active; 'I' for Inactive)
REMARK    1  A    between atoms: C_1  and  C_2
REMARK    2  A    between atoms: C_4  and  N_5
REMARK    3  A    between atoms: N_5  and  C_6
REMARK    4  A    between atoms: N_9  and  C_10
REMARK    5  A    between atoms: C_10  and  C_11
REMARK                            x       y       z     vdW  Elec       q    Type
REMARK                         _______ _______ _______ _____ _____    ______ ____
ROOT
ATOM      1  C   UNL     1       2.837   3.216  18.229  0.00  0.00    +0.000 C 
ATOM      2  C   UNL     1       2.419   4.446  17.434  0.00  0.00    +0.000 C 
ATOM      3  C   UNL     1       2.698   5.777  18.125  0.00  0.00    +0.000 C 
ATOM      4  N   UNL     1       2.216   5.827  19.515  0.00  0.00    +0.000 NA
ATOM      5  C   UNL     1       2.765   4.709  20.303  0.00  0.00    +0.000 C 
ATOM      6  C   UNL     1       2.469   3.336  19.706  0.00  0.00    +0.000 C 
ENDROOT
BRANCH   1   7
ATOM      7  N   UNL     1       4.258   2.876  18.040  0.00  0.00    +0.000 N 
ATOM      8  H   UNL     1       4.478   1.875  17.992  0.00  0.00    +0.000 HD
BRANCH   7  12
ATOM      9  C   UNL     1       6.528   4.241  13.824  0.00  0.00    +0.000 C 
ATOM     10  C   UNL     1       6.348   4.425  15.315  0.00  0.00    +0.000 A 
ATOM     11  C   UNL     1       5.238   3.657  15.952  0.00  0.00    +0.000 A 
ATOM     12  C   UNL     1       5.175   3.646  17.298  0.00  0.00    +0.000 A 
ATOM     13  N   UNL     1       6.088   4.489  17.987  0.00  0.00    +0.000 N 
ATOM     14  N   UNL     1       6.219   4.701  19.328  0.00  0.00    +0.000 NA
ATOM     15  C   UNL     1       7.179   5.633  19.363  0.00  0.00    +0.000 A 
ATOM     16  N   UNL     1       7.702   5.997  18.161  0.00  0.00    +0.000 NA
ATOM     17  C   UNL     1       7.031   5.270  17.298  0.00  0.00    +0.000 A 
ATOM     18  N   UNL     1       7.178   5.200  15.941  0.00  0.00    +0.000 NA
ENDBRANCH   7  12
ENDBRANCH   1   7
BRANCH   4  19
ATOM     19  C   UNL     1       2.618   7.100  20.160  0.00  0.00    +0.000 C 
BRANCH  19  20
ATOM     20  C   UNL     1       1.524   8.146  20.263  0.00  0.00    +0.000 A 
ATOM     21  C   UNL     1       1.307   9.052  19.208  0.00  0.00    +0.000 A 
ATOM     22  C   UNL     1       0.350  10.067  19.324  0.00  0.00    +0.000 A 
ATOM     23  C   UNL     1      -0.396  10.173  20.491  0.00  0.00    +0.000 A 
ATOM     24  F   UNL     1      -1.297  11.160  20.605  0.00  0.00    +0.000 F 
ATOM     25  C   UNL     1      -0.202   9.276  21.533  0.00  0.00    +0.000 A 
ATOM     26  F   UNL     1      -0.924   9.383  22.657  0.00  0.00    +0.000 F 
ATOM     27  C   UNL     1       0.751   8.264  21.428  0.00  0.00    +0.000 A 
ENDBRANCH  19  20
ENDBRANCH   4  19
TORSDOF 4
ENDMDL
MODEL 4
REMARK VINA RESULT:      -8.3      1.717      2.415
REMARK  Name = 
REMARK  5 active torsions:
REMARK  status: ('A' for Active; 'I' for Inactive)
REMARK    1  A    between atoms: C_1  and  C_2
REMARK    2  A    between atoms: C_4  and  N_5
REMARK    3  A    between atoms: N_5  and  C_6
REMARK    4  A    between atoms: N_9  and  C_10
REMARK    5  A    between atoms: C_10  and  C_11
REMARK                            x       y       z     vdW  Elec       q    Type
REMARK                         _______ _______ _______ _____ _____    ______ ____
ROOT
ATOM      1  C   UNL     1       3.137   2.883  17.711  0.00  0.00    +0.000 C 
ATOM      2  C   UNL     1       2.657   4.255  17.255  0.00  0.00    +0.000 C 
ATOM      3  C   UNL     1       2.728   5.342  18.323  0.00  0.00    +0.000 C 
ATOM      4  N   UNL     1       2.125   4.943  19.605  0.00  0.00    +0.000 NA
ATOM      5  C   UNL     1       2.723   3.691  20.101  0.00  0.00    +0.000 C 
ATOM      6  C   UNL     1       2.632   2.535  19.108  0.00  0.00    +0.000 C 
ENDROOT
BRANCH   1   7
ATOM      7  N   UNL     1       4.597   2.728  17.597  0.00  0.00    +0.000 N 
ATOM      8  H   UNL     1       4.939   1.769  17.474  0.00  0.00    +0.000 HD
BRANCH   7  12
ATOM      9  C   UNL     1       6.955   4.746  13.702  0.00  0.00    +0.000 C 
ATOM     10  C   UNL     1       6.655   4.764  15.186  0.00  0.00    +0.000 A 
ATOM     11  C   UNL     1       5.609   3.814  15.666  0.00  0.00    +0.000 A 
ATOM     12  C   UNL     1       5.459   3.668  16.997  0.00  0.00    +0.000 A 
ATOM     13  N   UNL     1       6.214   4.542  17.825  0.00  0.00    +0.000 N 
ATOM     14  N   UNL     1       6.228   4.639  19.186  0.00  0.00    +0.000 NA
ATOM     15  C   UNL     1       7.061   5.670  19.375  0.00  0.00    +0.000 A 
ATOM     16  N   UNL     1       7.613   6.205  18.253  0.00  0.00    +0.000 NA
ATOM     17  C   UNL     1       7.096   5.491  17.281  0.00  0.00    +0.000 A 
ATOM     18  N   UNL     1       7.340   5.568  15.938  0.00  0.00    +0.000 NA
ENDBRANCH   7  12
ENDBRANCH   1   7
BRANCH   4  19
ATOM     19  C   UNL     1       2.328   5.999  20.626  0.00  0.00    +0.000 C 
BRANCH  19  20
ATOM     20  C   UNL     1       1.857   7.384  20.225  0.00  0.00    +0.000 A 
ATOM     21  C   UNL     1       1.091   8.158  21.116  0.00  0.00    +0.000 A 
ATOM     22  C   UNL     1       0.588   9.406  20.728  0.00  0.00    +0.000 A 
ATOM     23  C   UNL     1       0.857   9.885  19.452  0.00  0.00    +0.000 A 
ATOM     24  F   UNL     1       0.356  11.071  19.078  0.00  0.00    +0.000 F 
ATOM     25  C   UNL     1       1.624   9.137  18.568  0.00  0.00    +0.000 A 
ATOM     26  F   UNL     1       1.879   9.603  17.338  0.00  0.00    +0.000 F 
ATOM     27  C   UNL     1       2.125   7.892  18.944  0.00  0.00    +0.000 A 
ENDBRANCH  19  20
ENDBRANCH   4  19
TORSDOF 4
ENDMDL
MODEL 5
REMARK VINA RESULT:      -8.3      1.426      1.894
REMARK  Name = 
REMARK  5 active torsions:
REMARK  status: ('A' for Active; 'I' for Inactive)
REMARK    1  A    between atoms: C_1  and  C_2
REMARK    2  A    between atoms: C_4  and  N_5
REMARK    3  A    between atoms: N_5  and  C_6
REMARK    4  A    between atoms: N_9  and  C_10
REMARK    5  A    between atoms: C_10  and  C_11
REMARK                            x       y       z     vdW  Elec       q    Type
REMARK                         _______ _______ _______ _____ _____    ______ ____
ROOT
ATOM      1  C   UNL     1       3.193   2.971  17.802  0.00  0.00    +0.000 C 
ATOM      2  C   UNL     1       2.695   4.254  17.148  0.00  0.00    +0.000 C 
ATOM      3  C   UNL     1       2.833   5.504  18.012  0.00  0.00    +0.000 C 
ATOM      4  N   UNL     1       2.303   5.335  19.374  0.00  0.00    +0.000 NA
ATOM      5  C   UNL     1       2.921   4.176  20.041  0.00  0.00    +0.000 C 
ATOM      6  C   UNL     1       2.767   2.871  19.264  0.00  0.00    +0.000 C 
ENDROOT
BRANCH   1   7
ATOM      7  N   UNL     1       4.643   2.777  17.635  0.00  0.00    +0.000 N 
ATOM      8  H   UNL     1       4.953   1.811  17.480  0.00  0.00    +0.000 HD
BRANCH   7  12
ATOM      9  C   UNL     1       6.981   4.770  13.715  0.00  0.00    +0.000 C 
ATOM     10  C   UNL     1       6.701   4.788  15.203  0.00  0.00    +0.000 A 
ATOM     11  C   UNL     1       5.647   3.854  15.694  0.00  0.00    +0.000 A 
ATOM     12  C   UNL     1       5.512   3.705  17.027  0.00  0.00    +0.000 A 
ATOM     13  N   UNL     1       6.292   4.564  17.847  0.00  0.00    +0.000 N 
ATOM     14  N   UNL     1       6.326   4.657  19.208  0.00  0.00    +0.000 NA
ATOM     15  C   UNL     1       7.178   5.674  19.388  0.00  0.00    +0.000 A 
ATOM     16  N   UNL     1       7.723   6.204  18.261  0.00  0.00    +0.000 NA
ATOM     17  C   UNL     1       7.181   5.501  17.294  0.00  0.00    +0.000 A 
ATOM     18  N   UNL     1       7.408   5.578  15.949  0.00  0.00    +0.000 NA
ENDBRANCH   7  12
ENDBRANCH   1   7
BRANCH   4  19
ATOM     19  C   UNL     1       2.570   6.545  20.190  0.00  0.00    +0.000 C 
BRANCH  19  20
ATOM     20  C   UNL     1       1.895   7.814  19.703  0.00  0.00    +0.000 A 
ATOM     21  C   UNL     1       2.118   8.278  18.394  0.00  0.00    +0.000 A 
ATOM     22  C   UNL     1       1.560   9.486  17.960  0.00  0.00    +0.000 A 
ATOM     23  C   UNL     1       0.774  10.229  18.831  0.00  0.00    +0.000 A 
ATOM     24  F   UNL     1       0.259  11.396  18.417  0.00  0.00    +0.000 F 
ATOM     25  C   UNL     1       0.535   9.775  20.122  0.00  0.00    +0.000 A 
ATOM     26  F   UNL     1      -0.224  10.495  20.960  0.00  0.00    +0.000 F 
ATOM     27  C   UNL     1       1.089   8.574  20.564  0.00  0.00    +0.000 A 
ENDBRANCH  19  20
ENDBRANCH   4  19
TORSDOF 4
ENDMDL
MODEL 6
REMARK VINA RESULT:      -8.1      1.649      3.140
REMARK  Name = 
REMARK  5 active torsions:
REMARK  status: ('A' for Active; 'I' for Inactive)
REMARK    1  A    between atoms: C_1  and  C_2
REMARK    2  A    between atoms: C_4  and  N_5
REMARK    3  A    between atoms: N_5  and  C_6
REMARK    4  A    between atoms: N_9  and  C_10
REMARK    5  A    between atoms: C_10  and  C_11
REMARK                            x       y       z     vdW  Elec       q    Type
REMARK                         _______ _______ _______ _____ _____    ______ ____
ROOT
ATOM      1  C   UNL     1       4.000   3.625  18.731  0.00  0.00    +0.000 C 
ATOM      2  C   UNL     1       3.189   4.030  17.506  0.00  0.00    +0.000 C 
ATOM      3  C   UNL     1       3.122   5.534  17.256  0.00  0.00    +0.000 C 
ATOM      4  N   UNL     1       2.747   6.309  18.449  0.00  0.00    +0.000 NA
ATOM      5  C   UNL     1       3.650   6.012  19.575  0.00  0.00    +0.000 C 
ATOM      6  C   UNL     1       3.720   4.528  19.928  0.00  0.00    +0.000 C 
ENDROOT
BRANCH   1   7
ATOM      7  N   UNL     1       5.440   3.517  18.445  0.00  0.00    +0.000 N 
ATOM      8  H   UNL     1       5.789   2.574  18.242  0.00  0.00    +0.000 HD
BRANCH   7  12
ATOM      9  C   UNL     1       8.007   7.782  18.308  0.00  0.00    +0.000 C 
ATOM     10  C   UNL     1       7.500   6.553  17.585  0.00  0.00    +0.000 A 
ATOM     11  C   UNL     1       6.838   5.513  18.425  0.00  0.00    +0.000 A 
ATOM     12  C   UNL     1       6.205   4.505  17.792  0.00  0.00    +0.000 A 
ATOM     13  N   UNL     1       6.351   4.446  16.380  0.00  0.00    +0.000 N 
ATOM     14  N   UNL     1       5.859   3.526  15.502  0.00  0.00    +0.000 NA
ATOM     15  C   UNL     1       6.379   3.951  14.344  0.00  0.00    +0.000 A 
ATOM     16  N   UNL     1       7.121   5.089  14.404  0.00  0.00    +0.000 NA
ATOM     17  C   UNL     1       7.093   5.410  15.677  0.00  0.00    +0.000 A 
ATOM     18  N   UNL     1       7.641   6.498  16.298  0.00  0.00    +0.000 NA
ENDBRANCH   7  12
ENDBRANCH   1   7
BRANCH   4  19
ATOM     19  C   UNL     1       2.811   7.763  18.166  0.00  0.00    +0.000 C 
BRANCH  19  20
ATOM     20  C   UNL     1       1.749   8.602  18.852  0.00  0.00    +0.000 A 
ATOM     21  C   UNL     1       1.539   8.485  20.238  0.00  0.00    +0.000 A 
ATOM     22  C   UNL     1       0.513   9.199  20.868  0.00  0.00    +0.000 A 
ATOM     23  C   UNL     1      -0.301  10.035  20.114  0.00  0.00    +0.000 A 
ATOM     24  F   UNL     1      -1.296  10.701  20.719  0.00  0.00    +0.000 F 
ATOM     25  C   UNL     1      -0.095  10.171  18.747  0.00  0.00    +0.000 A 
ATOM     26  F   UNL     1      -0.883  10.978  18.024  0.00  0.00    +0.000 F 
ATOM     27  C   UNL     1       0.922   9.461  18.111  0.00  0.00    +0.000 A 
ENDBRANCH  19  20
ENDBRANCH   4  19
TORSDOF 4
ENDMDL
MODEL 7
REMARK VINA RESULT:      -8.1      1.215      1.878
REMARK  Name = 
REMARK  5 active torsions:
REMARK  status: ('A' for Active; 'I' for Inactive)
REMARK    1  A    between atoms: C_1  and  C_2
REMARK    2  A    between atoms: C_4  and  N_5
REMARK    3  A    between atoms: N_5  and  C_6
REMARK    4  A    between atoms: N_9  and  C_10
REMARK    5  A    between atoms: C_10  and  C_11
REMARK                            x       y       z     vdW  Elec       q    Type
REMARK                         _______ _______ _______ _____ _____    ______ ____
ROOT
ATOM      1  C   UNL     1       2.951   3.188  18.304  0.00  0.00    +0.000 C 
ATOM      2  C   UNL     1       2.409   4.301  17.416  0.00  0.00    +0.000 C 
ATOM      3  C   UNL     1       2.719   5.713  17.903  0.00  0.00    +0.000 C 
ATOM      4  N   UNL     1       2.389   5.927  19.321  0.00  0.00    +0.000 NA
ATOM      5  C   UNL     1       3.057   4.928  20.174  0.00  0.00    +0.000 C 
ATOM      6  C   UNL     1       2.742   3.485  19.786  0.00  0.00    +0.000 C 
ENDROOT
BRANCH   1   7
ATOM      7  N   UNL     1       4.353   2.853  18.000  0.00  0.00    +0.000 N 
ATOM      8  H   UNL     1       4.556   1.858  17.856  0.00  0.00    +0.000 HD
BRANCH   7  12
ATOM      9  C   UNL     1       6.510   4.419  13.794  0.00  0.00    +0.000 C 
ATOM     10  C   UNL     1       6.348   4.551  15.293  0.00  0.00    +0.000 A 
ATOM     11  C   UNL     1       5.274   3.729  15.922  0.00  0.00    +0.000 A 
ATOM     12  C   UNL     1       5.233   3.675  17.268  0.00  0.00    +0.000 A 
ATOM     13  N   UNL     1       6.130   4.525  17.969  0.00  0.00    +0.000 N 
ATOM     14  N   UNL     1       6.276   4.701  19.314  0.00  0.00    +0.000 NA
ATOM     15  C   UNL     1       7.206   5.662  19.363  0.00  0.00    +0.000 A 
ATOM     16  N   UNL     1       7.698   6.078  18.165  0.00  0.00    +0.000 NA
ATOM     17  C   UNL     1       7.036   5.357  17.291  0.00  0.00    +0.000 A 
ATOM     18  N   UNL     1       7.163   5.333  15.930  0.00  0.00    +0.000 NA
ENDBRANCH   7  12
ENDBRANCH   1   7
BRANCH   4  19
ATOM     19  C   UNL     1       2.818   7.279  19.756  0.00  0.00    +0.000 C 
BRANCH  19  20
ATOM     20  C   UNL     1       1.694   8.276  19.967  0.00  0.00    +0.000 A 
ATOM     21  C   UNL     1       0.948   8.261  21.160  0.00  0.00    +0.000 A 
ATOM     22  C   UNL     1      -0.139   9.126  21.334  0.00  0.00    +0.000 A 
ATOM     23  C   UNL     1      -0.477  10.012  20.319  0.00  0.00    +0.000 A 
ATOM     24  F   UNL     1      -1.531  10.825  20.482  0.00  0.00    +0.000 F 
ATOM     25  C   UNL     1       0.261  10.047  19.142  0.00  0.00    +0.000 A 
ATOM     26  F   UNL     1      -0.069  10.903  18.165  0.00  0.00    +0.000 F 
ATOM     27  C   UNL     1       1.342   9.187  18.959  0.00  0.00    +0.000 A 
ENDBRANCH  19  20
ENDBRANCH   4  19
TORSDOF 4
ENDMDL
MODEL 8
REMARK VINA RESULT:      -8.1      1.568      2.758
REMARK  Name = 
REMARK  5 active torsions:
REMARK  status: ('A' for Active; 'I' for Inactive)
REMARK    1  A    between atoms: C_1  and  C_2
REMARK    2  A    between atoms: C_4  and  N_5
REMARK    3  A    between atoms: N_5  and  C_6
REMARK    4  A    between atoms: N_9  and  C_10
REMARK    5  A    between atoms: C_10  and  C_11
REMARK                            x       y       z     vdW  Elec       q    Type
REMARK                         _______ _______ _______ _____ _____    ______ ____
ROOT
ATOM      1  C   UNL     1       3.718   3.549  18.473  0.00  0.00    +0.000 C 
ATOM      2  C   UNL     1       3.014   4.306  17.354  0.00  0.00    +0.000 C 
ATOM      3  C   UNL     1       3.083   5.826  17.471  0.00  0.00    +0.000 C 
ATOM      4  N   UNL     1       2.705   6.327  18.802  0.00  0.00    +0.000 NA
ATOM      5  C   UNL     1       3.515   5.690  19.855  0.00  0.00    +0.000 C 
ATOM      6  C   UNL     1       3.445   4.165  19.842  0.00  0.00    +0.000 C 
ENDROOT
BRANCH   1   7
ATOM      7  N   UNL     1       5.159   3.380  18.221  0.00  0.00    +0.000 N 
ATOM      8  H   UNL     1       5.469   2.426  18.003  0.00  0.00    +0.000 HD
BRANCH   7  12
ATOM      9  C   UNL     1       7.927   7.520  18.259  0.00  0.00    +0.000 C 
ATOM     10  C   UNL     1       7.382   6.334  17.492  0.00  0.00    +0.000 A 
ATOM     11  C   UNL     1       6.649   5.306  18.288  0.00  0.00    +0.000 A 
ATOM     12  C   UNL     1       5.987   4.346  17.614  0.00  0.00    +0.000 A 
ATOM     13  N   UNL     1       6.168   4.315  16.205  0.00  0.00    +0.000 N 
ATOM     14  N   UNL     1       5.656   3.440  15.290  0.00  0.00    +0.000 NA
ATOM     15  C   UNL     1       6.227   3.868  14.158  0.00  0.00    +0.000 A 
ATOM     16  N   UNL     1       7.020   4.968  14.266  0.00  0.00    +0.000 NA
ATOM     17  C   UNL     1       6.972   5.259  15.545  0.00  0.00    +0.000 A 
ATOM     18  N   UNL     1       7.554   6.304  16.208  0.00  0.00    +0.000 NA
ENDBRANCH   7  12
ENDBRANCH   1   7
BRANCH   4  19
ATOM     19  C   UNL     1       2.902   7.795  18.879  0.00  0.00    +0.000 C 
BRANCH  19  20
ATOM     20  C   UNL     1       1.643   8.603  19.131  0.00  0.00    +0.000 A 
ATOM     21  C   UNL     1       1.057   9.346  18.089  0.00  0.00    +0.000 A 
ATOM     22  C   UNL     1      -0.061  10.154  18.329  0.00  0.00    +0.000 A 
ATOM     23  C   UNL     1      -0.598  10.215  19.608  0.00  0.00    +0.000 A 
ATOM     24  F   UNL     1      -1.657  11.006  19.837  0.00  0.00    +0.000 F 
ATOM     25  C   UNL     1      -0.039   9.475  20.642  0.00  0.00    +0.000 A 
ATOM     26  F   UNL     1      -0.561   9.538  21.874  0.00  0.00    +0.000 F 
ATOM     27  C   UNL     1       1.077   8.671  20.413  0.00  0.00    +0.000 A 
ENDBRANCH  19  20
ENDBRANCH   4  19
TORSDOF 4
ENDMDL
MODEL 9
REMARK VINA RESULT:      -8.1      1.075      2.288
REMARK  Name = 
REMARK  5 active torsions:
REMARK  status: ('A' for Active; 'I' for Inactive)
REMARK    1  A    between atoms: C_1  and  C_2
REMARK    2  A    between atoms: C_4  and  N_5
REMARK    3  A    between atoms: N_5  and  C_6
REMARK    4  A    between atoms: N_9  and  C_10
REMARK    5  A    between atoms: C_10  and  C_11
REMARK                            x       y       z     vdW  Elec       q    Type
REMARK                         _______ _______ _______ _____ _____    ______ ____
ROOT
ATOM      1  C   UNL     1       2.955   4.766  18.061  0.00  0.00    +0.000 C 
ATOM      2  C   UNL     1       2.778   6.240  17.717  0.00  0.00    +0.000 C 
ATOM      3  C   UNL     1       2.729   7.174  18.923  0.00  0.00    +0.000 C 
ATOM      4  N   UNL     1       1.791   6.733  19.967  0.00  0.00    +0.000 NA
ATOM      5  C   UNL     1       2.087   5.354  20.393  0.00  0.00    +0.000 C 
ATOM      6  C   UNL     1       2.089   4.347  19.246  0.00  0.00    +0.000 C 
ENDROOT
BRANCH   1   7
ATOM      7  N   UNL     1       4.368   4.395  18.250  0.00  0.00    +0.000 N 
ATOM      8  H   UNL     1       4.556   3.397  18.387  0.00  0.00    +0.000 HD
BRANCH   7  12
ATOM      9  C   UNL     1       8.005   7.795  18.130  0.00  0.00    +0.000 C 
ATOM     10  C   UNL     1       7.283   6.647  17.457  0.00  0.00    +0.000 A 
ATOM     11  C   UNL     1       6.250   5.942  18.271  0.00  0.00    +0.000 A 
ATOM     12  C   UNL     1       5.458   5.051  17.643  0.00  0.00    +0.000 A 
ATOM     13  N   UNL     1       5.775   4.757  16.290  0.00  0.00    +0.000 N 
ATOM     14  N   UNL     1       5.174   3.879  15.436  0.00  0.00    +0.000 NA
ATOM     15  C   UNL     1       5.946   3.987  14.348  0.00  0.00    +0.000 A 
ATOM     16  N   UNL     1       6.957   4.894  14.420  0.00  0.00    +0.000 NA
ATOM     17  C   UNL     1       6.844   5.388  15.631  0.00  0.00    +0.000 A 
ATOM     18  N   UNL     1       7.579   6.376  16.225  0.00  0.00    +0.000 NA
ENDBRANCH   7  12
ENDBRANCH   1   7
BRANCH   4  19
ATOM     19  C   UNL     1       1.876   7.621  21.152  0.00  0.00    +0.000 C 
BRANCH  19  20
ATOM     20  C   UNL     1       0.872   8.758  21.181  0.00  0.00    +0.000 A 
ATOM     21  C   UNL     1       0.567   9.464  20.003  0.00  0.00    +0.000 A 
ATOM     22  C   UNL     1      -0.300  10.562  20.033  0.00  0.00    +0.000 A 
ATOM     23  C   UNL     1      -0.870  10.951  21.239  0.00  0.00    +0.000 A 
ATOM     24  F   UNL     1      -1.685  12.016  21.267  0.00  0.00    +0.000 F 
ATOM     25  C   UNL     1      -0.589  10.253  22.406  0.00  0.00    +0.000 A 
ATOM     26  F   UNL     1      -1.140  10.632  23.568  0.00  0.00    +0.000 F 
ATOM     27  C   UNL     1       0.277   9.160  22.386  0.00  0.00    +0.000 A 
ENDBRANCH  19  20
ENDBRANCH   4  19
TORSDOF 4
ENDMDL
