MODEL 1
REMARK VINA RESULT:      -8.5      0.000      0.000
REMARK  Name = 
REMARK  4 active torsions:
REMARK  status: ('A' for Active; 'I' for Inactive)
REMARK    1  A    between atoms: C_2  and  C_10
REMARK    2  A    between atoms: N_3  and  C_4
REMARK    3  A    between atoms: C_14  and  O_15
REMARK    4  A    between atoms: O_15  and  C_16
REMARK                            x       y       z     vdW  Elec       q    Type
REMARK                         _______ _______ _______ _____ _____    ______ ____
ROOT
ATOM      1  C   UNL     1       7.814   7.846  18.231  0.00  0.00    +0.000 A 
ATOM      2  C   UNL     1       8.507   6.919  19.020  0.00  0.00    +0.000 A 
ATOM      3  C   UNL     1       8.116   5.580  19.036  0.00  0.00    +0.000 A 
ATOM      4  C   UNL     1       7.026   5.161  18.271  0.00  0.00    +0.000 A 
ATOM      5  C   UNL     1       6.295   6.092  17.527  0.00  0.00    +0.000 A 
ATOM      6  C   UNL     1       6.712   7.426  17.478  0.00  0.00    +0.000 A 
ENDROOT
BRANCH   1   8
ATOM      7  O   UNL     1       7.901   9.986  17.309  0.00  0.00    +0.000 OA
ATOM      8  C   UNL     1       8.302   9.255  18.208  0.00  0.00    +0.000 C 
ATOM      9  N   UNL     1       9.227   9.573  19.185  0.00  0.00    +0.000 N 
ATOM     10  H   UNL     1       9.566   8.817  19.766  0.00  0.00    +0.000 HD
BRANCH   9  11
ATOM     11  C   UNL     1       9.898  10.805  19.341  0.00  0.00    +0.000 A 
ATOM     12  C   UNL     1      10.698  11.389  18.356  0.00  0.00    +0.000 A 
ATOM     13  C   UNL     1      11.363  12.593  18.604  0.00  0.00    +0.000 A 
ATOM     14  C   UNL     1      11.237  13.225  19.840  0.00  0.00    +0.000 A 
ATOM     15  C   UNL     1      10.428  12.662  20.822  0.00  0.00    +0.000 A 
ATOM     16  C   UNL     1       9.753  11.464  20.570  0.00  0.00    +0.000 A 
ENDBRANCH   9  11
ENDBRANCH   1   8
BRANCH   5  17
ATOM     17  O   UNL     1       5.217   5.782  16.732  0.00  0.00    +0.000 OA
BRANCH  17  18
ATOM     18  C   UNL     1       4.216   4.953  17.174  0.00  0.00    +0.000 A 
ATOM     19  C   UNL     1       3.836   3.758  16.582  0.00  0.00    +0.000 A 
ATOM     20  N   UNL     1       2.833   2.982  17.065  0.00  0.00    +0.000 NA
ATOM     21  C   UNL     1       2.237   3.410  18.196  0.00  0.00    +0.000 A 
ATOM     22  C   UNL     1       1.189   2.682  18.746  0.00  0.00    +0.000 A 
ATOM     23  C   UNL     1       0.565   3.084  19.928  0.00  0.00    +0.000 A 
ATOM     24  C   UNL     1       1.009   4.227  20.581  0.00  0.00    +0.000 A 
ATOM     25  C   UNL     1       2.057   4.969  20.034  0.00  0.00    +0.000 A 
ATOM     26  C   UNL     1       2.669   4.592  18.844  0.00  0.00    +0.000 A 
ATOM     27  N   UNL     1       3.650   5.360  18.331  0.00  0.00    +0.000 NA
ENDBRANCH  17  18
ENDBRANCH   5  17
TORSDOF 4
ENDMDL
MODEL 2
REMARK VINA RESULT:      -8.3      4.724      7.361
REMARK  Name = 
REMARK  4 active torsions:
REMARK  status: ('A' for Active; 'I' for Inactive)
REMARK    1  A    between atoms: C_2  and  C_10
REMARK    2  A    between atoms: N_3  and  C_4
REMARK    3  A    between atoms: C_14  and  O_15
REMARK    4  A    between atoms: O_15  and  C_16
REMARK                            x       y       z     vdW  Elec       q    Type
REMARK                         _______ _______ _______ _____ _____    ______ ____
ROOT
ATOM      1  C   UNL     1       2.501   5.859  18.711  0.00  0.00    +0.000 A 
ATOM      2  C   UNL     1       1.485   4.914  18.518  0.00  0.00    +0.000 A 
ATOM      3  C   UNL     1       1.796   3.629  18.071  0.00  0.00    +0.000 A 
ATOM      4  C   UNL     1       3.122   3.284  17.807  0.00  0.00    +0.000 A 
ATOM      5  C   UNL     1       4.134   4.239  17.942  0.00  0.00    +0.000 A 
ATOM      6  C   UNL     1       3.828   5.514  18.430  0.00  0.00    +0.000 A 
ENDROOT
BRANCH   1   8
ATOM      7  O   UNL     1       1.944   7.313  20.446  0.00  0.00    +0.000 OA
ATOM      8  C   UNL     1       2.123   7.201  19.238  0.00  0.00    +0.000 C 
ATOM      9  N   UNL     1       1.945   8.181  18.278  0.00  0.00    +0.000 N 
ATOM     10  H   UNL     1       1.989   7.894  17.310  0.00  0.00    +0.000 HD
BRANCH   9  11
ATOM     11  C   UNL     1       1.518   9.509  18.499  0.00  0.00    +0.000 A 
ATOM     12  C   UNL     1       0.284   9.850  19.056  0.00  0.00    +0.000 A 
ATOM     13  C   UNL     1      -0.082  11.191  19.203  0.00  0.00    +0.000 A 
ATOM     14  C   UNL     1       0.782  12.204  18.793  0.00  0.00    +0.000 A 
ATOM     15  C   UNL     1       2.023  11.876  18.255  0.00  0.00    +0.000 A 
ATOM     16  C   UNL     1       2.393  10.535  18.119  0.00  0.00    +0.000 A 
ENDBRANCH   9  11
ENDBRANCH   1   8
BRANCH   5  17
ATOM     17  O   UNL     1       5.469   3.998  17.721  0.00  0.00    +0.000 OA
BRANCH  17  18
ATOM     18  C   UNL     1       6.086   4.391  16.559  0.00  0.00    +0.000 A 
ATOM     19  C   UNL     1       7.048   5.384  16.449  0.00  0.00    +0.000 A 
ATOM     20  N   UNL     1       7.619   5.731  15.270  0.00  0.00    +0.000 NA
ATOM     21  C   UNL     1       7.235   5.022  14.188  0.00  0.00    +0.000 A 
ATOM     22  C   UNL     1       7.760   5.326  12.938  0.00  0.00    +0.000 A 
ATOM     23  C   UNL     1       7.402   4.597  11.802  0.00  0.00    +0.000 A 
ATOM     24  C   UNL     1       6.516   3.534  11.922  0.00  0.00    +0.000 A 
ATOM     25  C   UNL     1       5.978   3.225  13.173  0.00  0.00    +0.000 A 
ATOM     26  C   UNL     1       6.307   3.960  14.306  0.00  0.00    +0.000 A 
ATOM     27  N   UNL     1       5.734   3.651  15.486  0.00  0.00    +0.000 NA
ENDBRANCH  17  18
ENDBRANCH   5  17
TORSDOF 4
ENDMDL
MODEL 3
REMARK VINA RESULT:      -8.2      6.040      8.285
REMARK  Name = 
REMARK  4 active torsions:
REMARK  status: ('A' for Active; 'I' for Inactive)
REMARK    1  A    between atoms: C_2  and  C_10
REMARK    2  A    between atoms: N_3  and  C_4
REMARK    3  A    between atoms: C_14  and  O_15
REMARK    4  A    between atoms: O_15  and  C_16
REMARK                            x       y       z     vdW  Elec       q    Type
REMARK                         _______ _______ _______ _____ _____    ______ ____
ROOT
ATOM      1  C   UNL     1       2.221   7.536  18.877  0.00  0.00    +0.000 A 
ATOM      2  C   UNL     1       2.065   7.301  20.249  0.00  0.00    +0.000 A 
ATOM      3  C   UNL     1       1.314   8.180  21.031  0.00  0.00    +0.000 A 
ATOM      4  C   UNL     1       0.721   9.301  20.447  0.00  0.00    +0.000 A 
ATOM      5  C   UNL     1       0.921   9.572  19.091  0.00  0.00    +0.000 A 
ATOM      6  C   UNL     1       1.639   8.669  18.298  0.00  0.00    +0.000 A 
ENDROOT
BRANCH   1   8
ATOM      7  O   UNL     1       2.486   5.437  17.896  0.00  0.00    +0.000 OA
ATOM      8  C   UNL     1       2.989   6.541  18.076  0.00  0.00    +0.000 C 
ATOM      9  N   UNL     1       4.244   6.956  17.669  0.00  0.00    +0.000 N 
ATOM     10  H   UNL     1       4.574   7.845  18.021  0.00  0.00    +0.000 HD
BRANCH   9  11
ATOM     11  C   UNL     1       5.200   6.189  16.967  0.00  0.00    +0.000 A 
ATOM     12  C   UNL     1       5.182   5.996  15.584  0.00  0.00    +0.000 A 
ATOM     13  C   UNL     1       6.141   5.187  14.968  0.00  0.00    +0.000 A 
ATOM     14  C   UNL     1       7.126   4.561  15.730  0.00  0.00    +0.000 A 
ATOM     15  C   UNL     1       7.165   4.762  17.106  0.00  0.00    +0.000 A 
ATOM     16  C   UNL     1       6.213   5.581  17.720  0.00  0.00    +0.000 A 
ENDBRANCH   9  11
ENDBRANCH   1   8
BRANCH   5  17
ATOM     17  O   UNL     1       0.373  10.639  18.419  0.00  0.00    +0.000 OA
BRANCH  17  18
ATOM     18  C   UNL     1      -0.976  10.717  18.177  0.00  0.00    +0.000 A 
ATOM     19  C   UNL     1      -1.672   9.986  17.226  0.00  0.00    +0.000 A 
ATOM     20  N   UNL     1      -3.008  10.111  17.032  0.00  0.00    +0.000 NA
ATOM     21  C   UNL     1      -3.655  10.963  17.854  0.00  0.00    +0.000 A 
ATOM     22  C   UNL     1      -5.022  11.162  17.709  0.00  0.00    +0.000 A 
ATOM     23  C   UNL     1      -5.727  12.019  18.557  0.00  0.00    +0.000 A 
ATOM     24  C   UNL     1      -5.053  12.677  19.578  0.00  0.00    +0.000 A 
ATOM     25  C   UNL     1      -3.678  12.489  19.727  0.00  0.00    +0.000 A 
ATOM     26  C   UNL     1      -2.962  11.658  18.873  0.00  0.00    +0.000 A 
ATOM     27  N   UNL     1      -1.629  11.537  19.030  0.00  0.00    +0.000 NA
ENDBRANCH  17  18
ENDBRANCH   5  17
TORSDOF 4
ENDMDL
MODEL 4
REMARK VINA RESULT:      -8.2      4.553      7.485
REMARK  Name = 
REMARK  4 active torsions:
REMARK  status: ('A' for Active; 'I' for Inactive)
REMARK    1  A    between atoms: C_2  and  C_10
REMARK    2  A    between atoms: N_3  and  C_4
REMARK    3  A    between atoms: C_14  and  O_15
REMARK    4  A    between atoms: O_15  and  C_16
REMARK                            x       y       z     vdW  Elec       q    Type
REMARK                         _______ _______ _______ _____ _____    ______ ____
ROOT
ATOM      1  C   UNL     1       2.275   5.821  20.026  0.00  0.00    +0.000 A 
ATOM      2  C   UNL     1       1.330   4.831  20.324  0.00  0.00    +0.000 A 
ATOM      3  C   UNL     1       1.708   3.488  20.365  0.00  0.00    +0.000 A 
ATOM      4  C   UNL     1       3.029   3.127  20.100  0.00  0.00    +0.000 A 
ATOM      5  C   UNL     1       3.964   4.103  19.744  0.00  0.00    +0.000 A 
ATOM      6  C   UNL     1       3.596   5.453  19.745  0.00  0.00    +0.000 A 
ENDROOT
BRANCH   1   8
ATOM      7  O   UNL     1       2.264   7.991  19.172  0.00  0.00    +0.000 OA
ATOM      8  C   UNL     1       1.833   7.244  20.045  0.00  0.00    +0.000 C 
ATOM      9  N   UNL     1       1.021   7.594  21.107  0.00  0.00    +0.000 N 
ATOM     10  H   UNL     1       0.871   6.897  21.825  0.00  0.00    +0.000 HD
BRANCH   9  11
ATOM     11  C   UNL     1       0.526   8.884  21.402  0.00  0.00    +0.000 A 
ATOM     12  C   UNL     1       0.723  10.000  20.586  0.00  0.00    +0.000 A 
ATOM     13  C   UNL     1       0.236  11.253  20.969  0.00  0.00    +0.000 A 
ATOM     14  C   UNL     1      -0.452  11.402  22.172  0.00  0.00    +0.000 A 
ATOM     15  C   UNL     1      -0.671  10.293  22.983  0.00  0.00    +0.000 A 
ATOM     16  C   UNL     1      -0.194   9.038  22.594  0.00  0.00    +0.000 A 
ENDBRANCH   9  11
ENDBRANCH   1   8
BRANCH   5  17
ATOM     17  O   UNL     1       5.290   3.855  19.478  0.00  0.00    +0.000 OA
BRANCH  17  18
ATOM     18  C   UNL     1       5.878   4.278  18.312  0.00  0.00    +0.000 A 
ATOM     19  C   UNL     1       6.966   5.132  18.217  0.00  0.00    +0.000 A 
ATOM     20  N   UNL     1       7.501   5.517  17.032  0.00  0.00    +0.000 NA
ATOM     21  C   UNL     1       6.945   4.987  15.924  0.00  0.00    +0.000 A 
ATOM     22  C   UNL     1       7.423   5.344  14.669  0.00  0.00    +0.000 A 
ATOM     23  C   UNL     1       6.885   4.796  13.503  0.00  0.00    +0.000 A 
ATOM     24  C   UNL     1       5.862   3.861  13.595  0.00  0.00    +0.000 A 
ATOM     25  C   UNL     1       5.370   3.501  14.851  0.00  0.00    +0.000 A 
ATOM     26  C   UNL     1       5.880   4.059  16.017  0.00  0.00    +0.000 A 
ATOM     27  N   UNL     1       5.349   3.711  17.205  0.00  0.00    +0.000 NA
ENDBRANCH  17  18
ENDBRANCH   5  17
TORSDOF 4
ENDMDL
MODEL 5
REMARK VINA RESULT:      -8.2      4.706      7.587
REMARK  Name = 
REMARK  4 active torsions:
REMARK  status: ('A' for Active; 'I' for Inactive)
REMARK    1  A    between atoms: C_2  and  C_10
REMARK    2  A    between atoms: N_3  and  C_4
REMARK    3  A    between atoms: C_14  and  O_15
REMARK    4  A    between atoms: O_15  and  C_16
REMARK                            x       y       z     vdW  Elec       q    Type
REMARK                         _______ _______ _______ _____ _____    ______ ____
ROOT
ATOM      1  C   UNL     1       2.448   5.027  19.150  0.00  0.00    +0.000 A 
ATOM      2  C   UNL     1       1.580   4.042  18.662  0.00  0.00    +0.000 A 
ATOM      3  C   UNL     1       2.078   2.979  17.907  0.00  0.00    +0.000 A 
ATOM      4  C   UNL     1       3.444   2.899  17.629  0.00  0.00    +0.000 A 
ATOM      5  C   UNL     1       4.307   3.909  18.064  0.00  0.00    +0.000 A 
ATOM      6  C   UNL     1       3.815   4.953  18.857  0.00  0.00    +0.000 A 
ENDROOT
BRANCH   1   8
ATOM      7  O   UNL     1       1.299   5.794  21.029  0.00  0.00    +0.000 OA
ATOM      8  C   UNL     1       1.875   6.114  19.994  0.00  0.00    +0.000 C 
ATOM      9  N   UNL     1       1.999   7.390  19.475  0.00  0.00    +0.000 N 
ATOM     10  H   UNL     1       2.374   7.474  18.540  0.00  0.00    +0.000 HD
BRANCH   9  11
ATOM     11  C   UNL     1       1.483   8.580  20.032  0.00  0.00    +0.000 A 
ATOM     12  C   UNL     1       1.277   8.777  21.399  0.00  0.00    +0.000 A 
ATOM     13  C   UNL     1       0.722   9.971  21.868  0.00  0.00    +0.000 A 
ATOM     14  C   UNL     1       0.367  10.980  20.975  0.00  0.00    +0.000 A 
ATOM     15  C   UNL     1       0.586  10.803  19.612  0.00  0.00    +0.000 A 
ATOM     16  C   UNL     1       1.152   9.613  19.145  0.00  0.00    +0.000 A 
ENDBRANCH   9  11
ENDBRANCH   1   8
BRANCH   5  17
ATOM     17  O   UNL     1       5.665   3.919  17.856  0.00  0.00    +0.000 OA
BRANCH  17  18
ATOM     18  C   UNL     1       6.206   4.342  16.668  0.00  0.00    +0.000 A 
ATOM     19  C   UNL     1       7.121   5.373  16.516  0.00  0.00    +0.000 A 
ATOM     20  N   UNL     1       7.617   5.748  15.311  0.00  0.00    +0.000 NA
ATOM     21  C   UNL     1       7.206   5.031  14.245  0.00  0.00    +0.000 A 
ATOM     22  C   UNL     1       7.653   5.362  12.973  0.00  0.00    +0.000 A 
ATOM     23  C   UNL     1       7.266   4.627  11.851  0.00  0.00    +0.000 A 
ATOM     24  C   UNL     1       6.428   3.530  12.008  0.00  0.00    +0.000 A 
ATOM     25  C   UNL     1       5.968   3.193  13.282  0.00  0.00    +0.000 A 
ATOM     26  C   UNL     1       6.327   3.933  14.402  0.00  0.00    +0.000 A 
ATOM     27  N   UNL     1       5.828   3.595  15.608  0.00  0.00    +0.000 NA
ENDBRANCH  17  18
ENDBRANCH   5  17
TORSDOF 4
ENDMDL
MODEL 6
REMARK VINA RESULT:      -8.1      5.580      8.140
REMARK  Name = 
REMARK  4 active torsions:
REMARK  status: ('A' for Active; 'I' for Inactive)
REMARK    1  A    between atoms: C_2  and  C_10
REMARK    2  A    between atoms: N_3  and  C_4
REMARK    3  A    between atoms: C_14  and  O_15
REMARK    4  A    between atoms: O_15  and  C_16
REMARK                            x       y       z     vdW  Elec       q    Type
REMARK                         _______ _______ _______ _____ _____    ______ ____
ROOT
ATOM      1  C   UNL     1       2.377   6.917  19.296  0.00  0.00    +0.000 A 
ATOM      2  C   UNL     1       1.900   6.428  20.520  0.00  0.00    +0.000 A 
ATOM      3  C   UNL     1       1.098   7.231  21.332  0.00  0.00    +0.000 A 
ATOM      4  C   UNL     1       0.775   8.528  20.930  0.00  0.00    +0.000 A 
ATOM      5  C   UNL     1       1.295   9.042  19.739  0.00  0.00    +0.000 A 
ATOM      6  C   UNL     1       2.064   8.223  18.904  0.00  0.00    +0.000 A 
ENDROOT
BRANCH   1   8
ATOM      7  O   UNL     1       2.910   4.808  18.456  0.00  0.00    +0.000 OA
ATOM      8  C   UNL     1       3.186   6.003  18.441  0.00  0.00    +0.000 C 
ATOM      9  N   UNL     1       4.228   6.605  17.759  0.00  0.00    +0.000 N 
ATOM     10  H   UNL     1       4.415   7.577  17.964  0.00  0.00    +0.000 HD
BRANCH   9  11
ATOM     11  C   UNL     1       5.186   5.961  16.945  0.00  0.00    +0.000 A 
ATOM     12  C   UNL     1       5.148   5.959  15.549  0.00  0.00    +0.000 A 
ATOM     13  C   UNL     1       6.112   5.262  14.814  0.00  0.00    +0.000 A 
ATOM     14  C   UNL     1       7.122   4.560  15.468  0.00  0.00    +0.000 A 
ATOM     15  C   UNL     1       7.181   4.571  16.858  0.00  0.00    +0.000 A 
ATOM     16  C   UNL     1       6.224   5.278  17.593  0.00  0.00    +0.000 A 
ENDBRANCH   9  11
ENDBRANCH   1   8
BRANCH   5  17
ATOM     17  O   UNL     1       1.028  10.297  19.247  0.00  0.00    +0.000 OA
BRANCH  17  18
ATOM     18  C   UNL     1      -0.256  10.706  18.984  0.00  0.00    +0.000 A 
ATOM     19  C   UNL     1      -1.016  11.550  19.778  0.00  0.00    +0.000 A 
ATOM     20  N   UNL     1      -2.284  11.916  19.465  0.00  0.00    +0.000 NA
ATOM     21  C   UNL     1      -2.771  11.447  18.298  0.00  0.00    +0.000 A 
ATOM     22  C   UNL     1      -4.068  11.760  17.912  0.00  0.00    +0.000 A 
ATOM     23  C   UNL     1      -4.595  11.310  16.700  0.00  0.00    +0.000 A 
ATOM     24  C   UNL     1      -3.804  10.547  15.851  0.00  0.00    +0.000 A 
ATOM     25  C   UNL     1      -2.501  10.222  16.233  0.00  0.00    +0.000 A 
ATOM     26  C   UNL     1      -1.975  10.642  17.448  0.00  0.00    +0.000 A 
ATOM     27  N   UNL     1      -0.726  10.272  17.793  0.00  0.00    +0.000 NA
ENDBRANCH  17  18
ENDBRANCH   5  17
TORSDOF 4
ENDMDL
MODEL 7
REMARK VINA RESULT:      -8.1      5.455      7.534
REMARK  Name = 
REMARK  4 active torsions:
REMARK  status: ('A' for Active; 'I' for Inactive)
REMARK    1  A    between atoms: C_2  and  C_10
REMARK    2  A    between atoms: N_3  and  C_4
REMARK    3  A    between atoms: C_14  and  O_15
REMARK    4  A    between atoms: O_15  and  C_16
REMARK                            x       y       z     vdW  Elec       q    Type
REMARK                         _______ _______ _______ _____ _____    ______ ____
ROOT
ATOM      1  C   UNL     1       4.068   4.304  17.469  0.00  0.00    +0.000 A 
ATOM      2  C   UNL     1       3.087   3.305  17.414  0.00  0.00    +0.000 A 
ATOM      3  C   UNL     1       1.955   3.387  18.225  0.00  0.00    +0.000 A 
ATOM      4  C   UNL     1       1.799   4.463  19.100  0.00  0.00    +0.000 A 
ATOM      5  C   UNL     1       2.801   5.433  19.202  0.00  0.00    +0.000 A 
ATOM      6  C   UNL     1       3.917   5.373  18.359  0.00  0.00    +0.000 A 
ENDROOT
BRANCH   1   8
ATOM      7  O   UNL     1       6.352   4.096  17.044  0.00  0.00    +0.000 OA
ATOM      8  C   UNL     1       5.234   4.197  16.547  0.00  0.00    +0.000 C 
ATOM      9  N   UNL     1       4.931   4.293  15.201  0.00  0.00    +0.000 N 
ATOM     10  H   UNL     1       3.976   4.519  14.957  0.00  0.00    +0.000 HD
BRANCH   9  11
ATOM     11  C   UNL     1       5.849   4.296  14.128  0.00  0.00    +0.000 A 
ATOM     12  C   UNL     1       6.972   5.123  14.065  0.00  0.00    +0.000 A 
ATOM     13  C   UNL     1       7.811   5.097  12.947  0.00  0.00    +0.000 A 
ATOM     14  C   UNL     1       7.533   4.244  11.881  0.00  0.00    +0.000 A 
ATOM     15  C   UNL     1       6.428   3.402  11.941  0.00  0.00    +0.000 A 
ATOM     16  C   UNL     1       5.596   3.420  13.064  0.00  0.00    +0.000 A 
ENDBRANCH   9  11
ENDBRANCH   1   8
BRANCH   5  17
ATOM     17  O   UNL     1       2.740   6.536  20.020  0.00  0.00    +0.000 OA
BRANCH  17  18
ATOM     18  C   UNL     1       2.095   7.683  19.630  0.00  0.00    +0.000 A 
ATOM     19  C   UNL     1       2.078   8.205  18.345  0.00  0.00    +0.000 A 
ATOM     20  N   UNL     1       1.423   9.347  18.021  0.00  0.00    +0.000 NA
ATOM     21  C   UNL     1       0.735   9.945  19.016  0.00  0.00    +0.000 A 
ATOM     22  C   UNL     1       0.052  11.129  18.771  0.00  0.00    +0.000 A 
ATOM     23  C   UNL     1      -0.688  11.762  19.772  0.00  0.00    +0.000 A 
ATOM     24  C   UNL     1      -0.759  11.190  21.036  0.00  0.00    +0.000 A 
ATOM     25  C   UNL     1      -0.070  10.004  21.293  0.00  0.00    +0.000 A 
ATOM     26  C   UNL     1       0.690   9.379  20.312  0.00  0.00    +0.000 A 
ATOM     27  N   UNL     1       1.370   8.256  20.616  0.00  0.00    +0.000 NA
ENDBRANCH  17  18
ENDBRANCH   5  17
TORSDOF 4
ENDMDL
MODEL 8
REMARK VINA RESULT:      -8.0      5.282      7.585
REMARK  Name = 
REMARK  4 active torsions:
REMARK  status: ('A' for Active; 'I' for Inactive)
REMARK    1  A    between atoms: C_2  and  C_10
REMARK    2  A    between atoms: N_3  and  C_4
REMARK    3  A    between atoms: C_14  and  O_15
REMARK    4  A    between atoms: O_15  and  C_16
REMARK                            x       y       z     vdW  Elec       q    Type
REMARK                         _______ _______ _______ _____ _____    ______ ____
ROOT
ATOM      1  C   UNL     1       3.754   5.236  17.445  0.00  0.00    +0.000 A 
ATOM      2  C   UNL     1       2.881   4.147  17.317  0.00  0.00    +0.000 A 
ATOM      3  C   UNL     1       1.880   3.935  18.266  0.00  0.00    +0.000 A 
ATOM      4  C   UNL     1       1.750   4.804  19.350  0.00  0.00    +0.000 A 
ATOM      5  C   UNL     1       2.654   5.858  19.515  0.00  0.00    +0.000 A 
ATOM      6  C   UNL     1       3.631   6.096  18.542  0.00  0.00    +0.000 A 
ENDROOT
BRANCH   1   8
ATOM      7  O   UNL     1       5.304   6.552  16.303  0.00  0.00    +0.000 OA
ATOM      8  C   UNL     1       4.774   5.448  16.379  0.00  0.00    +0.000 C 
ATOM      9  N   UNL     1       4.969   4.376  15.528  0.00  0.00    +0.000 N 
ATOM     10  H   UNL     1       4.350   3.583  15.634  0.00  0.00    +0.000 HD
BRANCH   9  11
ATOM     11  C   UNL     1       5.816   4.338  14.399  0.00  0.00    +0.000 A 
ATOM     12  C   UNL     1       7.016   5.046  14.300  0.00  0.00    +0.000 A 
ATOM     13  C   UNL     1       7.779   4.989  13.129  0.00  0.00    +0.000 A 
ATOM     14  C   UNL     1       7.348   4.224  12.047  0.00  0.00    +0.000 A 
ATOM     15  C   UNL     1       6.164   3.499  12.142  0.00  0.00    +0.000 A 
ATOM     16  C   UNL     1       5.408   3.547  13.317  0.00  0.00    +0.000 A 
ENDBRANCH   9  11
ENDBRANCH   1   8
BRANCH   5  17
ATOM     17  O   UNL     1       2.606   6.776  20.537  0.00  0.00    +0.000 OA
BRANCH  17  18
ATOM     18  C   UNL     1       1.813   7.894  20.459  0.00  0.00    +0.000 A 
ATOM     19  C   UNL     1       1.512   8.594  19.301  0.00  0.00    +0.000 A 
ATOM     20  N   UNL     1       0.723   9.697  19.289  0.00  0.00    +0.000 NA
ATOM     21  C   UNL     1       0.194  10.067  20.474  0.00  0.00    +0.000 A 
ATOM     22  C   UNL     1      -0.611  11.196  20.551  0.00  0.00    +0.000 A 
ATOM     23  C   UNL     1      -1.192  11.595  21.756  0.00  0.00    +0.000 A 
ATOM     24  C   UNL     1      -0.978  10.839  22.901  0.00  0.00    +0.000 A 
ATOM     25  C   UNL     1      -0.165   9.706  22.835  0.00  0.00    +0.000 A 
ATOM     26  C   UNL     1       0.440   9.315  21.647  0.00  0.00    +0.000 A 
ATOM     27  N   UNL     1       1.248   8.237  21.638  0.00  0.00    +0.000 NA
ENDBRANCH  17  18
ENDBRANCH   5  17
TORSDOF 4
ENDMDL
MODEL 9
REMARK VINA RESULT:      -7.9      7.160      9.612
REMARK  Name = 
REMARK  4 active torsions:
REMARK  status: ('A' for Active; 'I' for Inactive)
REMARK    1  A    between atoms: C_2  and  C_10
REMARK    2  A    between atoms: N_3  and  C_4
REMARK    3  A    between atoms: C_14  and  O_15
REMARK    4  A    between atoms: O_15  and  C_16
REMARK                            x       y       z     vdW  Elec       q    Type
REMARK                         _______ _______ _______ _____ _____    ______ ____
ROOT
ATOM      1  C   UNL     1       1.178   9.210  19.345  0.00  0.00    +0.000 A 
ATOM      2  C   UNL     1       1.105   8.789  20.679  0.00  0.00    +0.000 A 
ATOM      3  C   UNL     1       0.288   9.466  21.586  0.00  0.00    +0.000 A 
ATOM      4  C   UNL     1      -0.453  10.572  21.167  0.00  0.00    +0.000 A 
ATOM      5  C   UNL     1      -0.340  11.033  19.852  0.00  0.00    +0.000 A 
ATOM      6  C   UNL     1       0.445  10.329  18.932  0.00  0.00    +0.000 A 
ENDROOT
BRANCH   1   8
ATOM      7  O   UNL     1       2.254   8.904  17.299  0.00  0.00    +0.000 OA
ATOM      8  C   UNL     1       2.024   8.423  18.404  0.00  0.00    +0.000 C 
ATOM      9  N   UNL     1       2.412   7.178  18.863  0.00  0.00    +0.000 N 
ATOM     10  H   UNL     1       2.021   6.866  19.742  0.00  0.00    +0.000 HD
BRANCH   9  11
ATOM     11  C   UNL     1       3.150   6.208  18.148  0.00  0.00    +0.000 A 
ATOM     12  C   UNL     1       4.378   6.459  17.534  0.00  0.00    +0.000 A 
ATOM     13  C   UNL     1       5.026   5.455  16.808  0.00  0.00    +0.000 A 
ATOM     14  C   UNL     1       4.452   4.192  16.689  0.00  0.00    +0.000 A 
ATOM     15  C   UNL     1       3.237   3.925  17.314  0.00  0.00    +0.000 A 
ATOM     16  C   UNL     1       2.595   4.925  18.049  0.00  0.00    +0.000 A 
ENDBRANCH   9  11
ENDBRANCH   1   8
BRANCH   5  17
ATOM     17  O   UNL     1      -1.035  12.101  19.336  0.00  0.00    +0.000 OA
BRANCH  17  18
ATOM     18  C   UNL     1      -2.330  11.971  18.899  0.00  0.00    +0.000 A 
ATOM     19  C   UNL     1      -2.724  11.416  17.691  0.00  0.00    +0.000 A 
ATOM     20  N   UNL     1      -4.022  11.318  17.313  0.00  0.00    +0.000 NA
ATOM     21  C   UNL     1      -4.939  11.752  18.202  0.00  0.00    +0.000 A 
ATOM     22  C   UNL     1      -6.290  11.703  17.885  0.00  0.00    +0.000 A 
ATOM     23  C   UNL     1      -7.266  12.123  18.791  0.00  0.00    +0.000 A 
ATOM     24  C   UNL     1      -6.883  12.585  20.044  0.00  0.00    +0.000 A 
ATOM     25  C   UNL     1      -5.527  12.644  20.369  0.00  0.00    +0.000 A 
ATOM     26  C   UNL     1      -4.546  12.253  19.466  0.00  0.00    +0.000 A 
ATOM     27  N   UNL     1      -3.247  12.364  19.809  0.00  0.00    +0.000 NA
ENDBRANCH  17  18
ENDBRANCH   5  17
TORSDOF 4
ENDMDL
