MODEL 1
REMARK VINA RESULT:      -8.4      0.000      0.000
REMARK  Name = 
REMARK  3 active torsions:
REMARK  status: ('A' for Active; 'I' for Inactive)
REMARK    1  A    between atoms: C_2  and  C_19
REMARK    2  A    between atoms: N_7  and  C_8
REMARK    3  A    between atoms: C_13  and  C_14
REMARK                            x       y       z     vdW  Elec       q    Type
REMARK                         _______ _______ _______ _____ _____    ______ ____
ROOT
ATOM      1  O   UNL     1       7.848   9.929  17.412  0.00  0.00    +0.000 OA
ATOM      2  C   UNL     1       8.421   9.682  18.464  0.00  0.00    +0.000 C 
ATOM      3  N   UNL     1       8.612   8.457  19.064  0.00  0.00    +0.000 N 
ATOM      4  C   UNL     1       8.164   7.270  18.529  0.00  0.00    +0.000 A 
ATOM      5  C   UNL     1       8.184   6.019  19.191  0.00  0.00    +0.000 A 
ATOM      6  C   UNL     1       7.586   5.143  18.315  0.00  0.00    +0.000 A 
ATOM      7  N   UNL     1       7.397   5.842  17.148  0.00  0.00    +0.000 N 
ATOM      8  N   UNL     1       7.647   7.154  17.309  0.00  0.00    +0.000 NA
ATOM      9  H   UNL     1       9.052   8.416  19.970  0.00  0.00    +0.000 HD
ENDROOT
BRANCH   2  10
ATOM     10  C   UNL     1       8.942  10.812  19.291  0.00  0.00    +0.000 C 
ATOM     11  C   UNL     1      10.303  10.723  19.940  0.00  0.00    +0.000 C 
ATOM     12  C   UNL     1      10.093  11.672  18.782  0.00  0.00    +0.000 C 
ATOM     13  C   UNL     1      10.815  11.387  17.480  0.00  0.00    +0.000 C 
ATOM     14  C   UNL     1      11.098  12.771  16.892  0.00  0.00    +0.000 C 
ATOM     15  C   UNL     1      11.192  13.679  18.112  0.00  0.00    +0.000 C 
ATOM     16  C   UNL     1      10.085  13.159  19.026  0.00  0.00    +0.000 C 
ENDBRANCH   2  10
BRANCH   7  17
ATOM     17  C   UNL     1       6.911   5.339  15.914  0.00  0.00    +0.000 A 
ATOM     18  N   UNL     1       7.719   5.525  14.825  0.00  0.00    +0.000 NA
ATOM     19  C   UNL     1       7.358   4.927  13.671  0.00  0.00    +0.000 A 
ATOM     20  C   UNL     1       6.202   4.187  13.525  0.00  0.00    +0.000 A 
ATOM     21  C   UNL     1       5.359   4.066  14.621  0.00  0.00    +0.000 A 
ATOM     22  C   UNL     1       5.688   4.665  15.851  0.00  0.00    +0.000 A 
BRANCH  22  23
ATOM     23  C   UNL     1       4.655   4.626  16.949  0.00  0.00    +0.000 C 
ATOM     24  F   UNL     1       4.252   5.814  17.470  0.00  0.00    +0.000 F 
ATOM     25  F   UNL     1       3.484   4.093  16.463  0.00  0.00    +0.000 F 
ATOM     26  F   UNL     1       4.997   3.810  17.982  0.00  0.00    +0.000 F 
ENDBRANCH  22  23
ENDBRANCH   7  17
TORSDOF 3
ENDMDL
MODEL 2
REMARK VINA RESULT:      -8.1      0.892      1.136
REMARK  Name = 
REMARK  3 active torsions:
REMARK  status: ('A' for Active; 'I' for Inactive)
REMARK    1  A    between atoms: C_2  and  C_19
REMARK    2  A    between atoms: N_7  and  C_8
REMARK    3  A    between atoms: C_13  and  C_14
REMARK                            x       y       z     vdW  Elec       q    Type
REMARK                         _______ _______ _______ _____ _____    ______ ____
ROOT
ATOM      1  O   UNL     1       8.122   9.716  17.381  0.00  0.00    +0.000 OA
ATOM      2  C   UNL     1       8.647   9.436  18.450  0.00  0.00    +0.000 C 
ATOM      3  N   UNL     1       8.713   8.209  19.072  0.00  0.00    +0.000 N 
ATOM      4  C   UNL     1       8.172   7.058  18.543  0.00  0.00    +0.000 A 
ATOM      5  C   UNL     1       8.064   5.822  19.223  0.00  0.00    +0.000 A 
ATOM      6  C   UNL     1       7.410   4.988  18.346  0.00  0.00    +0.000 A 
ATOM      7  N   UNL     1       7.311   5.681  17.165  0.00  0.00    +0.000 N 
ATOM      8  N   UNL     1       7.674   6.969  17.314  0.00  0.00    +0.000 NA
ATOM      9  H   UNL     1       9.127   8.144  19.989  0.00  0.00    +0.000 HD
ENDROOT
BRANCH   2  10
ATOM     10  C   UNL     1       9.248  10.528  19.273  0.00  0.00    +0.000 C 
ATOM     11  C   UNL     1      10.483  11.256  18.795  0.00  0.00    +0.000 C 
ATOM     12  C   UNL     1       9.156  11.978  18.813  0.00  0.00    +0.000 C 
ATOM     13  C   UNL     1       8.539  12.380  17.488  0.00  0.00    +0.000 C 
ATOM     14  C   UNL     1       7.794  13.681  17.795  0.00  0.00    +0.000 C 
ATOM     15  C   UNL     1       8.569  14.285  18.960  0.00  0.00    +0.000 C 
ATOM     16  C   UNL     1       8.914  13.072  19.821  0.00  0.00    +0.000 C 
ENDBRANCH   2  10
BRANCH   7  17
ATOM     17  C   UNL     1       6.810   5.204  15.927  0.00  0.00    +0.000 A 
ATOM     18  N   UNL     1       7.610   5.400  14.835  0.00  0.00    +0.000 NA
ATOM     19  C   UNL     1       7.234   4.825  13.675  0.00  0.00    +0.000 A 
ATOM     20  C   UNL     1       6.070   4.099  13.526  0.00  0.00    +0.000 A 
ATOM     21  C   UNL     1       5.234   3.968  14.627  0.00  0.00    +0.000 A 
ATOM     22  C   UNL     1       5.580   4.543  15.864  0.00  0.00    +0.000 A 
BRANCH  22  23
ATOM     23  C   UNL     1       4.555   4.496  16.970  0.00  0.00    +0.000 C 
ATOM     24  F   UNL     1       4.187   5.677  17.531  0.00  0.00    +0.000 F 
ATOM     25  F   UNL     1       3.367   4.008  16.479  0.00  0.00    +0.000 F 
ATOM     26  F   UNL     1       4.885   3.640  17.974  0.00  0.00    +0.000 F 
ENDBRANCH  22  23
ENDBRANCH   7  17
TORSDOF 3
ENDMDL
MODEL 3
REMARK VINA RESULT:      -8.0      7.116     10.084
REMARK  Name = 
REMARK  3 active torsions:
REMARK  status: ('A' for Active; 'I' for Inactive)
REMARK    1  A    between atoms: C_2  and  C_19
REMARK    2  A    between atoms: N_7  and  C_8
REMARK    3  A    between atoms: C_13  and  C_14
REMARK                            x       y       z     vdW  Elec       q    Type
REMARK                         _______ _______ _______ _____ _____    ______ ____
ROOT
ATOM      1  O   UNL     1       2.751   7.088  19.754  0.00  0.00    +0.000 OA
ATOM      2  C   UNL     1       1.962   6.464  20.449  0.00  0.00    +0.000 C 
ATOM      3  N   UNL     1       0.928   6.955  21.216  0.00  0.00    +0.000 N 
ATOM      4  C   UNL     1       0.618   8.293  21.307  0.00  0.00    +0.000 A 
ATOM      5  C   UNL     1      -0.316   8.853  22.212  0.00  0.00    +0.000 A 
ATOM      6  C   UNL     1      -0.252  10.210  21.996  0.00  0.00    +0.000 A 
ATOM      7  N   UNL     1       0.557  10.382  20.900  0.00  0.00    +0.000 N 
ATOM      8  N   UNL     1       1.168   9.236  20.549  0.00  0.00    +0.000 NA
ATOM      9  H   UNL     1       0.397   6.319  21.791  0.00  0.00    +0.000 HD
ENDROOT
BRANCH   2  10
ATOM     10  C   UNL     1       2.125   4.985  20.587  0.00  0.00    +0.000 C 
ATOM     11  C   UNL     1       0.940   4.064  20.412  0.00  0.00    +0.000 C 
ATOM     12  C   UNL     1       2.028   4.083  19.363  0.00  0.00    +0.000 C 
ATOM     13  C   UNL     1       1.686   4.608  17.983  0.00  0.00    +0.000 C 
ATOM     14  C   UNL     1       2.565   3.788  17.036  0.00  0.00    +0.000 C 
ATOM     15  C   UNL     1       2.773   2.470  17.772  0.00  0.00    +0.000 C 
ATOM     16  C   UNL     1       2.954   2.902  19.225  0.00  0.00    +0.000 C 
ENDBRANCH   2  10
BRANCH   7  17
ATOM     17  C   UNL     1       0.844  11.597  20.224  0.00  0.00    +0.000 A 
ATOM     18  N   UNL     1       1.803  12.392  20.790  0.00  0.00    +0.000 NA
ATOM     19  C   UNL     1       2.205  13.474  20.094  0.00  0.00    +0.000 A 
ATOM     20  C   UNL     1       1.669  13.842  18.877  0.00  0.00    +0.000 A 
ATOM     21  C   UNL     1       0.648  13.062  18.350  0.00  0.00    +0.000 A 
ATOM     22  C   UNL     1       0.192  11.918  19.030  0.00  0.00    +0.000 A 
BRANCH  22  23
ATOM     23  C   UNL     1      -1.021  11.211  18.478  0.00  0.00    +0.000 C 
ATOM     24  F   UNL     1      -2.094  11.079  19.301  0.00  0.00    +0.000 F 
ATOM     25  F   UNL     1      -1.532  11.927  17.422  0.00  0.00    +0.000 F 
ATOM     26  F   UNL     1      -0.740   9.987  17.956  0.00  0.00    +0.000 F 
ENDBRANCH  22  23
ENDBRANCH   7  17
TORSDOF 3
ENDMDL
MODEL 4
REMARK VINA RESULT:      -7.9      6.031      7.660
REMARK  Name = 
REMARK  3 active torsions:
REMARK  status: ('A' for Active; 'I' for Inactive)
REMARK    1  A    between atoms: C_2  and  C_19
REMARK    2  A    between atoms: N_7  and  C_8
REMARK    3  A    between atoms: C_13  and  C_14
REMARK                            x       y       z     vdW  Elec       q    Type
REMARK                         _______ _______ _______ _____ _____    ______ ____
ROOT
ATOM      1  O   UNL     1       1.475   9.817  17.804  0.00  0.00    +0.000 OA
ATOM      2  C   UNL     1       1.037   9.872  18.945  0.00  0.00    +0.000 C 
ATOM      3  N   UNL     1       1.156   8.937  19.949  0.00  0.00    +0.000 N 
ATOM      4  C   UNL     1       1.827   7.743  19.802  0.00  0.00    +0.000 A 
ATOM      5  C   UNL     1       1.824   6.686  20.743  0.00  0.00    +0.000 A 
ATOM      6  C   UNL     1       2.563   5.684  20.156  0.00  0.00    +0.000 A 
ATOM      7  N   UNL     1       3.096   6.227  19.012  0.00  0.00    +0.000 N 
ATOM      8  N   UNL     1       2.567   7.434  18.742  0.00  0.00    +0.000 NA
ATOM      9  H   UNL     1       0.684   9.094  20.826  0.00  0.00    +0.000 HD
ENDROOT
BRANCH   2  10
ATOM     10  C   UNL     1       0.198  11.040  19.347  0.00  0.00    +0.000 C 
ATOM     11  C   UNL     1       0.029  12.219  18.417  0.00  0.00    +0.000 C 
ATOM     12  C   UNL     1      -1.142  11.296  18.667  0.00  0.00    +0.000 C 
ATOM     13  C   UNL     1      -1.650  10.452  17.515  0.00  0.00    +0.000 C 
ATOM     14  C   UNL     1      -3.155  10.333  17.766  0.00  0.00    +0.000 C 
ATOM     15  C   UNL     1      -3.503  11.602  18.535  0.00  0.00    +0.000 C 
ATOM     16  C   UNL     1      -2.315  11.781  19.477  0.00  0.00    +0.000 C 
ENDBRANCH   2  10
BRANCH   7  17
ATOM     17  C   UNL     1       4.018   5.619  18.121  0.00  0.00    +0.000 A 
ATOM     18  N   UNL     1       5.185   6.299  17.902  0.00  0.00    +0.000 NA
ATOM     19  C   UNL     1       6.142   5.678  17.183  0.00  0.00    +0.000 A 
ATOM     20  C   UNL     1       5.985   4.426  16.624  0.00  0.00    +0.000 A 
ATOM     21  C   UNL     1       4.769   3.779  16.797  0.00  0.00    +0.000 A 
ATOM     22  C   UNL     1       3.736   4.378  17.542  0.00  0.00    +0.000 A 
BRANCH  22  23
ATOM     23  C   UNL     1       2.393   3.691  17.558  0.00  0.00    +0.000 C 
ATOM     24  F   UNL     1       1.299   4.455  17.305  0.00  0.00    +0.000 F 
ATOM     25  F   UNL     1       2.345   2.749  16.558  0.00  0.00    +0.000 F 
ATOM     26  F   UNL     1       2.161   2.988  18.698  0.00  0.00    +0.000 F 
ENDBRANCH  22  23
ENDBRANCH   7  17
TORSDOF 3
ENDMDL
MODEL 5
REMARK VINA RESULT:      -7.8      6.920      9.964
REMARK  Name = 
REMARK  3 active torsions:
REMARK  status: ('A' for Active; 'I' for Inactive)
REMARK    1  A    between atoms: C_2  and  C_19
REMARK    2  A    between atoms: N_7  and  C_8
REMARK    3  A    between atoms: C_13  and  C_14
REMARK                            x       y       z     vdW  Elec       q    Type
REMARK                         _______ _______ _______ _____ _____    ______ ____
ROOT
ATOM      1  O   UNL     1       0.967   6.550  21.236  0.00  0.00    +0.000 OA
ATOM      2  C   UNL     1       1.845   6.113  20.505  0.00  0.00    +0.000 C 
ATOM      3  N   UNL     1       2.442   6.729  19.428  0.00  0.00    +0.000 N 
ATOM      4  C   UNL     1       2.119   7.999  19.003  0.00  0.00    +0.000 A 
ATOM      5  C   UNL     1       2.578   8.598  17.806  0.00  0.00    +0.000 A 
ATOM      6  C   UNL     1       1.958   9.825  17.760  0.00  0.00    +0.000 A 
ATOM      7  N   UNL     1       1.315   9.970  18.966  0.00  0.00    +0.000 N 
ATOM      8  N   UNL     1       1.323   8.826  19.673  0.00  0.00    +0.000 NA
ATOM      9  H   UNL     1       3.112   6.216  18.877  0.00  0.00    +0.000 HD
ENDROOT
BRANCH   2  10
ATOM     10  C   UNL     1       2.328   4.713  20.704  0.00  0.00    +0.000 C 
ATOM     11  C   UNL     1       1.344   3.574  20.831  0.00  0.00    +0.000 C 
ATOM     12  C   UNL     1       2.194   3.687  19.586  0.00  0.00    +0.000 C 
ATOM     13  C   UNL     1       1.504   3.992  18.271  0.00  0.00    +0.000 C 
ATOM     14  C   UNL     1       2.343   3.257  17.223  0.00  0.00    +0.000 C 
ATOM     15  C   UNL     1       2.946   2.085  17.988  0.00  0.00    +0.000 C 
ATOM     16  C   UNL     1       3.299   2.691  19.344  0.00  0.00    +0.000 C 
ENDBRANCH   2  10
BRANCH   7  17
ATOM     17  C   UNL     1       0.623  11.115  19.439  0.00  0.00    +0.000 A 
ATOM     18  N   UNL     1       1.313  11.925  20.299  0.00  0.00    +0.000 NA
ATOM     19  C   UNL     1       0.742  13.096  20.646  0.00  0.00    +0.000 A 
ATOM     20  C   UNL     1      -0.510  13.490  20.219  0.00  0.00    +0.000 A 
ATOM     21  C   UNL     1      -1.225  12.625  19.402  0.00  0.00    +0.000 A 
ATOM     22  C   UNL     1      -0.676  11.392  19.005  0.00  0.00    +0.000 A 
BRANCH  22  23
ATOM     23  C   UNL     1      -1.567  10.437  18.249  0.00  0.00    +0.000 C 
ATOM     24  F   UNL     1      -1.086   9.922  17.088  0.00  0.00    +0.000 F 
ATOM     25  F   UNL     1      -1.793   9.315  19.011  0.00  0.00    +0.000 F 
ATOM     26  F   UNL     1      -2.807  10.937  18.004  0.00  0.00    +0.000 F 
ENDBRANCH  22  23
ENDBRANCH   7  17
TORSDOF 3
ENDMDL
MODEL 6
REMARK VINA RESULT:      -7.8      5.198      7.030
REMARK  Name = 
REMARK  3 active torsions:
REMARK  status: ('A' for Active; 'I' for Inactive)
REMARK    1  A    between atoms: C_2  and  C_19
REMARK    2  A    between atoms: N_7  and  C_8
REMARK    3  A    between atoms: C_13  and  C_14
REMARK                            x       y       z     vdW  Elec       q    Type
REMARK                         _______ _______ _______ _____ _____    ______ ____
ROOT
ATOM      1  O   UNL     1       2.456   9.183  17.576  0.00  0.00    +0.000 OA
ATOM      2  C   UNL     1       1.978   9.006  18.688  0.00  0.00    +0.000 C 
ATOM      3  N   UNL     1       2.054   7.882  19.480  0.00  0.00    +0.000 N 
ATOM      4  C   UNL     1       2.722   6.735  19.111  0.00  0.00    +0.000 A 
ATOM      5  C   UNL     1       2.678   5.506  19.810  0.00  0.00    +0.000 A 
ATOM      6  C   UNL     1       3.430   4.637  19.053  0.00  0.00    +0.000 A 
ATOM      7  N   UNL     1       4.007   5.397  18.065  0.00  0.00    +0.000 N 
ATOM      8  N   UNL     1       3.497   6.642  18.034  0.00  0.00    +0.000 NA
ATOM      9  H   UNL     1       1.553   7.860  20.354  0.00  0.00    +0.000 HD
ENDROOT
BRANCH   2  10
ATOM     10  C   UNL     1       1.134  10.078  19.296  0.00  0.00    +0.000 C 
ATOM     11  C   UNL     1       1.000  11.423  18.622  0.00  0.00    +0.000 C 
ATOM     12  C   UNL     1      -0.183  10.483  18.644  0.00  0.00    +0.000 C 
ATOM     13  C   UNL     1      -0.660   9.898  17.330  0.00  0.00    +0.000 C 
ATOM     14  C   UNL     1      -2.173   9.749  17.508  0.00  0.00    +0.000 C 
ATOM     15  C   UNL     1      -2.537  10.838  18.509  0.00  0.00    +0.000 C 
ATOM     16  C   UNL     1      -1.378  10.807  19.503  0.00  0.00    +0.000 C 
ENDBRANCH   2  10
BRANCH   7  17
ATOM     17  C   UNL     1       4.955   4.974  17.098  0.00  0.00    +0.000 A 
ATOM     18  N   UNL     1       4.454   4.316  16.008  0.00  0.00    +0.000 NA
ATOM     19  C   UNL     1       5.306   4.037  15.002  0.00  0.00    +0.000 A 
ATOM     20  C   UNL     1       6.653   4.335  15.038  0.00  0.00    +0.000 A 
ATOM     21  C   UNL     1       7.159   4.941  16.181  0.00  0.00    +0.000 A 
ATOM     22  C   UNL     1       6.314   5.259  17.260  0.00  0.00    +0.000 A 
BRANCH  22  23
ATOM     23  C   UNL     1       6.954   5.770  18.526  0.00  0.00    +0.000 C 
ATOM     24  F   UNL     1       6.281   5.573  19.690  0.00  0.00    +0.000 F 
ATOM     25  F   UNL     1       8.140   5.107  18.744  0.00  0.00    +0.000 F 
ATOM     26  F   UNL     1       7.305   7.082  18.462  0.00  0.00    +0.000 F 
ENDBRANCH  22  23
ENDBRANCH   7  17
TORSDOF 3
ENDMDL
MODEL 7
REMARK VINA RESULT:      -7.7      6.626      8.509
REMARK  Name = 
REMARK  3 active torsions:
REMARK  status: ('A' for Active; 'I' for Inactive)
REMARK    1  A    between atoms: C_2  and  C_19
REMARK    2  A    between atoms: N_7  and  C_8
REMARK    3  A    between atoms: C_13  and  C_14
REMARK                            x       y       z     vdW  Elec       q    Type
REMARK                         _______ _______ _______ _____ _____    ______ ____
ROOT
ATOM      1  O   UNL     1      -0.018   8.853  20.972  0.00  0.00    +0.000 OA
ATOM      2  C   UNL     1       0.358   9.540  20.032  0.00  0.00    +0.000 C 
ATOM      3  N   UNL     1       1.288   9.226  19.066  0.00  0.00    +0.000 N 
ATOM      4  C   UNL     1       1.958   8.024  19.016  0.00  0.00    +0.000 A 
ATOM      5  C   UNL     1       3.038   7.728  18.151  0.00  0.00    +0.000 A 
ATOM      6  C   UNL     1       3.430   6.454  18.492  0.00  0.00    +0.000 A 
ATOM      7  N   UNL     1       2.497   5.998  19.390  0.00  0.00    +0.000 N 
ATOM      8  N   UNL     1       1.668   6.980  19.788  0.00  0.00    +0.000 NA
ATOM      9  H   UNL     1       1.543   9.923  18.384  0.00  0.00    +0.000 HD
ENDROOT
BRANCH   2  10
ATOM     10  C   UNL     1      -0.162  10.933  19.896  0.00  0.00    +0.000 C 
ATOM     11  C   UNL     1       0.097  11.728  18.637  0.00  0.00    +0.000 C 
ATOM     12  C   UNL     1      -1.302  11.238  18.931  0.00  0.00    +0.000 C 
ATOM     13  C   UNL     1      -1.903  10.190  18.015  0.00  0.00    +0.000 C 
ATOM     14  C   UNL     1      -3.399  10.509  18.004  0.00  0.00    +0.000 C 
ATOM     15  C   UNL     1      -3.461  12.008  18.271  0.00  0.00    +0.000 C 
ATOM     16  C   UNL     1      -2.373  12.224  19.321  0.00  0.00    +0.000 C 
ENDBRANCH   2  10
BRANCH   7  17
ATOM     17  C   UNL     1       2.407   4.698  19.951  0.00  0.00    +0.000 A 
ATOM     18  N   UNL     1       2.488   4.621  21.315  0.00  0.00    +0.000 NA
ATOM     19  C   UNL     1       2.253   3.422  21.886  0.00  0.00    +0.000 A 
ATOM     20  C   UNL     1       1.988   2.274  21.169  0.00  0.00    +0.000 A 
ATOM     21  C   UNL     1       1.977   2.355  19.783  0.00  0.00    +0.000 A 
ATOM     22  C   UNL     1       2.210   3.581  19.133  0.00  0.00    +0.000 A 
BRANCH  22  23
ATOM     23  C   UNL     1       2.340   3.565  17.630  0.00  0.00    +0.000 C 
ATOM     24  F   UNL     1       3.541   3.919  17.104  0.00  0.00    +0.000 F 
ATOM     25  F   UNL     1       2.169   2.282  17.166  0.00  0.00    +0.000 F 
ATOM     26  F   UNL     1       1.376   4.286  16.998  0.00  0.00    +0.000 F 
ENDBRANCH  22  23
ENDBRANCH   7  17
TORSDOF 3
ENDMDL
MODEL 8
REMARK VINA RESULT:      -7.6      5.686      6.559
REMARK  Name = 
REMARK  3 active torsions:
REMARK  status: ('A' for Active; 'I' for Inactive)
REMARK    1  A    between atoms: C_2  and  C_19
REMARK    2  A    between atoms: N_7  and  C_8
REMARK    3  A    between atoms: C_13  and  C_14
REMARK                            x       y       z     vdW  Elec       q    Type
REMARK                         _______ _______ _______ _____ _____    ______ ____
ROOT
ATOM      1  O   UNL     1       1.156   9.970  17.637  0.00  0.00    +0.000 OA
ATOM      2  C   UNL     1       0.826  10.066  18.811  0.00  0.00    +0.000 C 
ATOM      3  N   UNL     1       1.073   9.185  19.840  0.00  0.00    +0.000 N 
ATOM      4  C   UNL     1       1.771   8.009  19.684  0.00  0.00    +0.000 A 
ATOM      5  C   UNL     1       1.897   6.999  20.667  0.00  0.00    +0.000 A 
ATOM      6  C   UNL     1       2.613   5.995  20.058  0.00  0.00    +0.000 A 
ATOM      7  N   UNL     1       3.015   6.498  18.845  0.00  0.00    +0.000 N 
ATOM      8  N   UNL     1       2.419   7.672  18.572  0.00  0.00    +0.000 NA
ATOM      9  H   UNL     1       0.681   9.370  20.750  0.00  0.00    +0.000 HD
ENDROOT
BRANCH   2  10
ATOM     10  C   UNL     1      -0.015  11.225  19.238  0.00  0.00    +0.000 C 
ATOM     11  C   UNL     1       0.169  11.842  20.604  0.00  0.00    +0.000 C 
ATOM     12  C   UNL     1       0.601  12.612  19.378  0.00  0.00    +0.000 C 
ATOM     13  C   UNL     1       2.080  12.876  19.180  0.00  0.00    +0.000 C 
ATOM     14  C   UNL     1       2.133  14.232  18.473  0.00  0.00    +0.000 C 
ATOM     15  C   UNL     1       0.866  14.941  18.936  0.00  0.00    +0.000 C 
ATOM     16  C   UNL     1      -0.179  13.827  18.945  0.00  0.00    +0.000 C 
ENDBRANCH   2  10
BRANCH   7  17
ATOM     17  C   UNL     1       3.870   5.877  17.898  0.00  0.00    +0.000 A 
ATOM     18  N   UNL     1       4.969   6.597  17.513  0.00  0.00    +0.000 NA
ATOM     19  C   UNL     1       5.878   5.977  16.734  0.00  0.00    +0.000 A 
ATOM     20  C   UNL     1       5.732   4.685  16.271  0.00  0.00    +0.000 A 
ATOM     21  C   UNL     1       4.579   3.993  16.615  0.00  0.00    +0.000 A 
ATOM     22  C   UNL     1       3.599   4.589  17.429  0.00  0.00    +0.000 A 
BRANCH  22  23
ATOM     23  C   UNL     1       2.305   3.840  17.632  0.00  0.00    +0.000 C 
ATOM     24  F   UNL     1       1.152   4.493  17.331  0.00  0.00    +0.000 F 
ATOM     25  F   UNL     1       2.266   2.750  16.794  0.00  0.00    +0.000 F 
ATOM     26  F   UNL     1       2.176   3.314  18.879  0.00  0.00    +0.000 F 
ENDBRANCH  22  23
ENDBRANCH   7  17
TORSDOF 3
ENDMDL
MODEL 9
REMARK VINA RESULT:      -7.5      6.406      8.648
REMARK  Name = 
REMARK  3 active torsions:
REMARK  status: ('A' for Active; 'I' for Inactive)
REMARK    1  A    between atoms: C_2  and  C_19
REMARK    2  A    between atoms: N_7  and  C_8
REMARK    3  A    between atoms: C_13  and  C_14
REMARK                            x       y       z     vdW  Elec       q    Type
REMARK                         _______ _______ _______ _____ _____    ______ ____
ROOT
ATOM      1  O   UNL     1       3.369   7.943  17.527  0.00  0.00    +0.000 OA
ATOM      2  C   UNL     1       3.160   7.006  18.285  0.00  0.00    +0.000 C 
ATOM      3  N   UNL     1       2.407   6.994  19.438  0.00  0.00    +0.000 N 
ATOM      4  C   UNL     1       1.742   8.097  19.923  0.00  0.00    +0.000 A 
ATOM      5  C   UNL     1       1.106   8.175  21.186  0.00  0.00    +0.000 A 
ATOM      6  C   UNL     1       0.638   9.466  21.270  0.00  0.00    +0.000 A 
ATOM      7  N   UNL     1       0.855  10.030  20.037  0.00  0.00    +0.000 N 
ATOM      8  N   UNL     1       1.617   9.241  19.257  0.00  0.00    +0.000 NA
ATOM      9  H   UNL     1       2.378   6.156  19.997  0.00  0.00    +0.000 HD
ENDROOT
BRANCH   2  10
ATOM     10  C   UNL     1       3.833   5.698  18.026  0.00  0.00    +0.000 C 
ATOM     11  C   UNL     1       4.301   5.338  16.635  0.00  0.00    +0.000 C 
ATOM     12  C   UNL     1       5.322   5.648  17.706  0.00  0.00    +0.000 C 
ATOM     13  C   UNL     1       6.169   6.895  17.551  0.00  0.00    +0.000 C 
ATOM     14  C   UNL     1       7.512   6.524  18.185  0.00  0.00    +0.000 C 
ATOM     15  C   UNL     1       7.602   5.014  18.003  0.00  0.00    +0.000 C 
ATOM     16  C   UNL     1       6.175   4.540  18.268  0.00  0.00    +0.000 C 
ENDBRANCH   2  10
BRANCH   7  17
ATOM     17  C   UNL     1       0.446  11.314  19.595  0.00  0.00    +0.000 A 
ATOM     18  N   UNL     1       1.066  12.382  20.185  0.00  0.00    +0.000 NA
ATOM     19  C   UNL     1       0.812  13.607  19.682  0.00  0.00    +0.000 A 
ATOM     20  C   UNL     1      -0.069  13.838  18.645  0.00  0.00    +0.000 A 
ATOM     21  C   UNL     1      -0.742  12.751  18.104  0.00  0.00    +0.000 A 
ATOM     22  C   UNL     1      -0.512  11.449  18.587  0.00  0.00    +0.000 A 
BRANCH  22  23
ATOM     23  C   UNL     1      -1.390  10.341  18.062  0.00  0.00    +0.000 C 
ATOM     24  F   UNL     1      -2.048   9.580  18.975  0.00  0.00    +0.000 F 
ATOM     25  F   UNL     1      -2.414  10.876  17.316  0.00  0.00    +0.000 F 
ATOM     26  F   UNL     1      -0.747   9.504  17.205  0.00  0.00    +0.000 F 
ENDBRANCH  22  23
ENDBRANCH   7  17
TORSDOF 3
ENDMDL
