MODEL 1
REMARK VINA RESULT:      -7.9      0.000      0.000
REMARK  Name = 
REMARK  3 active torsions:
REMARK  status: ('A' for Active; 'I' for Inactive)
REMARK    1  A    between atoms: C_1  and  C_2
REMARK    2  A    between atoms: C_5  and  C_6
REMARK    3  A    between atoms: C_12  and  C_13
REMARK                            x       y       z     vdW  Elec       q    Type
REMARK                         _______ _______ _______ _____ _____    ______ ____
ROOT
ATOM      1  C   UNL     1       1.593  11.348  18.538  0.00  0.00    +0.000 C 
ATOM      2  O   UNL     1       2.308  11.107  17.562  0.00  0.00    +0.000 OA
ATOM      3  N   UNL     1       1.318  10.360  19.504  0.00  0.00    +0.000 N 
ATOM      4  C   UNL     1       0.361  10.528  20.602  0.00  0.00    +0.000 C 
ATOM      5  C   UNL     1       0.654   9.667  21.815  0.00  0.00    +0.000 C 
ATOM      6  C   UNL     1       0.791   8.213  21.418  0.00  0.00    +0.000 C 
ATOM      7  C   UNL     1       1.889   8.050  20.360  0.00  0.00    +0.000 C 
ATOM      8  C   UNL     1       1.634   8.964  19.145  0.00  0.00    +0.000 C 
ENDROOT
BRANCH   7   9
ATOM      9  C   UNL     1       1.985   6.607  19.963  0.00  0.00    +0.000 A 
ATOM     10  N   UNL     1       2.226   6.152  18.754  0.00  0.00    +0.000 NA
ATOM     11  C   UNL     1       2.076   4.792  18.825  0.00  0.00    +0.000 A 
ATOM     12  C   UNL     1       2.172   3.827  17.816  0.00  0.00    +0.000 A 
ATOM     13  C   UNL     1       1.961   2.482  18.149  0.00  0.00    +0.000 A 
ATOM     14  C   UNL     1       1.660   2.113  19.464  0.00  0.00    +0.000 A 
ATOM     15  C   UNL     1       1.558   3.068  20.484  0.00  0.00    +0.000 A 
ATOM     16  C   UNL     1       1.771   4.398  20.118  0.00  0.00    +0.000 A 
ATOM     17  N   UNL     1       1.736   5.573  20.833  0.00  0.00    +0.000 N 
ATOM     18  H   UNL     1       1.520   5.661  21.811  0.00  0.00    +0.000 HD
ENDBRANCH   7   9
BRANCH   1  23
ATOM     19  C   UNL     1      -0.607  16.724  19.144  0.00  0.00    +0.000 C 
ATOM     20  C   UNL     1      -0.032  15.345  19.063  0.00  0.00    +0.000 A 
ATOM     21  C   UNL     1       1.243  15.065  19.363  0.00  0.00    +0.000 A 
ATOM     22  C   UNL     1       1.720  13.708  19.287  0.00  0.00    +0.000 A 
ATOM     23  C   UNL     1       1.011  12.722  18.703  0.00  0.00    +0.000 A 
ATOM     24  C   UNL     1      -0.427  13.024  18.390  0.00  0.00    +0.000 A 
ATOM     25  O   UNL     1      -1.213  12.201  17.933  0.00  0.00    +0.000 OA
ATOM     26  N   UNL     1      -0.848  14.323  18.633  0.00  0.00    +0.000 N 
ATOM     27  H   UNL     1      -1.823  14.504  18.426  0.00  0.00    +0.000 HD
ENDBRANCH   1  23
TORSDOF 2
ENDMDL
MODEL 2
REMARK VINA RESULT:      -7.7      3.486      4.212
REMARK  Name = 
REMARK  3 active torsions:
REMARK  status: ('A' for Active; 'I' for Inactive)
REMARK    1  A    between atoms: C_1  and  C_2
REMARK    2  A    between atoms: C_5  and  C_6
REMARK    3  A    between atoms: C_12  and  C_13
REMARK                            x       y       z     vdW  Elec       q    Type
REMARK                         _______ _______ _______ _____ _____    ______ ____
ROOT
ATOM      1  C   UNL     1      -0.520  10.909  22.577  0.00  0.00    +0.000 C 
ATOM      2  O   UNL     1      -0.055  10.190  23.465  0.00  0.00    +0.000 OA
ATOM      3  N   UNL     1      -0.290  10.629  21.215  0.00  0.00    +0.000 N 
ATOM      4  C   UNL     1      -0.680  11.518  20.116  0.00  0.00    +0.000 C 
ATOM      5  C   UNL     1      -0.912  10.808  18.797  0.00  0.00    +0.000 C 
ATOM      6  C   UNL     1       0.290   9.965  18.427  0.00  0.00    +0.000 C 
ATOM      7  C   UNL     1       0.597   8.955  19.540  0.00  0.00    +0.000 C 
ATOM      8  C   UNL     1       0.777   9.660  20.899  0.00  0.00    +0.000 C 
ENDROOT
BRANCH   7   9
ATOM      9  C   UNL     1       1.807   8.154  19.163  0.00  0.00    +0.000 A 
ATOM     10  N   UNL     1       2.502   8.276  18.054  0.00  0.00    +0.000 NA
ATOM     11  C   UNL     1       3.415   7.256  18.065  0.00  0.00    +0.000 A 
ATOM     12  C   UNL     1       4.367   6.895  17.104  0.00  0.00    +0.000 A 
ATOM     13  C   UNL     1       5.188   5.787  17.353  0.00  0.00    +0.000 A 
ATOM     14  C   UNL     1       5.058   5.056  18.539  0.00  0.00    +0.000 A 
ATOM     15  C   UNL     1       4.107   5.403  19.509  0.00  0.00    +0.000 A 
ATOM     16  C   UNL     1       3.305   6.510  19.229  0.00  0.00    +0.000 A 
ATOM     17  N   UNL     1       2.282   7.113  19.924  0.00  0.00    +0.000 N 
ATOM     18  H   UNL     1       1.917   6.815  20.812  0.00  0.00    +0.000 HD
ENDBRANCH   7   9
BRANCH   1  23
ATOM     19  C   UNL     1      -3.778  15.507  24.111  0.00  0.00    +0.000 C 
ATOM     20  C   UNL     1      -2.992  14.315  23.662  0.00  0.00    +0.000 A 
ATOM     21  C   UNL     1      -3.466  13.064  23.715  0.00  0.00    +0.000 A 
ATOM     22  C   UNL     1      -2.661  11.967  23.240  0.00  0.00    +0.000 A 
ATOM     23  C   UNL     1      -1.351  12.101  22.954  0.00  0.00    +0.000 A 
ATOM     24  C   UNL     1      -0.822  13.504  22.868  0.00  0.00    +0.000 A 
ATOM     25  O   UNL     1       0.326  13.782  22.539  0.00  0.00    +0.000 OA
ATOM     26  N   UNL     1      -1.711  14.516  23.200  0.00  0.00    +0.000 N 
ATOM     27  H   UNL     1      -1.339  15.455  23.125  0.00  0.00    +0.000 HD
ENDBRANCH   1  23
TORSDOF 2
ENDMDL
MODEL 3
REMARK VINA RESULT:      -7.6      0.388      1.222
REMARK  Name = 
REMARK  3 active torsions:
REMARK  status: ('A' for Active; 'I' for Inactive)
REMARK    1  A    between atoms: C_1  and  C_2
REMARK    2  A    between atoms: C_5  and  C_6
REMARK    3  A    between atoms: C_12  and  C_13
REMARK                            x       y       z     vdW  Elec       q    Type
REMARK                         _______ _______ _______ _____ _____    ______ ____
ROOT
ATOM      1  C   UNL     1       1.554  11.167  18.524  0.00  0.00    +0.000 C 
ATOM      2  O   UNL     1       2.197  10.943  17.496  0.00  0.00    +0.000 OA
ATOM      3  N   UNL     1       1.322  10.155  19.476  0.00  0.00    +0.000 N 
ATOM      4  C   UNL     1       0.444  10.309  20.641  0.00  0.00    +0.000 C 
ATOM      5  C   UNL     1       0.796   9.405  21.806  0.00  0.00    +0.000 C 
ATOM      6  C   UNL     1       0.874   7.961  21.356  0.00  0.00    +0.000 C 
ATOM      7  C   UNL     1       1.895   7.808  20.223  0.00  0.00    +0.000 C 
ATOM      8  C   UNL     1       1.581   8.765  19.055  0.00  0.00    +0.000 C 
ENDROOT
BRANCH   7   9
ATOM      9  C   UNL     1       1.931   6.377  19.777  0.00  0.00    +0.000 A 
ATOM     10  N   UNL     1       1.682   5.326  20.526  0.00  0.00    +0.000 NA
ATOM     11  C   UNL     1       1.975   4.233  19.755  0.00  0.00    +0.000 A 
ATOM     12  C   UNL     1       1.934   2.872  20.077  0.00  0.00    +0.000 A 
ATOM     13  C   UNL     1       2.298   1.937  19.099  0.00  0.00    +0.000 A 
ATOM     14  C   UNL     1       2.695   2.357  17.825  0.00  0.00    +0.000 A 
ATOM     15  C   UNL     1       2.746   3.717  17.489  0.00  0.00    +0.000 A 
ATOM     16  C   UNL     1       2.379   4.621  18.486  0.00  0.00    +0.000 A 
ATOM     17  N   UNL     1       2.326   5.996  18.517  0.00  0.00    +0.000 N 
ATOM     18  H   UNL     1       2.576   6.612  17.763  0.00  0.00    +0.000 HD
ENDBRANCH   7   9
BRANCH   1  23
ATOM     19  C   UNL     1      -0.474  16.566  19.444  0.00  0.00    +0.000 C 
ATOM     20  C   UNL     1       0.055  15.176  19.282  0.00  0.00    +0.000 A 
ATOM     21  C   UNL     1       1.313  14.833  19.587  0.00  0.00    +0.000 A 
ATOM     22  C   UNL     1       1.746  13.467  19.430  0.00  0.00    +0.000 A 
ATOM     23  C   UNL     1       1.015  12.547  18.769  0.00  0.00    +0.000 A 
ATOM     24  C   UNL     1      -0.404  12.919  18.451  0.00  0.00    +0.000 A 
ATOM     25  O   UNL     1      -1.208  12.157  17.926  0.00  0.00    +0.000 OA
ATOM     26  N   UNL     1      -0.786  14.214  18.771  0.00  0.00    +0.000 N 
ATOM     27  H   UNL     1      -1.750  14.442  18.559  0.00  0.00    +0.000 HD
ENDBRANCH   1  23
TORSDOF 2
ENDMDL
MODEL 4
REMARK VINA RESULT:      -7.2      0.985      1.408
REMARK  Name = 
REMARK  3 active torsions:
REMARK  status: ('A' for Active; 'I' for Inactive)
REMARK    1  A    between atoms: C_1  and  C_2
REMARK    2  A    between atoms: C_5  and  C_6
REMARK    3  A    between atoms: C_12  and  C_13
REMARK                            x       y       z     vdW  Elec       q    Type
REMARK                         _______ _______ _______ _____ _____    ______ ____
ROOT
ATOM      1  C   UNL     1       1.669  11.337  18.758  0.00  0.00    +0.000 C 
ATOM      2  O   UNL     1       2.405  11.133  17.790  0.00  0.00    +0.000 OA
ATOM      3  N   UNL     1       1.352  10.307  19.666  0.00  0.00    +0.000 N 
ATOM      4  C   UNL     1       0.369  10.436  20.746  0.00  0.00    +0.000 C 
ATOM      5  C   UNL     1       0.616   9.511  21.922  0.00  0.00    +0.000 C 
ATOM      6  C   UNL     1       0.740   8.076  21.455  0.00  0.00    +0.000 C 
ATOM      7  C   UNL     1       1.863   7.947  20.419  0.00  0.00    +0.000 C 
ATOM      8  C   UNL     1       1.655   8.925  19.245  0.00  0.00    +0.000 C 
ENDROOT
BRANCH   7   9
ATOM      9  C   UNL     1       1.946   6.524  19.952  0.00  0.00    +0.000 A 
ATOM     10  N   UNL     1       2.473   6.111  18.822  0.00  0.00    +0.000 NA
ATOM     11  C   UNL     1       2.198   4.771  18.745  0.00  0.00    +0.000 A 
ATOM     12  C   UNL     1       2.488   3.855  17.727  0.00  0.00    +0.000 A 
ATOM     13  C   UNL     1       2.084   2.522  17.887  0.00  0.00    +0.000 A 
ATOM     14  C   UNL     1       1.404   2.117  19.040  0.00  0.00    +0.000 A 
ATOM     15  C   UNL     1       1.104   3.023  20.066  0.00  0.00    +0.000 A 
ATOM     16  C   UNL     1       1.518   4.342  19.874  0.00  0.00    +0.000 A 
ATOM     17  N   UNL     1       1.384   5.477  20.642  0.00  0.00    +0.000 N 
ATOM     18  H   UNL     1       0.915   5.536  21.529  0.00  0.00    +0.000 HD
ENDBRANCH   7   9
BRANCH   1  23
ATOM     19  C   UNL     1      -0.596  16.647  19.641  0.00  0.00    +0.000 C 
ATOM     20  C   UNL     1      -0.024  15.297  19.341  0.00  0.00    +0.000 A 
ATOM     21  C   UNL     1      -0.736  14.310  18.784  0.00  0.00    +0.000 A 
ATOM     22  C   UNL     1      -0.112  13.042  18.499  0.00  0.00    +0.000 A 
ATOM     23  C   UNL     1       1.104  12.711  18.977  0.00  0.00    +0.000 A 
ATOM     24  C   UNL     1       1.916  13.822  19.578  0.00  0.00    +0.000 A 
ATOM     25  O   UNL     1       3.066  13.687  19.980  0.00  0.00    +0.000 OA
ATOM     26  N   UNL     1       1.287  15.055  19.680  0.00  0.00    +0.000 N 
ATOM     27  H   UNL     1       1.854  15.793  20.078  0.00  0.00    +0.000 HD
ENDBRANCH   1  23
TORSDOF 2
ENDMDL
MODEL 5
REMARK VINA RESULT:      -7.2      2.721      3.441
REMARK  Name = 
REMARK  3 active torsions:
REMARK  status: ('A' for Active; 'I' for Inactive)
REMARK    1  A    between atoms: C_1  and  C_2
REMARK    2  A    between atoms: C_5  and  C_6
REMARK    3  A    between atoms: C_12  and  C_13
REMARK                            x       y       z     vdW  Elec       q    Type
REMARK                         _______ _______ _______ _____ _____    ______ ____
ROOT
ATOM      1  C   UNL     1       0.135  11.230  19.394  0.00  0.00    +0.000 C 
ATOM      2  O   UNL     1       0.672  11.754  18.415  0.00  0.00    +0.000 OA
ATOM      3  N   UNL     1       0.523   9.953  19.845  0.00  0.00    +0.000 N 
ATOM      4  C   UNL     1      -0.170   9.208  20.902  0.00  0.00    +0.000 C 
ATOM      5  C   UNL     1       0.708   8.214  21.636  0.00  0.00    +0.000 C 
ATOM      6  C   UNL     1       1.392   7.282  20.659  0.00  0.00    +0.000 C 
ATOM      7  C   UNL     1       2.214   8.083  19.643  0.00  0.00    +0.000 C 
ATOM      8  C   UNL     1       1.345   9.139  18.929  0.00  0.00    +0.000 C 
ENDROOT
BRANCH   7   9
ATOM      9  C   UNL     1       2.857   7.140  18.670  0.00  0.00    +0.000 A 
ATOM     10  N   UNL     1       2.785   5.828  18.702  0.00  0.00    +0.000 NA
ATOM     11  C   UNL     1       3.633   5.379  17.724  0.00  0.00    +0.000 A 
ATOM     12  C   UNL     1       3.971   4.070  17.364  0.00  0.00    +0.000 A 
ATOM     13  C   UNL     1       4.885   3.874  16.319  0.00  0.00    +0.000 A 
ATOM     14  C   UNL     1       5.448   4.966  15.651  0.00  0.00    +0.000 A 
ATOM     15  C   UNL     1       5.122   6.283  16.003  0.00  0.00    +0.000 A 
ATOM     16  C   UNL     1       4.211   6.443  17.048  0.00  0.00    +0.000 A 
ATOM     17  N   UNL     1       3.686   7.560  17.658  0.00  0.00    +0.000 N 
ATOM     18  H   UNL     1       3.908   8.514  17.431  0.00  0.00    +0.000 HD
ENDBRANCH   7   9
BRANCH   1  23
ATOM     19  C   UNL     1      -4.131  14.044  22.222  0.00  0.00    +0.000 C 
ATOM     20  C   UNL     1      -3.049  13.369  21.439  0.00  0.00    +0.000 A 
ATOM     21  C   UNL     1      -3.281  12.685  20.312  0.00  0.00    +0.000 A 
ATOM     22  C   UNL     1      -2.185  12.082  19.596  0.00  0.00    +0.000 A 
ATOM     23  C   UNL     1      -0.949  11.970  20.123  0.00  0.00    +0.000 A 
ATOM     24  C   UNL     1      -0.679  12.758  21.372  0.00  0.00    +0.000 A 
ATOM     25  O   UNL     1       0.418  12.816  21.919  0.00  0.00    +0.000 OA
ATOM     26  N   UNL     1      -1.760  13.434  21.919  0.00  0.00    +0.000 N 
ATOM     27  H   UNL     1      -1.555  13.968  22.754  0.00  0.00    +0.000 HD
ENDBRANCH   1  23
TORSDOF 2
ENDMDL
MODEL 6
REMARK VINA RESULT:      -7.1      1.133      1.856
REMARK  Name = 
REMARK  3 active torsions:
REMARK  status: ('A' for Active; 'I' for Inactive)
REMARK    1  A    between atoms: C_1  and  C_2
REMARK    2  A    between atoms: C_5  and  C_6
REMARK    3  A    between atoms: C_12  and  C_13
REMARK                            x       y       z     vdW  Elec       q    Type
REMARK                         _______ _______ _______ _____ _____    ______ ____
ROOT
ATOM      1  C   UNL     1       1.585  11.335  18.958  0.00  0.00    +0.000 C 
ATOM      2  O   UNL     1       2.267  11.161  17.945  0.00  0.00    +0.000 OA
ATOM      3  N   UNL     1       1.288  10.269  19.830  0.00  0.00    +0.000 N 
ATOM      4  C   UNL     1       0.364  10.368  20.964  0.00  0.00    +0.000 C 
ATOM      5  C   UNL     1       0.644   9.381  22.080  0.00  0.00    +0.000 C 
ATOM      6  C   UNL     1       0.708   7.968  21.539  0.00  0.00    +0.000 C 
ATOM      7  C   UNL     1       1.775   7.863  20.443  0.00  0.00    +0.000 C 
ATOM      8  C   UNL     1       1.534   8.903  19.329  0.00  0.00    +0.000 C 
ENDROOT
BRANCH   7   9
ATOM      9  C   UNL     1       1.797   6.464  19.905  0.00  0.00    +0.000 A 
ATOM     10  N   UNL     1       1.402   5.384  20.541  0.00  0.00    +0.000 NA
ATOM     11  C   UNL     1       1.738   4.327  19.736  0.00  0.00    +0.000 A 
ATOM     12  C   UNL     1       1.589   2.953  19.954  0.00  0.00    +0.000 A 
ATOM     13  C   UNL     1       2.029   2.063  18.964  0.00  0.00    +0.000 A 
ATOM     14  C   UNL     1       2.607   2.541  17.783  0.00  0.00    +0.000 A 
ATOM     15  C   UNL     1       2.766   3.913  17.553  0.00  0.00    +0.000 A 
ATOM     16  C   UNL     1       2.320   4.772  18.558  0.00  0.00    +0.000 A 
ATOM     17  N   UNL     1       2.330   6.143  18.680  0.00  0.00    +0.000 N 
ATOM     18  H   UNL     1       2.706   6.790  18.009  0.00  0.00    +0.000 HD
ENDBRANCH   7   9
BRANCH   1  23
ATOM     19  C   UNL     1      -0.503  16.652  20.173  0.00  0.00    +0.000 C 
ATOM     20  C   UNL     1       0.052  15.314  19.794  0.00  0.00    +0.000 A 
ATOM     21  C   UNL     1      -0.459  14.563  18.812  0.00  0.00    +0.000 A 
ATOM     22  C   UNL     1       0.144  13.296  18.485  0.00  0.00    +0.000 A 
ATOM     23  C   UNL     1       1.068  12.709  19.271  0.00  0.00    +0.000 A 
ATOM     24  C   UNL     1       1.664  13.559  20.356  0.00  0.00    +0.000 A 
ATOM     25  O   UNL     1       2.568  13.187  21.096  0.00  0.00    +0.000 OA
ATOM     26  N   UNL     1       1.122  14.827  20.509  0.00  0.00    +0.000 N 
ATOM     27  H   UNL     1       1.545  15.389  21.239  0.00  0.00    +0.000 HD
ENDBRANCH   1  23
TORSDOF 2
ENDMDL
MODEL 7
REMARK VINA RESULT:      -7.0      3.518      4.236
REMARK  Name = 
REMARK  3 active torsions:
REMARK  status: ('A' for Active; 'I' for Inactive)
REMARK    1  A    between atoms: C_1  and  C_2
REMARK    2  A    between atoms: C_5  and  C_6
REMARK    3  A    between atoms: C_12  and  C_13
REMARK                            x       y       z     vdW  Elec       q    Type
REMARK                         _______ _______ _______ _____ _____    ______ ____
ROOT
ATOM      1  C   UNL     1      -0.766  11.562  22.610  0.00  0.00    +0.000 C 
ATOM      2  O   UNL     1      -0.470  10.743  23.483  0.00  0.00    +0.000 OA
ATOM      3  N   UNL     1      -0.467  11.324  21.253  0.00  0.00    +0.000 N 
ATOM      4  C   UNL     1      -0.651  12.313  20.186  0.00  0.00    +0.000 C 
ATOM      5  C   UNL     1      -0.866  11.708  18.812  0.00  0.00    +0.000 C 
ATOM      6  C   UNL     1       0.243  10.732  18.479  0.00  0.00    +0.000 C 
ATOM      7  C   UNL     1       0.328   9.635  19.547  0.00  0.00    +0.000 C 
ATOM      8  C   UNL     1       0.488  10.239  20.957  0.00  0.00    +0.000 C 
ENDROOT
BRANCH   7   9
ATOM      9  C   UNL     1       1.451   8.700  19.209  0.00  0.00    +0.000 A 
ATOM     10  N   UNL     1       2.182   8.732  18.118  0.00  0.00    +0.000 NA
ATOM     11  C   UNL     1       2.977   7.617  18.164  0.00  0.00    +0.000 A 
ATOM     12  C   UNL     1       3.906   7.142  17.232  0.00  0.00    +0.000 A 
ATOM     13  C   UNL     1       4.593   5.952  17.513  0.00  0.00    +0.000 A 
ATOM     14  C   UNL     1       4.352   5.255  18.701  0.00  0.00    +0.000 A 
ATOM     15  C   UNL     1       3.422   5.716  19.642  0.00  0.00    +0.000 A 
ATOM     16  C   UNL     1       2.755   6.902  19.330  0.00  0.00    +0.000 A 
ATOM     17  N   UNL     1       1.788   7.623  19.993  0.00  0.00    +0.000 N 
ATOM     18  H   UNL     1       1.369   7.377  20.874  0.00  0.00    +0.000 HD
ENDBRANCH   7   9
BRANCH   1  23
ATOM     19  C   UNL     1      -3.451  16.543  24.054  0.00  0.00    +0.000 C 
ATOM     20  C   UNL     1      -2.716  15.277  23.742  0.00  0.00    +0.000 A 
ATOM     21  C   UNL     1      -1.437  15.253  23.348  0.00  0.00    +0.000 A 
ATOM     22  C   UNL     1      -0.786  13.994  23.089  0.00  0.00    +0.000 A 
ATOM     23  C   UNL     1      -1.464  12.833  22.998  0.00  0.00    +0.000 A 
ATOM     24  C   UNL     1      -2.891  12.850  23.465  0.00  0.00    +0.000 A 
ATOM     25  O   UNL     1      -3.605  11.855  23.516  0.00  0.00    +0.000 OA
ATOM     26  N   UNL     1      -3.399  14.086  23.839  0.00  0.00    +0.000 N 
ATOM     27  H   UNL     1      -4.359  14.076  24.161  0.00  0.00    +0.000 HD
ENDBRANCH   1  23
TORSDOF 2
ENDMDL
MODEL 8
REMARK VINA RESULT:      -7.0      3.255      8.381
REMARK  Name = 
REMARK  3 active torsions:
REMARK  status: ('A' for Active; 'I' for Inactive)
REMARK    1  A    between atoms: C_1  and  C_2
REMARK    2  A    between atoms: C_5  and  C_6
REMARK    3  A    between atoms: C_12  and  C_13
REMARK                            x       y       z     vdW  Elec       q    Type
REMARK                         _______ _______ _______ _____ _____    ______ ____
ROOT
ATOM      1  C   UNL     1       2.349   6.818  19.547  0.00  0.00    +0.000 C 
ATOM      2  O   UNL     1       2.049   6.343  20.646  0.00  0.00    +0.000 OA
ATOM      3  N   UNL     1       1.945   8.116  19.178  0.00  0.00    +0.000 N 
ATOM      4  C   UNL     1       2.133   8.686  17.839  0.00  0.00    +0.000 C 
ATOM      5  C   UNL     1       2.212  10.200  17.816  0.00  0.00    +0.000 C 
ATOM      6  C   UNL     1       1.013  10.807  18.513  0.00  0.00    +0.000 C 
ATOM      7  C   UNL     1       0.915  10.292  19.954  0.00  0.00    +0.000 C 
ATOM      8  C   UNL     1       0.893   8.750  19.996  0.00  0.00    +0.000 C 
ENDROOT
BRANCH   7   9
ATOM      9  C   UNL     1      -0.295  10.885  20.612  0.00  0.00    +0.000 A 
ATOM     10  N   UNL     1      -1.219  11.609  20.022  0.00  0.00    +0.000 NA
ATOM     11  C   UNL     1      -2.043  12.057  21.021  0.00  0.00    +0.000 A 
ATOM     12  C   UNL     1      -3.155  12.903  20.952  0.00  0.00    +0.000 A 
ATOM     13  C   UNL     1      -3.831  13.224  22.138  0.00  0.00    +0.000 A 
ATOM     14  C   UNL     1      -3.401  12.708  23.365  0.00  0.00    +0.000 A 
ATOM     15  C   UNL     1      -2.287  11.862  23.450  0.00  0.00    +0.000 A 
ATOM     16  C   UNL     1      -1.636  11.565  22.252  0.00  0.00    +0.000 A 
ATOM     17  N   UNL     1      -0.527  10.802  21.964  0.00  0.00    +0.000 N 
ATOM     18  H   UNL     1       0.040  10.310  22.633  0.00  0.00    +0.000 HD
ENDBRANCH   7   9
BRANCH   1  23
ATOM     19  C   UNL     1       5.587   3.638  15.872  0.00  0.00    +0.000 C 
ATOM     20  C   UNL     1       4.763   4.510  16.766  0.00  0.00    +0.000 A 
ATOM     21  C   UNL     1       5.244   5.608  17.361  0.00  0.00    +0.000 A 
ATOM     22  C   UNL     1       4.383   6.416  18.189  0.00  0.00    +0.000 A 
ATOM     23  C   UNL     1       3.165   6.000  18.589  0.00  0.00    +0.000 A 
ATOM     24  C   UNL     1       2.612   4.784  17.903  0.00  0.00    +0.000 A 
ATOM     25  O   UNL     1       1.488   4.338  18.106  0.00  0.00    +0.000 OA
ATOM     26  N   UNL     1       3.457   4.148  17.006  0.00  0.00    +0.000 N 
ATOM     27  H   UNL     1       3.062   3.336  16.546  0.00  0.00    +0.000 HD
ENDBRANCH   1  23
TORSDOF 2
ENDMDL
MODEL 9
REMARK VINA RESULT:      -7.0      3.267      8.385
REMARK  Name = 
REMARK  3 active torsions:
REMARK  status: ('A' for Active; 'I' for Inactive)
REMARK    1  A    between atoms: C_1  and  C_2
REMARK    2  A    between atoms: C_5  and  C_6
REMARK    3  A    between atoms: C_12  and  C_13
REMARK                            x       y       z     vdW  Elec       q    Type
REMARK                         _______ _______ _______ _____ _____    ______ ____
ROOT
ATOM      1  C   UNL     1       2.203   7.173  19.647  0.00  0.00    +0.000 C 
ATOM      2  O   UNL     1       1.909   6.702  20.749  0.00  0.00    +0.000 OA
ATOM      3  N   UNL     1       1.833   8.486  19.292  0.00  0.00    +0.000 N 
ATOM      4  C   UNL     1       2.015   9.057  17.954  0.00  0.00    +0.000 C 
ATOM      5  C   UNL     1       2.141  10.567  17.937  0.00  0.00    +0.000 C 
ATOM      6  C   UNL     1       0.975  11.209  18.659  0.00  0.00    +0.000 C 
ATOM      7  C   UNL     1       0.888  10.689  20.099  0.00  0.00    +0.000 C 
ATOM      8  C   UNL     1       0.818   9.148  20.133  0.00  0.00    +0.000 C 
ENDROOT
BRANCH   7   9
ATOM      9  C   UNL     1      -0.290  11.316  20.783  0.00  0.00    +0.000 A 
ATOM     10  N   UNL     1      -0.540  11.289  22.072  0.00  0.00    +0.000 NA
ATOM     11  C   UNL     1      -1.780  11.850  22.229  0.00  0.00    +0.000 A 
ATOM     12  C   UNL     1      -2.544  12.025  23.388  0.00  0.00    +0.000 A 
ATOM     13  C   UNL     1      -3.806  12.627  23.278  0.00  0.00    +0.000 A 
ATOM     14  C   UNL     1      -4.290  13.043  22.034  0.00  0.00    +0.000 A 
ATOM     15  C   UNL     1      -3.538  12.872  20.864  0.00  0.00    +0.000 A 
ATOM     16  C   UNL     1      -2.288  12.268  21.008  0.00  0.00    +0.000 A 
ATOM     17  N   UNL     1      -1.310  11.932  20.099  0.00  0.00    +0.000 N 
ATOM     18  H   UNL     1      -1.357  12.073  19.105  0.00  0.00    +0.000 HD
ENDBRANCH   7   9
BRANCH   1  23
ATOM     19  C   UNL     1       5.274   3.929  15.885  0.00  0.00    +0.000 C 
ATOM     20  C   UNL     1       4.478   4.811  16.796  0.00  0.00    +0.000 A 
ATOM     21  C   UNL     1       4.895   6.021  17.188  0.00  0.00    +0.000 A 
ATOM     22  C   UNL     1       4.063   6.827  18.045  0.00  0.00    +0.000 A 
ATOM     23  C   UNL     1       2.975   6.335  18.670  0.00  0.00    +0.000 A 
ATOM     24  C   UNL     1       2.489   4.990  18.212  0.00  0.00    +0.000 A 
ATOM     25  O   UNL     1       1.469   4.453  18.631  0.00  0.00    +0.000 OA
ATOM     26  N   UNL     1       3.274   4.342  17.270  0.00  0.00    +0.000 N 
ATOM     27  H   UNL     1       2.925   3.441  16.966  0.00  0.00    +0.000 HD
ENDBRANCH   1  23
TORSDOF 2
ENDMDL
