MODEL 1
REMARK VINA RESULT:      -9.3      0.000      0.000
REMARK  Name = 
REMARK  6 active torsions:
REMARK  status: ('A' for Active; 'I' for Inactive)
REMARK    1  A    between atoms: C_1  and  C_2
REMARK    2  A    between atoms: C_5  and  C_6
REMARK    3  A    between atoms: C_9  and  C_10
REMARK    4  A    between atoms: C_13  and  C_14
REMARK    5  A    between atoms: C_21  and  C_22
REMARK    6  A    between atoms: C_22  and  O_24
REMARK                            x       y       z     vdW  Elec       q    Type
REMARK                         _______ _______ _______ _____ _____    ______ ____
ROOT
ATOM      1  C   UNL     1       1.007   9.396  19.223  0.00  0.00    +0.000 A 
ATOM      2  C   UNL     1       1.658   9.175  17.999  0.00  0.00    +0.000 A 
ATOM      3  C   UNL     1       2.491   8.057  17.822  0.00  0.00    +0.000 A 
ATOM      4  C   UNL     1       2.709   7.156  18.874  0.00  0.00    +0.000 A 
ATOM      5  C   UNL     1       2.155   7.449  20.116  0.00  0.00    +0.000 A 
ATOM      6  C   UNL     1       1.268   8.514  20.276  0.00  0.00    +0.000 A 
ENDROOT
BRANCH   4   7
ATOM      7  C   UNL     1       3.583   5.963  18.641  0.00  0.00    +0.000 C 
ATOM      8  O   UNL     1       4.710   6.178  18.192  0.00  0.00    +0.000 OA
ATOM      9  N   UNL     1       3.143   4.658  18.932  0.00  0.00    +0.000 N 
ATOM     10  C   UNL     1       4.093   3.538  18.769  0.00  0.00    +0.000 C 
ATOM     11  C   UNL     1       3.572   2.445  17.836  0.00  0.00    +0.000 C 
ATOM     12  C   UNL     1       2.158   2.003  18.194  0.00  0.00    +0.000 C 
ATOM     13  C   UNL     1       1.232   3.206  18.260  0.00  0.00    +0.000 C 
ATOM     14  C   UNL     1       1.745   4.260  19.240  0.00  0.00    +0.000 C 
BRANCH  14  15
ATOM     15  C   UNL     1       1.593   3.817  20.712  0.00  0.00    +0.000 C 
ATOM     16  O   UNL     1       2.333   4.167  21.619  0.00  0.00    +0.000 OA
BRANCH  15  17
ATOM     17  O   UNL     1       0.607   2.904  20.903  0.00  0.00    +0.000 OA
ATOM     18  H   UNL     1      -0.201   3.326  21.265  0.00  0.00    +0.000 HD
ENDBRANCH  15  17
ENDBRANCH  14  15
ENDBRANCH   4   7
BRANCH   1  22
ATOM     19  C   UNL     1      -1.742  11.572  19.222  0.00  0.00    +0.000 A 
ATOM     20  N   UNL     1      -0.909  12.376  19.858  0.00  0.00    +0.000 NA
ATOM     21  N   UNL     1       0.290  11.697  19.968  0.00  0.00    +0.000 NA
ATOM     22  C   UNL     1       0.109  10.521  19.405  0.00  0.00    +0.000 A 
ATOM     23  O   UNL     1      -1.168  10.374  18.906  0.00  0.00    +0.000 OA
BRANCH  19  28
ATOM     24  C   UNL     1      -7.198  12.594  17.590  0.00  0.00    +0.000 C 
ATOM     25  C   UNL     1      -5.792  12.300  18.024  0.00  0.00    +0.000 A 
ATOM     26  C   UNL     1      -5.341  12.662  19.299  0.00  0.00    +0.000 A 
ATOM     27  C   UNL     1      -4.023  12.405  19.683  0.00  0.00    +0.000 A 
ATOM     28  C   UNL     1      -3.123  11.784  18.805  0.00  0.00    +0.000 A 
ATOM     29  C   UNL     1      -3.587  11.405  17.536  0.00  0.00    +0.000 A 
ATOM     30  C   UNL     1      -4.907  11.661  17.150  0.00  0.00    +0.000 A 
ENDBRANCH  19  28
ENDBRANCH   1  22
TORSDOF 5
ENDMDL
MODEL 2
REMARK VINA RESULT:      -9.2      0.184      1.276
REMARK  Name = 
REMARK  6 active torsions:
REMARK  status: ('A' for Active; 'I' for Inactive)
REMARK    1  A    between atoms: C_1  and  C_2
REMARK    2  A    between atoms: C_5  and  C_6
REMARK    3  A    between atoms: C_9  and  C_10
REMARK    4  A    between atoms: C_13  and  C_14
REMARK    5  A    between atoms: C_21  and  C_22
REMARK    6  A    between atoms: C_22  and  O_24
REMARK                            x       y       z     vdW  Elec       q    Type
REMARK                         _______ _______ _______ _____ _____    ______ ____
ROOT
ATOM      1  C   UNL     1       0.979   9.427  19.160  0.00  0.00    +0.000 A 
ATOM      2  C   UNL     1       1.250   8.547  20.220  0.00  0.00    +0.000 A 
ATOM      3  C   UNL     1       2.105   7.447  20.035  0.00  0.00    +0.000 A 
ATOM      4  C   UNL     1       2.681   7.192  18.782  0.00  0.00    +0.000 A 
ATOM      5  C   UNL     1       2.311   8.001  17.712  0.00  0.00    +0.000 A 
ATOM      6  C   UNL     1       1.524   9.137  17.906  0.00  0.00    +0.000 A 
ENDROOT
BRANCH   4   7
ATOM      7  C   UNL     1       3.606   6.025  18.631  0.00  0.00    +0.000 C 
ATOM      8  O   UNL     1       4.752   6.269  18.248  0.00  0.00    +0.000 OA
ATOM      9  N   UNL     1       3.192   4.712  18.923  0.00  0.00    +0.000 N 
ATOM     10  C   UNL     1       4.186   3.622  18.844  0.00  0.00    +0.000 C 
ATOM     11  C   UNL     1       3.761   2.493  17.906  0.00  0.00    +0.000 C 
ATOM     12  C   UNL     1       2.343   2.011  18.185  0.00  0.00    +0.000 C 
ATOM     13  C   UNL     1       1.375   3.182  18.167  0.00  0.00    +0.000 C 
ATOM     14  C   UNL     1       1.791   4.273  19.153  0.00  0.00    +0.000 C 
BRANCH  14  15
ATOM     15  C   UNL     1       1.562   3.855  20.622  0.00  0.00    +0.000 C 
ATOM     16  O   UNL     1       2.274   4.193  21.556  0.00  0.00    +0.000 OA
BRANCH  15  17
ATOM     17  O   UNL     1       0.539   2.978  20.781  0.00  0.00    +0.000 OA
ATOM     18  H   UNL     1      -0.214   3.201  20.194  0.00  0.00    +0.000 HD
ENDBRANCH  15  17
ENDBRANCH  14  15
ENDBRANCH   4   7
BRANCH   1  22
ATOM     19  C   UNL     1      -1.691  11.698  19.257  0.00  0.00    +0.000 A 
ATOM     20  N   UNL     1      -0.782  12.507  19.770  0.00  0.00    +0.000 NA
ATOM     21  N   UNL     1       0.400  11.792  19.821  0.00  0.00    +0.000 NA
ATOM     22  C   UNL     1       0.135  10.592  19.348  0.00  0.00    +0.000 A 
ATOM     23  O   UNL     1      -1.184  10.464  18.968  0.00  0.00    +0.000 OA
BRANCH  19  28
ATOM     24  C   UNL     1      -7.286  12.464  17.999  0.00  0.00    +0.000 C 
ATOM     25  C   UNL     1      -5.829  12.295  18.314  0.00  0.00    +0.000 A 
ATOM     26  C   UNL     1      -4.951  11.731  17.381  0.00  0.00    +0.000 A 
ATOM     27  C   UNL     1      -3.602  11.555  17.694  0.00  0.00    +0.000 A 
ATOM     28  C   UNL     1      -3.095  11.936  18.946  0.00  0.00    +0.000 A 
ATOM     29  C   UNL     1      -3.977  12.521  19.869  0.00  0.00    +0.000 A 
ATOM     30  C   UNL     1      -5.328  12.697  19.557  0.00  0.00    +0.000 A 
ENDBRANCH  19  28
ENDBRANCH   1  22
TORSDOF 5
ENDMDL
MODEL 3
REMARK VINA RESULT:      -9.1      1.750      2.575
REMARK  Name = 
REMARK  6 active torsions:
REMARK  status: ('A' for Active; 'I' for Inactive)
REMARK    1  A    between atoms: C_1  and  C_2
REMARK    2  A    between atoms: C_5  and  C_6
REMARK    3  A    between atoms: C_9  and  C_10
REMARK    4  A    between atoms: C_13  and  C_14
REMARK    5  A    between atoms: C_21  and  C_22
REMARK    6  A    between atoms: C_22  and  O_24
REMARK                            x       y       z     vdW  Elec       q    Type
REMARK                         _______ _______ _______ _____ _____    ______ ____
ROOT
ATOM      1  C   UNL     1       1.140   9.537  19.131  0.00  0.00    +0.000 A 
ATOM      2  C   UNL     1       1.359   8.623  20.173  0.00  0.00    +0.000 A 
ATOM      3  C   UNL     1       2.172   7.493  19.974  0.00  0.00    +0.000 A 
ATOM      4  C   UNL     1       2.755   7.244  18.723  0.00  0.00    +0.000 A 
ATOM      5  C   UNL     1       2.435   8.093  17.668  0.00  0.00    +0.000 A 
ATOM      6  C   UNL     1       1.691   9.254  17.878  0.00  0.00    +0.000 A 
ENDROOT
BRANCH   4   7
ATOM      7  C   UNL     1       3.635   6.044  18.556  0.00  0.00    +0.000 C 
ATOM      8  O   UNL     1       4.782   6.247  18.156  0.00  0.00    +0.000 OA
ATOM      9  N   UNL     1       3.177   4.747  18.855  0.00  0.00    +0.000 N 
ATOM     10  C   UNL     1       4.130   3.622  18.760  0.00  0.00    +0.000 C 
ATOM     11  C   UNL     1       3.649   2.510  17.828  0.00  0.00    +0.000 C 
ATOM     12  C   UNL     1       2.218   2.080  18.129  0.00  0.00    +0.000 C 
ATOM     13  C   UNL     1       1.294   3.286  18.126  0.00  0.00    +0.000 C 
ATOM     14  C   UNL     1       1.765   4.359  19.106  0.00  0.00    +0.000 C 
BRANCH  14  15
ATOM     15  C   UNL     1       1.544   3.948  20.578  0.00  0.00    +0.000 C 
ATOM     16  O   UNL     1       2.254   4.299  21.508  0.00  0.00    +0.000 OA
BRANCH  15  17
ATOM     17  O   UNL     1       0.530   3.062  20.746  0.00  0.00    +0.000 OA
ATOM     18  H   UNL     1       0.365   2.553  19.924  0.00  0.00    +0.000 HD
ENDBRANCH  15  17
ENDBRANCH  14  15
ENDBRANCH   4   7
BRANCH   1  22
ATOM     19  C   UNL     1      -1.137  11.932  20.303  0.00  0.00    +0.000 A 
ATOM     20  N   UNL     1      -0.648  12.657  19.312  0.00  0.00    +0.000 NA
ATOM     21  N   UNL     1       0.302  11.874  18.683  0.00  0.00    +0.000 NA
ATOM     22  C   UNL     1       0.341  10.732  19.335  0.00  0.00    +0.000 A 
ATOM     23  O   UNL     1      -0.554  10.701  20.382  0.00  0.00    +0.000 OA
BRANCH  19  28
ATOM     24  C   UNL     1      -5.405  13.048  24.046  0.00  0.00    +0.000 C 
ATOM     25  C   UNL     1      -4.287  12.788  23.081  0.00  0.00    +0.000 A 
ATOM     26  C   UNL     1      -4.432  13.068  21.717  0.00  0.00    +0.000 A 
ATOM     27  C   UNL     1      -3.393  12.799  20.824  0.00  0.00    +0.000 A 
ATOM     28  C   UNL     1      -2.184  12.243  21.268  0.00  0.00    +0.000 A 
ATOM     29  C   UNL     1      -2.037  11.984  22.641  0.00  0.00    +0.000 A 
ATOM     30  C   UNL     1      -3.077  12.253  23.536  0.00  0.00    +0.000 A 
ENDBRANCH  19  28
ENDBRANCH   1  22
TORSDOF 5
ENDMDL
MODEL 4
REMARK VINA RESULT:      -9.0      0.322      1.111
REMARK  Name = 
REMARK  6 active torsions:
REMARK  status: ('A' for Active; 'I' for Inactive)
REMARK    1  A    between atoms: C_1  and  C_2
REMARK    2  A    between atoms: C_5  and  C_6
REMARK    3  A    between atoms: C_9  and  C_10
REMARK    4  A    between atoms: C_13  and  C_14
REMARK    5  A    between atoms: C_21  and  C_22
REMARK    6  A    between atoms: C_22  and  O_24
REMARK                            x       y       z     vdW  Elec       q    Type
REMARK                         _______ _______ _______ _____ _____    ______ ____
ROOT
ATOM      1  C   UNL     1       0.899   9.510  19.106  0.00  0.00    +0.000 A 
ATOM      2  C   UNL     1       1.224   8.641  20.159  0.00  0.00    +0.000 A 
ATOM      3  C   UNL     1       2.103   7.563  19.952  0.00  0.00    +0.000 A 
ATOM      4  C   UNL     1       2.650   7.321  18.684  0.00  0.00    +0.000 A 
ATOM      5  C   UNL     1       2.228   8.117  17.623  0.00  0.00    +0.000 A 
ATOM      6  C   UNL     1       1.416   9.232  17.837  0.00  0.00    +0.000 A 
ENDROOT
BRANCH   4   7
ATOM      7  C   UNL     1       3.601   6.179  18.508  0.00  0.00    +0.000 C 
ATOM      8  O   UNL     1       4.717   6.448  18.062  0.00  0.00    +0.000 OA
ATOM      9  N   UNL     1       3.243   4.861  18.848  0.00  0.00    +0.000 N 
ATOM     10  C   UNL     1       4.265   3.800  18.740  0.00  0.00    +0.000 C 
ATOM     11  C   UNL     1       3.827   2.638  17.847  0.00  0.00    +0.000 C 
ATOM     12  C   UNL     1       2.440   2.121  18.209  0.00  0.00    +0.000 C 
ATOM     13  C   UNL     1       1.438   3.262  18.218  0.00  0.00    +0.000 C 
ATOM     14  C   UNL     1       1.870   4.386  19.159  0.00  0.00    +0.000 C 
BRANCH  14  15
ATOM     15  C   UNL     1       1.729   3.993  20.645  0.00  0.00    +0.000 C 
ATOM     16  O   UNL     1       0.975   3.127  21.063  0.00  0.00    +0.000 OA
BRANCH  15  17
ATOM     17  O   UNL     1       2.454   4.776  21.483  0.00  0.00    +0.000 OA
ATOM     18  H   UNL     1       3.266   4.316  21.785  0.00  0.00    +0.000 HD
ENDBRANCH  15  17
ENDBRANCH  14  15
ENDBRANCH   4   7
BRANCH   1  22
ATOM     19  C   UNL     1      -1.823  11.714  19.261  0.00  0.00    +0.000 A 
ATOM     20  N   UNL     1      -0.927  12.542  19.767  0.00  0.00    +0.000 NA
ATOM     21  N   UNL     1       0.273  11.855  19.794  0.00  0.00    +0.000 NA
ATOM     22  C   UNL     1       0.030  10.653  19.316  0.00  0.00    +0.000 A 
ATOM     23  O   UNL     1      -1.291  10.495  18.955  0.00  0.00    +0.000 OA
BRANCH  19  28
ATOM     24  C   UNL     1      -7.411  12.709  18.135  0.00  0.00    +0.000 C 
ATOM     25  C   UNL     1      -5.970  12.422  18.439  0.00  0.00    +0.000 A 
ATOM     26  C   UNL     1      -5.404  12.795  19.663  0.00  0.00    +0.000 A 
ATOM     27  C   UNL     1      -4.055  12.546  19.926  0.00  0.00    +0.000 A 
ATOM     28  C   UNL     1      -3.238  11.920  18.973  0.00  0.00    +0.000 A 
ATOM     29  C   UNL     1      -3.817  11.529  17.754  0.00  0.00    +0.000 A 
ATOM     30  C   UNL     1      -5.167  11.778  17.491  0.00  0.00    +0.000 A 
ENDBRANCH  19  28
ENDBRANCH   1  22
TORSDOF 5
ENDMDL
MODEL 5
REMARK VINA RESULT:      -9.0      1.689      2.327
REMARK  Name = 
REMARK  6 active torsions:
REMARK  status: ('A' for Active; 'I' for Inactive)
REMARK    1  A    between atoms: C_1  and  C_2
REMARK    2  A    between atoms: C_5  and  C_6
REMARK    3  A    between atoms: C_9  and  C_10
REMARK    4  A    between atoms: C_13  and  C_14
REMARK    5  A    between atoms: C_21  and  C_22
REMARK    6  A    between atoms: C_22  and  O_24
REMARK                            x       y       z     vdW  Elec       q    Type
REMARK                         _______ _______ _______ _____ _____    ______ ____
ROOT
ATOM      1  C   UNL     1       1.152   9.554  19.062  0.00  0.00    +0.000 A 
ATOM      2  C   UNL     1       1.847   9.326  17.864  0.00  0.00    +0.000 A 
ATOM      3  C   UNL     1       2.645   8.179  17.707  0.00  0.00    +0.000 A 
ATOM      4  C   UNL     1       2.783   7.256  18.754  0.00  0.00    +0.000 A 
ATOM      5  C   UNL     1       2.185   7.553  19.975  0.00  0.00    +0.000 A 
ATOM      6  C   UNL     1       1.333   8.650  20.112  0.00  0.00    +0.000 A 
ENDROOT
BRANCH   4   7
ATOM      7  C   UNL     1       3.621   6.034  18.541  0.00  0.00    +0.000 C 
ATOM      8  O   UNL     1       4.754   6.208  18.091  0.00  0.00    +0.000 OA
ATOM      9  N   UNL     1       3.142   4.748  18.853  0.00  0.00    +0.000 N 
ATOM     10  C   UNL     1       4.058   3.598  18.709  0.00  0.00    +0.000 C 
ATOM     11  C   UNL     1       3.506   2.505  17.794  0.00  0.00    +0.000 C 
ATOM     12  C   UNL     1       2.079   2.112  18.157  0.00  0.00    +0.000 C 
ATOM     13  C   UNL     1       1.189   3.342  18.202  0.00  0.00    +0.000 C 
ATOM     14  C   UNL     1       1.733   4.396  19.166  0.00  0.00    +0.000 C 
BRANCH  14  15
ATOM     15  C   UNL     1       1.567   3.982  20.644  0.00  0.00    +0.000 C 
ATOM     16  O   UNL     1       2.292   4.358  21.553  0.00  0.00    +0.000 OA
BRANCH  15  17
ATOM     17  O   UNL     1       0.587   3.064  20.842  0.00  0.00    +0.000 OA
ATOM     18  H   UNL     1      -0.263   3.363  20.454  0.00  0.00    +0.000 HD
ENDBRANCH  15  17
ENDBRANCH  14  15
ENDBRANCH   4   7
BRANCH   1  22
ATOM     19  C   UNL     1      -1.239  11.873  20.157  0.00  0.00    +0.000 A 
ATOM     20  N   UNL     1      -0.811  12.571  19.121  0.00  0.00    +0.000 NA
ATOM     21  N   UNL     1       0.172  11.813  18.513  0.00  0.00    +0.000 NA
ATOM     22  C   UNL     1       0.289  10.710  19.221  0.00  0.00    +0.000 A 
ATOM     23  O   UNL     1      -0.584  10.682  20.287  0.00  0.00    +0.000 OA
BRANCH  19  28
ATOM     24  C   UNL     1      -5.281  13.179  24.085  0.00  0.00    +0.000 C 
ATOM     25  C   UNL     1      -4.246  12.811  23.064  0.00  0.00    +0.000 A 
ATOM     26  C   UNL     1      -3.021  12.253  23.448  0.00  0.00    +0.000 A 
ATOM     27  C   UNL     1      -2.055  11.937  22.491  0.00  0.00    +0.000 A 
ATOM     28  C   UNL     1      -2.286  12.172  21.127  0.00  0.00    +0.000 A 
ATOM     29  C   UNL     1      -3.525  12.712  20.746  0.00  0.00    +0.000 A 
ATOM     30  C   UNL     1      -4.493  13.029  21.704  0.00  0.00    +0.000 A 
ENDBRANCH  19  28
ENDBRANCH   1  22
TORSDOF 5
ENDMDL
MODEL 6
REMARK VINA RESULT:      -9.0      2.331      3.162
REMARK  Name = 
REMARK  6 active torsions:
REMARK  status: ('A' for Active; 'I' for Inactive)
REMARK    1  A    between atoms: C_1  and  C_2
REMARK    2  A    between atoms: C_5  and  C_6
REMARK    3  A    between atoms: C_9  and  C_10
REMARK    4  A    between atoms: C_13  and  C_14
REMARK    5  A    between atoms: C_21  and  C_22
REMARK    6  A    between atoms: C_22  and  O_24
REMARK                            x       y       z     vdW  Elec       q    Type
REMARK                         _______ _______ _______ _____ _____    ______ ____
ROOT
ATOM      1  C   UNL     1       0.850   9.513  19.255  0.00  0.00    +0.000 A 
ATOM      2  C   UNL     1       1.465   9.303  18.011  0.00  0.00    +0.000 A 
ATOM      3  C   UNL     1       2.319   8.204  17.811  0.00  0.00    +0.000 A 
ATOM      4  C   UNL     1       2.594   7.314  18.859  0.00  0.00    +0.000 A 
ATOM      5  C   UNL     1       2.074   7.599  20.118  0.00  0.00    +0.000 A 
ATOM      6  C   UNL     1       1.167   8.643  20.303  0.00  0.00    +0.000 A 
ENDROOT
BRANCH   4   7
ATOM      7  C   UNL     1       3.488   6.141  18.601  0.00  0.00    +0.000 C 
ATOM      8  O   UNL     1       4.604   6.384  18.139  0.00  0.00    +0.000 OA
ATOM      9  N   UNL     1       3.080   4.825  18.886  0.00  0.00    +0.000 N 
ATOM     10  C   UNL     1       4.050   3.727  18.698  0.00  0.00    +0.000 C 
ATOM     11  C   UNL     1       3.538   2.632  17.762  0.00  0.00    +0.000 C 
ATOM     12  C   UNL     1       2.139   2.158  18.135  0.00  0.00    +0.000 C 
ATOM     13  C   UNL     1       1.189   3.340  18.227  0.00  0.00    +0.000 C 
ATOM     14  C   UNL     1       1.695   4.395  19.210  0.00  0.00    +0.000 C 
BRANCH  14  15
ATOM     15  C   UNL     1       1.573   3.935  20.679  0.00  0.00    +0.000 C 
ATOM     16  O   UNL     1       2.322   4.286  21.577  0.00  0.00    +0.000 OA
BRANCH  15  17
ATOM     17  O   UNL     1       0.603   3.006  20.876  0.00  0.00    +0.000 OA
ATOM     18  H   UNL     1      -0.222   3.420  21.205  0.00  0.00    +0.000 HD
ENDBRANCH  15  17
ENDBRANCH  14  15
ENDBRANCH   4   7
BRANCH   1  22
ATOM     19  C   UNL     1      -1.145  12.050  20.625  0.00  0.00    +0.000 A 
ATOM     20  N   UNL     1      -1.491  12.245  19.365  0.00  0.00    +0.000 NA
ATOM     21  N   UNL     1      -0.799  11.311  18.616  0.00  0.00    +0.000 NA
ATOM     22  C   UNL     1      -0.069  10.617  19.463  0.00  0.00    +0.000 A 
ATOM     23  O   UNL     1      -0.242  11.036  20.764  0.00  0.00    +0.000 OA
BRANCH  19  28
ATOM     24  C   UNL     1      -2.913  14.875  25.354  0.00  0.00    +0.000 C 
ATOM     25  C   UNL     1      -2.441  14.120  24.147  0.00  0.00    +0.000 A 
ATOM     26  C   UNL     1      -1.199  14.397  23.564  0.00  0.00    +0.000 A 
ATOM     27  C   UNL     1      -0.781  13.706  22.425  0.00  0.00    +0.000 A 
ATOM     28  C   UNL     1      -1.592  12.722  21.839  0.00  0.00    +0.000 A 
ATOM     29  C   UNL     1      -2.827  12.434  22.441  0.00  0.00    +0.000 A 
ATOM     30  C   UNL     1      -3.247  13.126  23.581  0.00  0.00    +0.000 A 
ENDBRANCH  19  28
ENDBRANCH   1  22
TORSDOF 5
ENDMDL
MODEL 7
REMARK VINA RESULT:      -8.8      2.281      3.214
REMARK  Name = 
REMARK  6 active torsions:
REMARK  status: ('A' for Active; 'I' for Inactive)
REMARK    1  A    between atoms: C_1  and  C_2
REMARK    2  A    between atoms: C_5  and  C_6
REMARK    3  A    between atoms: C_9  and  C_10
REMARK    4  A    between atoms: C_13  and  C_14
REMARK    5  A    between atoms: C_21  and  C_22
REMARK    6  A    between atoms: C_22  and  O_24
REMARK                            x       y       z     vdW  Elec       q    Type
REMARK                         _______ _______ _______ _____ _____    ______ ____
ROOT
ATOM      1  C   UNL     1       0.675   9.562  19.170  0.00  0.00    +0.000 A 
ATOM      2  C   UNL     1       1.255   9.356  17.909  0.00  0.00    +0.000 A 
ATOM      3  C   UNL     1       2.166   8.305  17.702  0.00  0.00    +0.000 A 
ATOM      4  C   UNL     1       2.533   7.460  18.759  0.00  0.00    +0.000 A 
ATOM      5  C   UNL     1       2.044   7.747  20.030  0.00  0.00    +0.000 A 
ATOM      6  C   UNL     1       1.084   8.740  20.225  0.00  0.00    +0.000 A 
ENDROOT
BRANCH   4   7
ATOM      7  C   UNL     1       3.486   6.337  18.494  0.00  0.00    +0.000 C 
ATOM      8  O   UNL     1       4.579   6.637  18.011  0.00  0.00    +0.000 OA
ATOM      9  N   UNL     1       3.156   5.002  18.796  0.00  0.00    +0.000 N 
ATOM     10  C   UNL     1       4.182   3.958  18.599  0.00  0.00    +0.000 C 
ATOM     11  C   UNL     1       3.716   2.829  17.680  0.00  0.00    +0.000 C 
ATOM     12  C   UNL     1       2.351   2.281  18.082  0.00  0.00    +0.000 C 
ATOM     13  C   UNL     1       1.340   3.410  18.181  0.00  0.00    +0.000 C 
ATOM     14  C   UNL     1       1.803   4.500  19.147  0.00  0.00    +0.000 C 
BRANCH  14  15
ATOM     15  C   UNL     1       1.732   4.046  20.621  0.00  0.00    +0.000 C 
ATOM     16  O   UNL     1       1.014   3.146  21.033  0.00  0.00    +0.000 OA
BRANCH  15  17
ATOM     17  O   UNL     1       2.473   4.812  21.459  0.00  0.00    +0.000 OA
ATOM     18  H   UNL     1       1.942   5.116  22.226  0.00  0.00    +0.000 HD
ENDBRANCH  15  17
ENDBRANCH  14  15
ENDBRANCH   4   7
BRANCH   1  22
ATOM     19  C   UNL     1      -1.360  12.066  20.541  0.00  0.00    +0.000 A 
ATOM     20  N   UNL     1      -1.847  12.126  19.314  0.00  0.00    +0.000 NA
ATOM     21  N   UNL     1      -1.165  11.180  18.572  0.00  0.00    +0.000 NA
ATOM     22  C   UNL     1      -0.300  10.614  19.387  0.00  0.00    +0.000 A 
ATOM     23  O   UNL     1      -0.372  11.132  20.662  0.00  0.00    +0.000 OA
BRANCH  19  28
ATOM     24  C   UNL     1      -2.886  14.861  25.371  0.00  0.00    +0.000 C 
ATOM     25  C   UNL     1      -2.496  14.163  24.102  0.00  0.00    +0.000 A 
ATOM     26  C   UNL     1      -3.440  13.450  23.353  0.00  0.00    +0.000 A 
ATOM     27  C   UNL     1      -3.060  12.783  22.186  0.00  0.00    +0.000 A 
ATOM     28  C   UNL     1      -1.731  12.810  21.739  0.00  0.00    +0.000 A 
ATOM     29  C   UNL     1      -0.794  13.545  22.482  0.00  0.00    +0.000 A 
ATOM     30  C   UNL     1      -1.173  14.213  23.651  0.00  0.00    +0.000 A 
ENDBRANCH  19  28
ENDBRANCH   1  22
TORSDOF 5
ENDMDL
MODEL 8
REMARK VINA RESULT:      -8.8      2.239      3.232
REMARK  Name = 
REMARK  6 active torsions:
REMARK  status: ('A' for Active; 'I' for Inactive)
REMARK    1  A    between atoms: C_1  and  C_2
REMARK    2  A    between atoms: C_5  and  C_6
REMARK    3  A    between atoms: C_9  and  C_10
REMARK    4  A    between atoms: C_13  and  C_14
REMARK    5  A    between atoms: C_21  and  C_22
REMARK    6  A    between atoms: C_22  and  O_24
REMARK                            x       y       z     vdW  Elec       q    Type
REMARK                         _______ _______ _______ _____ _____    ______ ____
ROOT
ATOM      1  C   UNL     1       0.916   9.538  19.139  0.00  0.00    +0.000 A 
ATOM      2  C   UNL     1       1.229   8.687  20.211  0.00  0.00    +0.000 A 
ATOM      3  C   UNL     1       2.090   7.591  20.027  0.00  0.00    +0.000 A 
ATOM      4  C   UNL     1       2.630   7.311  18.764  0.00  0.00    +0.000 A 
ATOM      5  C   UNL     1       2.219   8.090  17.686  0.00  0.00    +0.000 A 
ATOM      6  C   UNL     1       1.426   9.222  17.877  0.00  0.00    +0.000 A 
ENDROOT
BRANCH   4   7
ATOM      7  C   UNL     1       3.563   6.150  18.613  0.00  0.00    +0.000 C 
ATOM      8  O   UNL     1       4.709   6.402  18.237  0.00  0.00    +0.000 OA
ATOM      9  N   UNL     1       3.155   4.834  18.899  0.00  0.00    +0.000 N 
ATOM     10  C   UNL     1       4.156   3.750  18.821  0.00  0.00    +0.000 C 
ATOM     11  C   UNL     1       3.742   2.622  17.877  0.00  0.00    +0.000 C 
ATOM     12  C   UNL     1       2.325   2.131  18.147  0.00  0.00    +0.000 C 
ATOM     13  C   UNL     1       1.351   3.296  18.129  0.00  0.00    +0.000 C 
ATOM     14  C   UNL     1       1.756   4.386  19.120  0.00  0.00    +0.000 C 
BRANCH  14  15
ATOM     15  C   UNL     1       1.522   3.961  20.587  0.00  0.00    +0.000 C 
ATOM     16  O   UNL     1       2.214   4.318  21.528  0.00  0.00    +0.000 OA
BRANCH  15  17
ATOM     17  O   UNL     1       0.522   3.056  20.735  0.00  0.00    +0.000 OA
ATOM     18  H   UNL     1      -0.351   3.457  20.539  0.00  0.00    +0.000 HD
ENDBRANCH  15  17
ENDBRANCH  14  15
ENDBRANCH   4   7
BRANCH   1  22
ATOM     19  C   UNL     1      -1.004  12.155  20.463  0.00  0.00    +0.000 A 
ATOM     20  N   UNL     1      -1.217  12.437  19.190  0.00  0.00    +0.000 NA
ATOM     21  N   UNL     1      -0.530  11.488  18.456  0.00  0.00    +0.000 NA
ATOM     22  C   UNL     1       0.066  10.699  19.324  0.00  0.00    +0.000 A 
ATOM     23  O   UNL     1      -0.196  11.068  20.626  0.00  0.00    +0.000 OA
BRANCH  19  28
ATOM     24  C   UNL     1      -3.052  14.557  25.312  0.00  0.00    +0.000 C 
ATOM     25  C   UNL     1      -2.529  13.961  24.039  0.00  0.00    +0.000 A 
ATOM     26  C   UNL     1      -3.352  13.181  23.217  0.00  0.00    +0.000 A 
ATOM     27  C   UNL     1      -2.848  12.611  22.047  0.00  0.00    +0.000 A 
ATOM     28  C   UNL     1      -1.510  12.802  21.668  0.00  0.00    +0.000 A 
ATOM     29  C   UNL     1      -0.696  13.602  22.485  0.00  0.00    +0.000 A 
ATOM     30  C   UNL     1      -1.200  14.174  23.658  0.00  0.00    +0.000 A 
ENDBRANCH  19  28
ENDBRANCH   1  22
TORSDOF 5
ENDMDL
MODEL 9
REMARK VINA RESULT:      -8.6      2.307      3.344
REMARK  Name = 
REMARK  6 active torsions:
REMARK  status: ('A' for Active; 'I' for Inactive)
REMARK    1  A    between atoms: C_1  and  C_2
REMARK    2  A    between atoms: C_5  and  C_6
REMARK    3  A    between atoms: C_9  and  C_10
REMARK    4  A    between atoms: C_13  and  C_14
REMARK    5  A    between atoms: C_21  and  C_22
REMARK    6  A    between atoms: C_22  and  O_24
REMARK                            x       y       z     vdW  Elec       q    Type
REMARK                         _______ _______ _______ _____ _____    ______ ____
ROOT
ATOM      1  C   UNL     1       0.714   9.651  19.145  0.00  0.00    +0.000 A 
ATOM      2  C   UNL     1       1.117   8.813  20.196  0.00  0.00    +0.000 A 
ATOM      3  C   UNL     1       2.018   7.759  19.966  0.00  0.00    +0.000 A 
ATOM      4  C   UNL     1       2.511   7.509  18.677  0.00  0.00    +0.000 A 
ATOM      5  C   UNL     1       2.013   8.271  17.624  0.00  0.00    +0.000 A 
ATOM      6  C   UNL     1       1.178   9.364  17.858  0.00  0.00    +0.000 A 
ENDROOT
BRANCH   4   7
ATOM      7  C   UNL     1       3.489   6.394  18.475  0.00  0.00    +0.000 C 
ATOM      8  O   UNL     1       4.601   6.700  18.043  0.00  0.00    +0.000 OA
ATOM      9  N   UNL     1       3.158   5.059  18.777  0.00  0.00    +0.000 N 
ATOM     10  C   UNL     1       4.204   4.024  18.646  0.00  0.00    +0.000 C 
ATOM     11  C   UNL     1       3.798   2.879  17.720  0.00  0.00    +0.000 C 
ATOM     12  C   UNL     1       2.421   2.320  18.059  0.00  0.00    +0.000 C 
ATOM     13  C   UNL     1       1.393   3.439  18.093  0.00  0.00    +0.000 C 
ATOM     14  C   UNL     1       1.795   4.545  19.067  0.00  0.00    +0.000 C 
BRANCH  14  15
ATOM     15  C   UNL     1       1.655   4.109  20.541  0.00  0.00    +0.000 C 
ATOM     16  O   UNL     1       0.882   3.249  20.937  0.00  0.00    +0.000 OA
BRANCH  15  17
ATOM     17  O   UNL     1       2.406   4.846  21.397  0.00  0.00    +0.000 OA
ATOM     18  H   UNL     1       3.291   4.445  21.528  0.00  0.00    +0.000 HD
ENDBRANCH  15  17
ENDBRANCH  14  15
ENDBRANCH   4   7
BRANCH   1  22
ATOM     19  C   UNL     1      -1.234  12.194  20.570  0.00  0.00    +0.000 A 
ATOM     20  N   UNL     1      -1.560  12.437  19.313  0.00  0.00    +0.000 NA
ATOM     21  N   UNL     1      -0.882  11.510  18.544  0.00  0.00    +0.000 NA
ATOM     22  C   UNL     1      -0.180  10.771  19.376  0.00  0.00    +0.000 A 
ATOM     23  O   UNL     1      -0.359  11.153  20.688  0.00  0.00    +0.000 OA
BRANCH  19  28
ATOM     24  C   UNL     1      -2.956  14.913  25.378  0.00  0.00    +0.000 C 
ATOM     25  C   UNL     1      -2.503  14.182  24.149  0.00  0.00    +0.000 A 
ATOM     26  C   UNL     1      -1.175  14.257  23.715  0.00  0.00    +0.000 A 
ATOM     27  C   UNL     1      -0.770  13.593  22.555  0.00  0.00    +0.000 A 
ATOM     28  C   UNL     1      -1.680  12.838  21.800  0.00  0.00    +0.000 A 
ATOM     29  C   UNL     1      -3.006  12.749  22.252  0.00  0.00    +0.000 A 
ATOM     30  C   UNL     1      -3.413  13.414  23.413  0.00  0.00    +0.000 A 
ENDBRANCH  19  28
ENDBRANCH   1  22
TORSDOF 5
ENDMDL
