MODEL 1
REMARK VINA RESULT:      -8.0      0.000      0.000
REMARK  Name = 
REMARK  2 active torsions:
REMARK  status: ('A' for Active; 'I' for Inactive)
REMARK    1  A    between atoms: C_5  and  C_7
REMARK    2  A    between atoms: N_10  and  C_11
REMARK                            x       y       z     vdW  Elec       q    Type
REMARK                         _______ _______ _______ _____ _____    ______ ____
ROOT
ATOM      1  O   UNL     1      -2.275  11.087  16.874  0.00  0.00    +0.000 OA
ATOM      2  C   UNL     1      -2.042  11.287  18.065  0.00  0.00    +0.000 C 
ATOM      3  C   UNL     1      -1.376  10.255  18.958  0.00  0.00    +0.000 C 
ATOM      4  N   UNL     1      -0.711  10.811  20.148  0.00  0.00    +0.000 N 
ATOM      5  C   UNL     1       0.594  10.454  20.549  0.00  0.00    +0.000 C 
ATOM      6  O   UNL     1       1.225  11.077  21.405  0.00  0.00    +0.000 OA
ATOM      7  C   UNL     1      -1.434  11.863  20.804  0.00  0.00    +0.000 A 
ATOM      8  C   UNL     1      -1.269  12.171  22.160  0.00  0.00    +0.000 A 
ATOM      9  C   UNL     1      -1.977  13.227  22.745  0.00  0.00    +0.000 A 
ATOM     10  C   UNL     1      -2.841  14.002  21.981  0.00  0.00    +0.000 A 
ATOM     11  C   UNL     1      -3.017  13.720  20.630  0.00  0.00    +0.000 A 
ATOM     12  C   UNL     1      -2.337  12.643  20.056  0.00  0.00    +0.000 A 
ATOM     13  N   UNL     1      -2.530  12.397  18.693  0.00  0.00    +0.000 N 
ATOM     14  H   UNL     1      -3.067  13.034  18.119  0.00  0.00    +0.000 HD
ENDROOT
BRANCH   5  15
ATOM     15  C   UNL     1       1.282   9.335  19.862  0.00  0.00    +0.000 A 
ATOM     16  C   UNL     1       1.792   9.374  18.539  0.00  0.00    +0.000 A 
ATOM     17  C   UNL     1       2.308   8.123  18.305  0.00  0.00    +0.000 A 
ATOM     18  N   UNL     1       2.129   7.397  19.458  0.00  0.00    +0.000 N 
ATOM     19  N   UNL     1       1.542   8.144  20.428  0.00  0.00    +0.000 NA
BRANCH  18  20
ATOM     20  C   UNL     1       2.478   6.041  19.707  0.00  0.00    +0.000 A 
ATOM     21  C   UNL     1       3.585   5.482  19.044  0.00  0.00    +0.000 A 
ATOM     22  C   UNL     1       3.942   4.148  19.259  0.00  0.00    +0.000 A 
ATOM     23  C   UNL     1       3.193   3.363  20.131  0.00  0.00    +0.000 A 
ATOM     24  C   UNL     1       2.102   3.922  20.788  0.00  0.00    +0.000 A 
ATOM     25  F   UNL     1       1.379   3.161  21.621  0.00  0.00    +0.000 F 
ATOM     26  C   UNL     1       1.737   5.251  20.594  0.00  0.00    +0.000 A 
ENDBRANCH  18  20
ENDBRANCH   5  15
TORSDOF 2
ENDMDL
MODEL 2
REMARK VINA RESULT:      -8.0      0.966      1.364
REMARK  Name = 
REMARK  2 active torsions:
REMARK  status: ('A' for Active; 'I' for Inactive)
REMARK    1  A    between atoms: C_5  and  C_7
REMARK    2  A    between atoms: N_10  and  C_11
REMARK                            x       y       z     vdW  Elec       q    Type
REMARK                         _______ _______ _______ _____ _____    ______ ____
ROOT
ATOM      1  O   UNL     1      -2.128  11.388  17.024  0.00  0.00    +0.000 OA
ATOM      2  C   UNL     1      -1.924  11.494  18.233  0.00  0.00    +0.000 C 
ATOM      3  C   UNL     1      -1.329  10.373  19.067  0.00  0.00    +0.000 C 
ATOM      4  N   UNL     1      -0.678  10.815  20.312  0.00  0.00    +0.000 N 
ATOM      5  C   UNL     1       0.598  10.374  20.723  0.00  0.00    +0.000 C 
ATOM      6  O   UNL     1       1.227  10.908  21.639  0.00  0.00    +0.000 OA
ATOM      7  C   UNL     1      -1.378  11.848  21.023  0.00  0.00    +0.000 A 
ATOM      8  C   UNL     1      -1.242  12.052  22.401  0.00  0.00    +0.000 A 
ATOM      9  C   UNL     1      -1.924  13.094  23.040  0.00  0.00    +0.000 A 
ATOM     10  C   UNL     1      -2.732  13.957  22.310  0.00  0.00    +0.000 A 
ATOM     11  C   UNL     1      -2.878  13.778  20.938  0.00  0.00    +0.000 A 
ATOM     12  C   UNL     1      -2.225  12.717  20.308  0.00  0.00    +0.000 A 
ATOM     13  N   UNL     1      -2.385  12.576  18.925  0.00  0.00    +0.000 N 
ATOM     14  H   UNL     1      -2.878  13.274  18.384  0.00  0.00    +0.000 HD
ENDROOT
BRANCH   5  15
ATOM     15  C   UNL     1       1.260   9.278  19.978  0.00  0.00    +0.000 A 
ATOM     16  C   UNL     1       1.689   9.347  18.627  0.00  0.00    +0.000 A 
ATOM     17  C   UNL     1       2.209   8.109  18.341  0.00  0.00    +0.000 A 
ATOM     18  N   UNL     1       2.111   7.361  19.490  0.00  0.00    +0.000 N 
ATOM     19  N   UNL     1       1.572   8.082  20.506  0.00  0.00    +0.000 NA
BRANCH  18  20
ATOM     20  C   UNL     1       2.495   6.008  19.694  0.00  0.00    +0.000 A 
ATOM     21  C   UNL     1       1.688   5.176  20.491  0.00  0.00    +0.000 A 
ATOM     22  C   UNL     1       2.048   3.845  20.721  0.00  0.00    +0.000 A 
ATOM     23  C   UNL     1       3.218   3.339  20.162  0.00  0.00    +0.000 A 
ATOM     24  C   UNL     1       4.011   4.164  19.371  0.00  0.00    +0.000 A 
ATOM     25  F   UNL     1       5.141   3.676  18.841  0.00  0.00    +0.000 F 
ATOM     26  C   UNL     1       3.664   5.489  19.124  0.00  0.00    +0.000 A 
ENDBRANCH  18  20
ENDBRANCH   5  15
TORSDOF 2
ENDMDL
MODEL 3
REMARK VINA RESULT:      -7.8      2.609      3.803
REMARK  Name = 
REMARK  2 active torsions:
REMARK  status: ('A' for Active; 'I' for Inactive)
REMARK    1  A    between atoms: C_5  and  C_7
REMARK    2  A    between atoms: N_10  and  C_11
REMARK                            x       y       z     vdW  Elec       q    Type
REMARK                         _______ _______ _______ _____ _____    ______ ____
ROOT
ATOM      1  O   UNL     1      -3.445  10.567  15.054  0.00  0.00    +0.000 OA
ATOM      2  C   UNL     1      -3.843  10.928  16.161  0.00  0.00    +0.000 C 
ATOM      3  C   UNL     1      -3.103  10.605  17.446  0.00  0.00    +0.000 C 
ATOM      4  N   UNL     1      -3.393  11.516  18.567  0.00  0.00    +0.000 N 
ATOM      5  C   UNL     1      -2.395  12.096  19.378  0.00  0.00    +0.000 C 
ATOM      6  O   UNL     1      -2.624  13.020  20.162  0.00  0.00    +0.000 OA
ATOM      7  C   UNL     1      -4.773  11.892  18.693  0.00  0.00    +0.000 A 
ATOM      8  C   UNL     1      -5.344  12.301  19.903  0.00  0.00    +0.000 A 
ATOM      9  C   UNL     1      -6.688  12.688  19.966  0.00  0.00    +0.000 A 
ATOM     10  C   UNL     1      -7.472  12.692  18.818  0.00  0.00    +0.000 A 
ATOM     11  C   UNL     1      -6.925  12.296  17.602  0.00  0.00    +0.000 A 
ATOM     12  C   UNL     1      -5.594  11.877  17.548  0.00  0.00    +0.000 A 
ATOM     13  N   UNL     1      -5.075  11.498  16.306  0.00  0.00    +0.000 N 
ATOM     14  H   UNL     1      -5.615  11.615  15.458  0.00  0.00    +0.000 HD
ENDROOT
BRANCH   5  15
ATOM     15  C   UNL     1      -0.991  11.644  19.234  0.00  0.00    +0.000 A 
ATOM     16  C   UNL     1       0.128  12.493  19.033  0.00  0.00    +0.000 A 
ATOM     17  C   UNL     1       1.211  11.656  18.920  0.00  0.00    +0.000 A 
ATOM     18  N   UNL     1       0.741  10.374  19.078  0.00  0.00    +0.000 N 
ATOM     19  N   UNL     1      -0.596  10.362  19.313  0.00  0.00    +0.000 NA
BRANCH  18  20
ATOM     20  C   UNL     1       1.472   9.156  19.023  0.00  0.00    +0.000 A 
ATOM     21  C   UNL     1       2.265   8.879  17.895  0.00  0.00    +0.000 A 
ATOM     22  C   UNL     1       2.983   7.683  17.808  0.00  0.00    +0.000 A 
ATOM     23  C   UNL     1       2.909   6.755  18.843  0.00  0.00    +0.000 A 
ATOM     24  C   UNL     1       2.128   7.035  19.959  0.00  0.00    +0.000 A 
ATOM     25  F   UNL     1       2.053   6.136  20.950  0.00  0.00    +0.000 F 
ATOM     26  C   UNL     1       1.413   8.225  20.067  0.00  0.00    +0.000 A 
ENDBRANCH  18  20
ENDBRANCH   5  15
TORSDOF 2
ENDMDL
MODEL 4
REMARK VINA RESULT:      -7.8      1.365      1.532
REMARK  Name = 
REMARK  2 active torsions:
REMARK  status: ('A' for Active; 'I' for Inactive)
REMARK    1  A    between atoms: C_5  and  C_7
REMARK    2  A    between atoms: N_10  and  C_11
REMARK                            x       y       z     vdW  Elec       q    Type
REMARK                         _______ _______ _______ _____ _____    ______ ____
ROOT
ATOM      1  O   UNL     1      -2.427  11.271  16.604  0.00  0.00    +0.000 OA
ATOM      2  C   UNL     1      -2.172  11.319  17.807  0.00  0.00    +0.000 C 
ATOM      3  C   UNL     1      -1.387  10.234  18.525  0.00  0.00    +0.000 C 
ATOM      4  N   UNL     1      -0.733  10.672  19.769  0.00  0.00    +0.000 N 
ATOM      5  C   UNL     1       0.611  10.383  20.087  0.00  0.00    +0.000 C 
ATOM      6  O   UNL     1       1.212  10.933  21.012  0.00  0.00    +0.000 OA
ATOM      7  C   UNL     1      -1.524  11.547  20.588  0.00  0.00    +0.000 A 
ATOM      8  C   UNL     1      -1.341  11.670  21.970  0.00  0.00    +0.000 A 
ATOM      9  C   UNL     1      -2.119  12.561  22.718  0.00  0.00    +0.000 A 
ATOM     10  C   UNL     1      -3.074  13.355  22.095  0.00  0.00    +0.000 A 
ATOM     11  C   UNL     1      -3.271  13.254  20.721  0.00  0.00    +0.000 A 
ATOM     12  C   UNL     1      -2.518  12.340  19.982  0.00  0.00    +0.000 A 
ATOM     13  N   UNL     1      -2.735  12.276  18.601  0.00  0.00    +0.000 N 
ATOM     14  H   UNL     1      -3.345  12.936  18.138  0.00  0.00    +0.000 HD
ENDROOT
BRANCH   5  15
ATOM     15  C   UNL     1       1.371   9.443  19.229  0.00  0.00    +0.000 A 
ATOM     16  C   UNL     1       1.983   9.774  17.992  0.00  0.00    +0.000 A 
ATOM     17  C   UNL     1       2.539   8.606  17.532  0.00  0.00    +0.000 A 
ATOM     18  N   UNL     1       2.284   7.643  18.479  0.00  0.00    +0.000 N 
ATOM     19  N   UNL     1       1.608   8.157  19.539  0.00  0.00    +0.000 NA
BRANCH  18  20
ATOM     20  C   UNL     1       2.637   6.266  18.453  0.00  0.00    +0.000 A 
ATOM     21  C   UNL     1       1.720   5.330  17.942  0.00  0.00    +0.000 A 
ATOM     22  C   UNL     1       2.035   3.969  17.917  0.00  0.00    +0.000 A 
ATOM     23  C   UNL     1       3.263   3.533  18.406  0.00  0.00    +0.000 A 
ATOM     24  C   UNL     1       4.169   4.463  18.905  0.00  0.00    +0.000 A 
ATOM     25  F   UNL     1       5.348   4.040  19.382  0.00  0.00    +0.000 F 
ATOM     26  C   UNL     1       3.877   5.824  18.930  0.00  0.00    +0.000 A 
ENDBRANCH  18  20
ENDBRANCH   5  15
TORSDOF 2
ENDMDL
MODEL 5
REMARK VINA RESULT:      -7.8      2.258      3.119
REMARK  Name = 
REMARK  2 active torsions:
REMARK  status: ('A' for Active; 'I' for Inactive)
REMARK    1  A    between atoms: C_5  and  C_7
REMARK    2  A    between atoms: N_10  and  C_11
REMARK                            x       y       z     vdW  Elec       q    Type
REMARK                         _______ _______ _______ _____ _____    ______ ____
ROOT
ATOM      1  O   UNL     1      -2.594  10.279  14.608  0.00  0.00    +0.000 OA
ATOM      2  C   UNL     1      -2.943  10.664  15.724  0.00  0.00    +0.000 C 
ATOM      3  C   UNL     1      -2.240  10.233  16.999  0.00  0.00    +0.000 C 
ATOM      4  N   UNL     1      -2.418  11.151  18.137  0.00  0.00    +0.000 N 
ATOM      5  C   UNL     1      -1.356  11.595  18.953  0.00  0.00    +0.000 C 
ATOM      6  O   UNL     1      -1.471  12.524  19.755  0.00  0.00    +0.000 OA
ATOM      7  C   UNL     1      -3.743  11.684  18.278  0.00  0.00    +0.000 A 
ATOM      8  C   UNL     1      -4.258  12.135  19.499  0.00  0.00    +0.000 A 
ATOM      9  C   UNL     1      -5.547  12.676  19.576  0.00  0.00    +0.000 A 
ATOM     10  C   UNL     1      -6.329  12.793  18.433  0.00  0.00    +0.000 A 
ATOM     11  C   UNL     1      -5.837  12.358  17.207  0.00  0.00    +0.000 A 
ATOM     12  C   UNL     1      -4.564  11.787  17.138  0.00  0.00    +0.000 A 
ATOM     13  N   UNL     1      -4.099  11.372  15.886  0.00  0.00    +0.000 N 
ATOM     14  H   UNL     1      -4.623  11.567  15.043  0.00  0.00    +0.000 HD
ENDROOT
BRANCH   5  15
ATOM     15  C   UNL     1      -0.015  10.983  18.793  0.00  0.00    +0.000 A 
ATOM     16  C   UNL     1       1.164  11.677  18.417  0.00  0.00    +0.000 A 
ATOM     17  C   UNL     1       2.150  10.724  18.357  0.00  0.00    +0.000 A 
ATOM     18  N   UNL     1       1.571   9.529  18.713  0.00  0.00    +0.000 N 
ATOM     19  N   UNL     1       0.259   9.687  19.022  0.00  0.00    +0.000 NA
BRANCH  18  20
ATOM     20  C   UNL     1       2.176   8.244  18.782  0.00  0.00    +0.000 A 
ATOM     21  C   UNL     1       3.027   7.827  17.743  0.00  0.00    +0.000 A 
ATOM     22  C   UNL     1       3.624   6.564  17.778  0.00  0.00    +0.000 A 
ATOM     23  C   UNL     1       3.370   5.708  18.846  0.00  0.00    +0.000 A 
ATOM     24  C   UNL     1       2.533   6.127  19.873  0.00  0.00    +0.000 A 
ATOM     25  F   UNL     1       2.284   5.298  20.896  0.00  0.00    +0.000 F 
ATOM     26  C   UNL     1       1.936   7.385  19.861  0.00  0.00    +0.000 A 
ENDBRANCH  18  20
ENDBRANCH   5  15
TORSDOF 2
ENDMDL
MODEL 6
REMARK VINA RESULT:      -7.8      2.343      2.673
REMARK  Name = 
REMARK  2 active torsions:
REMARK  status: ('A' for Active; 'I' for Inactive)
REMARK    1  A    between atoms: C_5  and  C_7
REMARK    2  A    between atoms: N_10  and  C_11
REMARK                            x       y       z     vdW  Elec       q    Type
REMARK                         _______ _______ _______ _____ _____    ______ ____
ROOT
ATOM      1  O   UNL     1       2.373  12.320  17.944  0.00  0.00    +0.000 OA
ATOM      2  C   UNL     1       1.693  11.867  18.864  0.00  0.00    +0.000 C 
ATOM      3  C   UNL     1       1.182  10.437  18.882  0.00  0.00    +0.000 C 
ATOM      4  N   UNL     1       0.866   9.916  20.222  0.00  0.00    +0.000 N 
ATOM      5  C   UNL     1       1.292   8.653  20.688  0.00  0.00    +0.000 C 
ATOM      6  O   UNL     1       1.217   8.317  21.871  0.00  0.00    +0.000 OA
ATOM      7  C   UNL     1       0.204  10.849  21.089  0.00  0.00    +0.000 A 
ATOM      8  C   UNL     1      -0.611  10.453  22.157  0.00  0.00    +0.000 A 
ATOM      9  C   UNL     1      -1.208  11.404  22.991  0.00  0.00    +0.000 A 
ATOM     10  C   UNL     1      -0.983  12.760  22.786  0.00  0.00    +0.000 A 
ATOM     11  C   UNL     1      -0.172  13.178  21.736  0.00  0.00    +0.000 A 
ATOM     12  C   UNL     1       0.395  12.229  20.883  0.00  0.00    +0.000 A 
ATOM     13  N   UNL     1       1.215  12.687  19.846  0.00  0.00    +0.000 N 
ATOM     14  H   UNL     1       1.468  13.663  19.773  0.00  0.00    +0.000 HD
ENDROOT
BRANCH   5  15
ATOM     15  C   UNL     1       1.935   7.712  19.741  0.00  0.00    +0.000 A 
ATOM     16  C   UNL     1       2.504   8.068  18.490  0.00  0.00    +0.000 A 
ATOM     17  C   UNL     1       2.948   6.891  17.939  0.00  0.00    +0.000 A 
ATOM     18  N   UNL     1       2.673   5.897  18.847  0.00  0.00    +0.000 N 
ATOM     19  N   UNL     1       2.094   6.397  19.969  0.00  0.00    +0.000 NA
BRANCH  18  20
ATOM     20  C   UNL     1       2.923   4.503  18.729  0.00  0.00    +0.000 A 
ATOM     21  C   UNL     1       2.248   3.764  17.740  0.00  0.00    +0.000 A 
ATOM     22  C   UNL     1       2.464   2.390  17.610  0.00  0.00    +0.000 A 
ATOM     23  C   UNL     1       3.348   1.743  18.469  0.00  0.00    +0.000 A 
ATOM     24  C   UNL     1       4.016   2.478  19.441  0.00  0.00    +0.000 A 
ATOM     25  F   UNL     1       4.861   1.852  20.272  0.00  0.00    +0.000 F 
ATOM     26  C   UNL     1       3.822   3.850  19.581  0.00  0.00    +0.000 A 
ENDBRANCH  18  20
ENDBRANCH   5  15
TORSDOF 2
ENDMDL
MODEL 7
REMARK VINA RESULT:      -7.7      2.102      3.105
REMARK  Name = 
REMARK  2 active torsions:
REMARK  status: ('A' for Active; 'I' for Inactive)
REMARK    1  A    between atoms: C_5  and  C_7
REMARK    2  A    between atoms: N_10  and  C_11
REMARK                            x       y       z     vdW  Elec       q    Type
REMARK                         _______ _______ _______ _____ _____    ______ ____
ROOT
ATOM      1  O   UNL     1      -0.741   8.195  21.915  0.00  0.00    +0.000 OA
ATOM      2  C   UNL     1      -0.207   9.080  21.248  0.00  0.00    +0.000 C 
ATOM      3  C   UNL     1       1.171   8.925  20.629  0.00  0.00    +0.000 C 
ATOM      4  N   UNL     1       1.427   9.805  19.476  0.00  0.00    +0.000 N 
ATOM      5  C   UNL     1       1.989   9.354  18.263  0.00  0.00    +0.000 C 
ATOM      6  O   UNL     1       1.996  10.036  17.236  0.00  0.00    +0.000 OA
ATOM      7  C   UNL     1       0.930  11.144  19.619  0.00  0.00    +0.000 A 
ATOM      8  C   UNL     1       1.469  12.236  18.929  0.00  0.00    +0.000 A 
ATOM      9  C   UNL     1       0.927  13.517  19.081  0.00  0.00    +0.000 A 
ATOM     10  C   UNL     1      -0.173  13.721  19.906  0.00  0.00    +0.000 A 
ATOM     11  C   UNL     1      -0.731  12.651  20.598  0.00  0.00    +0.000 A 
ATOM     12  C   UNL     1      -0.166  11.380  20.472  0.00  0.00    +0.000 A 
ATOM     13  N   UNL     1      -0.762  10.326  21.173  0.00  0.00    +0.000 N 
ATOM     14  H   UNL     1      -1.629  10.458  21.677  0.00  0.00    +0.000 HD
ENDROOT
BRANCH   5  15
ATOM     15  C   UNL     1       2.523   7.974  18.181  0.00  0.00    +0.000 A 
ATOM     16  C   UNL     1       3.746   7.604  17.564  0.00  0.00    +0.000 A 
ATOM     17  C   UNL     1       3.824   6.238  17.689  0.00  0.00    +0.000 A 
ATOM     18  N   UNL     1       2.703   5.838  18.377  0.00  0.00    +0.000 N 
ATOM     19  N   UNL     1       1.926   6.897  18.718  0.00  0.00    +0.000 NA
BRANCH  18  20
ATOM     20  C   UNL     1       2.317   4.518  18.737  0.00  0.00    +0.000 A 
ATOM     21  C   UNL     1       2.477   3.475  17.806  0.00  0.00    +0.000 A 
ATOM     22  C   UNL     1       2.092   2.171  18.128  0.00  0.00    +0.000 A 
ATOM     23  C   UNL     1       1.540   1.900  19.377  0.00  0.00    +0.000 A 
ATOM     24  C   UNL     1       1.389   2.933  20.296  0.00  0.00    +0.000 A 
ATOM     25  F   UNL     1       0.851   2.671  21.495  0.00  0.00    +0.000 F 
ATOM     26  C   UNL     1       1.774   4.237  19.997  0.00  0.00    +0.000 A 
ENDBRANCH  18  20
ENDBRANCH   5  15
TORSDOF 2
ENDMDL
MODEL 8
REMARK VINA RESULT:      -7.7      3.223      4.489
REMARK  Name = 
REMARK  2 active torsions:
REMARK  status: ('A' for Active; 'I' for Inactive)
REMARK    1  A    between atoms: C_5  and  C_7
REMARK    2  A    between atoms: N_10  and  C_11
REMARK                            x       y       z     vdW  Elec       q    Type
REMARK                         _______ _______ _______ _____ _____    ______ ____
ROOT
ATOM      1  O   UNL     1       2.447  10.850  17.351  0.00  0.00    +0.000 OA
ATOM      2  C   UNL     1       1.873  10.361  18.323  0.00  0.00    +0.000 C 
ATOM      3  C   UNL     1       1.424   8.911  18.368  0.00  0.00    +0.000 C 
ATOM      4  N   UNL     1       1.254   8.364  19.724  0.00  0.00    +0.000 N 
ATOM      5  C   UNL     1       1.771   7.116  20.132  0.00  0.00    +0.000 C 
ATOM      6  O   UNL     1       1.819   6.766  21.313  0.00  0.00    +0.000 OA
ATOM      7  C   UNL     1       0.637   9.261  20.661  0.00  0.00    +0.000 A 
ATOM      8  C   UNL     1      -0.060   8.821  21.792  0.00  0.00    +0.000 A 
ATOM      9  C   UNL     1      -0.617   9.738  22.691  0.00  0.00    +0.000 A 
ATOM     10  C   UNL     1      -0.467  11.104  22.484  0.00  0.00    +0.000 A 
ATOM     11  C   UNL     1       0.228  11.566  21.370  0.00  0.00    +0.000 A 
ATOM     12  C   UNL     1       0.752  10.649  20.456  0.00  0.00    +0.000 A 
ATOM     13  N   UNL     1       1.454  11.150  19.355  0.00  0.00    +0.000 N 
ATOM     14  H   UNL     1       1.660  12.137  19.272  0.00  0.00    +0.000 HD
ENDROOT
BRANCH   5  15
ATOM     15  C   UNL     1       2.363   6.211  19.119  0.00  0.00    +0.000 A 
ATOM     16  C   UNL     1       1.753   5.033  18.615  0.00  0.00    +0.000 A 
ATOM     17  C   UNL     1       2.659   4.496  17.734  0.00  0.00    +0.000 A 
ATOM     18  N   UNL     1       3.739   5.346  17.707  0.00  0.00    +0.000 N 
ATOM     19  N   UNL     1       3.547   6.418  18.517  0.00  0.00    +0.000 NA
BRANCH  18  20
ATOM     20  C   UNL     1       4.944   5.213  16.964  0.00  0.00    +0.000 A 
ATOM     21  C   UNL     1       6.061   5.992  17.319  0.00  0.00    +0.000 A 
ATOM     22  C   UNL     1       7.253   5.893  16.597  0.00  0.00    +0.000 A 
ATOM     23  C   UNL     1       7.337   5.023  15.514  0.00  0.00    +0.000 A 
ATOM     24  C   UNL     1       6.232   4.252  15.170  0.00  0.00    +0.000 A 
ATOM     25  F   UNL     1       6.313   3.421  14.122  0.00  0.00    +0.000 F 
ATOM     26  C   UNL     1       5.038   4.330  15.882  0.00  0.00    +0.000 A 
ENDBRANCH  18  20
ENDBRANCH   5  15
TORSDOF 2
ENDMDL
MODEL 9
REMARK VINA RESULT:      -7.7      1.359      2.671
REMARK  Name = 
REMARK  2 active torsions:
REMARK  status: ('A' for Active; 'I' for Inactive)
REMARK    1  A    between atoms: C_5  and  C_7
REMARK    2  A    between atoms: N_10  and  C_11
REMARK                            x       y       z     vdW  Elec       q    Type
REMARK                         _______ _______ _______ _____ _____    ______ ____
ROOT
ATOM      1  O   UNL     1       0.291   9.593  23.833  0.00  0.00    +0.000 OA
ATOM      2  C   UNL     1      -0.240  10.315  22.989  0.00  0.00    +0.000 C 
ATOM      3  C   UNL     1       0.425  10.661  21.669  0.00  0.00    +0.000 C 
ATOM      4  N   UNL     1      -0.506  11.061  20.600  0.00  0.00    +0.000 N 
ATOM      5  C   UNL     1      -0.451  10.550  19.286  0.00  0.00    +0.000 C 
ATOM      6  O   UNL     1      -1.356  10.716  18.466  0.00  0.00    +0.000 OA
ATOM      7  C   UNL     1      -1.579  11.915  21.027  0.00  0.00    +0.000 A 
ATOM      8  C   UNL     1      -2.245  12.792  20.163  0.00  0.00    +0.000 A 
ATOM      9  C   UNL     1      -3.306  13.581  20.623  0.00  0.00    +0.000 A 
ATOM     10  C   UNL     1      -3.730  13.489  21.944  0.00  0.00    +0.000 A 
ATOM     11  C   UNL     1      -3.087  12.619  22.820  0.00  0.00    +0.000 A 
ATOM     12  C   UNL     1      -2.006  11.859  22.368  0.00  0.00    +0.000 A 
ATOM     13  N   UNL     1      -1.394  10.987  23.274  0.00  0.00    +0.000 N 
ATOM     14  H   UNL     1      -1.780  10.839  24.197  0.00  0.00    +0.000 HD
ENDROOT
BRANCH   5  15
ATOM     15  C   UNL     1       0.699   9.705  18.886  0.00  0.00    +0.000 A 
ATOM     16  C   UNL     1       1.663  10.044  17.902  0.00  0.00    +0.000 A 
ATOM     17  C   UNL     1       2.514   8.969  17.832  0.00  0.00    +0.000 A 
ATOM     18  N   UNL     1       2.077   8.055  18.762  0.00  0.00    +0.000 N 
ATOM     19  N   UNL     1       0.994   8.516  19.439  0.00  0.00    +0.000 NA
BRANCH  18  20
ATOM     20  C   UNL     1       2.615   6.772  19.055  0.00  0.00    +0.000 A 
ATOM     21  C   UNL     1       3.618   6.240  18.225  0.00  0.00    +0.000 A 
ATOM     22  C   UNL     1       4.155   4.976  18.481  0.00  0.00    +0.000 A 
ATOM     23  C   UNL     1       3.690   4.233  19.562  0.00  0.00    +0.000 A 
ATOM     24  C   UNL     1       2.702   4.765  20.383  0.00  0.00    +0.000 A 
ATOM     25  F   UNL     1       2.251   4.044  21.419  0.00  0.00    +0.000 F 
ATOM     26  C   UNL     1       2.161   6.026  20.149  0.00  0.00    +0.000 A 
ENDBRANCH  18  20
ENDBRANCH   5  15
TORSDOF 2
ENDMDL
