MODEL 1
REMARK VINA RESULT:      -8.8      0.000      0.000
REMARK  Name = 
REMARK  6 active torsions:
REMARK  status: ('A' for Active; 'I' for Inactive)
REMARK    1  A    between atoms: C_1  and  C_2
REMARK    2  A    between atoms: C_5  and  C_6
REMARK    3  A    between atoms: C_9  and  C_10
REMARK    4  A    between atoms: C_15  and  C_16
REMARK    5  A    between atoms: N_18  and  C_19
REMARK    6  A    between atoms: C_19  and  C_20
REMARK                            x       y       z     vdW  Elec       q    Type
REMARK                         _______ _______ _______ _____ _____    ______ ____
ROOT
ATOM      1  C   UNL     1       2.337   5.078  20.254  0.00  0.00    +0.000 A 
ATOM      2  C   UNL     1       1.391   4.292  20.944  0.00  0.00    +0.000 A 
ATOM      3  C   UNL     1       1.569   2.915  21.116  0.00  0.00    +0.000 A 
ATOM      4  C   UNL     1       2.701   2.291  20.608  0.00  0.00    +0.000 A 
ATOM      5  C   UNL     1       3.669   3.049  19.951  0.00  0.00    +0.000 A 
ATOM      6  C   UNL     1       3.508   4.438  19.768  0.00  0.00    +0.000 A 
ENDROOT
BRANCH   1  10
ATOM      7  C   UNL     1       1.238   8.456  20.454  0.00  0.00    +0.000 A 
ATOM      8  C   UNL     1       1.931   8.464  19.267  0.00  0.00    +0.000 A 
ATOM      9  N   UNL     1       2.372   7.216  18.976  0.00  0.00    +0.000 NA
ATOM     10  C   UNL     1       2.048   6.491  20.028  0.00  0.00    +0.000 A 
ATOM     11  O   UNL     1       1.306   7.179  20.963  0.00  0.00    +0.000 OA
BRANCH   7  16
ATOM     12  C   UNL     1      -1.477  12.722  23.240  0.00  0.00    +0.000 C 
ATOM     13  C   UNL     1      -0.800  11.597  22.513  0.00  0.00    +0.000 A 
ATOM     14  C   UNL     1      -0.213  11.817  21.271  0.00  0.00    +0.000 A 
ATOM     15  C   UNL     1       0.440  10.777  20.615  0.00  0.00    +0.000 A 
ATOM     16  C   UNL     1       0.526   9.496  21.182  0.00  0.00    +0.000 A 
ATOM     17  C   UNL     1      -0.081   9.271  22.419  0.00  0.00    +0.000 A 
ATOM     18  C   UNL     1      -0.740  10.316  23.083  0.00  0.00    +0.000 A 
ENDBRANCH   7  16
ENDBRANCH   1  10
BRANCH   6  19
ATOM     19  C   UNL     1       4.685   5.106  19.115  0.00  0.00    +0.000 C 
ATOM     20  O   UNL     1       5.722   5.262  19.753  0.00  0.00    +0.000 OA
ATOM     21  N   UNL     1       4.564   5.466  17.803  0.00  0.00    +0.000 N 
ATOM     22  H   UNL     1       3.647   5.396  17.373  0.00  0.00    +0.000 HD
BRANCH  21  23
ATOM     23  C   UNL     1       5.509   6.286  17.087  0.00  0.00    +0.000 C 
BRANCH  23  24
ATOM     24  C   UNL     1       5.991   5.537  15.882  0.00  0.00    +0.000 A 
ATOM     25  C   UNL     1       5.155   4.611  15.251  0.00  0.00    +0.000 A 
ATOM     26  C   UNL     1       5.577   3.982  14.088  0.00  0.00    +0.000 A 
ATOM     27  C   UNL     1       6.830   4.304  13.588  0.00  0.00    +0.000 A 
ATOM     28  N   UNL     1       7.665   5.197  14.164  0.00  0.00    +0.000 NA
ATOM     29  C   UNL     1       7.222   5.797  15.293  0.00  0.00    +0.000 A 
ENDBRANCH  23  24
ENDBRANCH  21  23
ENDBRANCH   6  19
TORSDOF 5
ENDMDL
MODEL 2
REMARK VINA RESULT:      -8.7      3.976      7.522
REMARK  Name = 
REMARK  6 active torsions:
REMARK  status: ('A' for Active; 'I' for Inactive)
REMARK    1  A    between atoms: C_1  and  C_2
REMARK    2  A    between atoms: C_5  and  C_6
REMARK    3  A    between atoms: C_9  and  C_10
REMARK    4  A    between atoms: C_15  and  C_16
REMARK    5  A    between atoms: N_18  and  C_19
REMARK    6  A    between atoms: C_19  and  C_20
REMARK                            x       y       z     vdW  Elec       q    Type
REMARK                         _______ _______ _______ _____ _____    ______ ____
ROOT
ATOM      1  C   UNL     1       6.668   5.694  16.159  0.00  0.00    +0.000 A 
ATOM      2  C   UNL     1       7.451   5.167  15.111  0.00  0.00    +0.000 A 
ATOM      3  C   UNL     1       6.890   4.363  14.112  0.00  0.00    +0.000 A 
ATOM      4  C   UNL     1       5.533   4.071  14.135  0.00  0.00    +0.000 A 
ATOM      5  C   UNL     1       4.729   4.605  15.141  0.00  0.00    +0.000 A 
ATOM      6  C   UNL     1       5.275   5.418  16.155  0.00  0.00    +0.000 A 
ENDROOT
BRANCH   1  10
ATOM      7  C   UNL     1       8.181   8.181  18.205  0.00  0.00    +0.000 A 
ATOM      8  C   UNL     1       8.258   7.075  19.018  0.00  0.00    +0.000 A 
ATOM      9  N   UNL     1       7.788   5.985  18.366  0.00  0.00    +0.000 NA
ATOM     10  C   UNL     1       7.329   6.448  17.221  0.00  0.00    +0.000 A 
ATOM     11  O   UNL     1       7.577   7.790  17.031  0.00  0.00    +0.000 OA
BRANCH   7  16
ATOM     12  C   UNL     1       9.767  13.707  18.739  0.00  0.00    +0.000 C 
ATOM     13  C   UNL     1       9.340  12.272  18.631  0.00  0.00    +0.000 A 
ATOM     14  C   UNL     1       8.456  11.877  17.632  0.00  0.00    +0.000 A 
ATOM     15  C   UNL     1       8.086  10.541  17.516  0.00  0.00    +0.000 A 
ATOM     16  C   UNL     1       8.592   9.566  18.389  0.00  0.00    +0.000 A 
ATOM     17  C   UNL     1       9.464   9.966  19.404  0.00  0.00    +0.000 A 
ATOM     18  C   UNL     1       9.837  11.312  19.525  0.00  0.00    +0.000 A 
ENDBRANCH   7  16
ENDBRANCH   1  10
BRANCH   6  19
ATOM     19  C   UNL     1       4.253   5.974  17.106  0.00  0.00    +0.000 C 
ATOM     20  O   UNL     1       4.320   7.152  17.444  0.00  0.00    +0.000 OA
ATOM     21  N   UNL     1       3.247   5.145  17.514  0.00  0.00    +0.000 N 
ATOM     22  H   UNL     1       3.314   4.160  17.273  0.00  0.00    +0.000 HD
BRANCH  21  23
ATOM     23  C   UNL     1       2.309   5.449  18.566  0.00  0.00    +0.000 C 
BRANCH  23  24
ATOM     24  C   UNL     1       2.432   4.415  19.643  0.00  0.00    +0.000 A 
ATOM     25  C   UNL     1       1.400   4.240  20.569  0.00  0.00    +0.000 A 
ATOM     26  C   UNL     1       1.485   3.224  21.513  0.00  0.00    +0.000 A 
ATOM     27  C   UNL     1       2.606   2.409  21.497  0.00  0.00    +0.000 A 
ATOM     28  N   UNL     1       3.622   2.542  20.616  0.00  0.00    +0.000 NA
ATOM     29  C   UNL     1       3.507   3.536  19.706  0.00  0.00    +0.000 A 
ENDBRANCH  23  24
ENDBRANCH  21  23
ENDBRANCH   6  19
TORSDOF 5
ENDMDL
MODEL 3
REMARK VINA RESULT:      -8.6      2.056      5.318
REMARK  Name = 
REMARK  6 active torsions:
REMARK  status: ('A' for Active; 'I' for Inactive)
REMARK    1  A    between atoms: C_1  and  C_2
REMARK    2  A    between atoms: C_5  and  C_6
REMARK    3  A    between atoms: C_9  and  C_10
REMARK    4  A    between atoms: C_15  and  C_16
REMARK    5  A    between atoms: N_18  and  C_19
REMARK    6  A    between atoms: C_19  and  C_20
REMARK                            x       y       z     vdW  Elec       q    Type
REMARK                         _______ _______ _______ _____ _____    ______ ____
ROOT
ATOM      1  C   UNL     1       4.595   5.702  16.884  0.00  0.00    +0.000 A 
ATOM      2  C   UNL     1       5.426   6.629  16.220  0.00  0.00    +0.000 A 
ATOM      3  C   UNL     1       6.294   6.233  15.197  0.00  0.00    +0.000 A 
ATOM      4  C   UNL     1       6.347   4.901  14.807  0.00  0.00    +0.000 A 
ATOM      5  C   UNL     1       5.513   3.969  15.422  0.00  0.00    +0.000 A 
ATOM      6  C   UNL     1       4.632   4.349  16.455  0.00  0.00    +0.000 A 
ENDROOT
BRANCH   1  10
ATOM      7  C   UNL     1       2.409   7.451  19.080  0.00  0.00    +0.000 A 
ATOM      8  C   UNL     1       2.775   6.377  19.856  0.00  0.00    +0.000 A 
ATOM      9  N   UNL     1       3.686   5.618  19.202  0.00  0.00    +0.000 NA
ATOM     10  C   UNL     1       3.782   6.163  18.006  0.00  0.00    +0.000 A 
ATOM     11  O   UNL     1       3.055   7.326  17.870  0.00  0.00    +0.000 OA
BRANCH   7  16
ATOM     12  C   UNL     1      -1.184  11.830  20.198  0.00  0.00    +0.000 C 
ATOM     13  C   UNL     1      -0.226  10.714  19.899  0.00  0.00    +0.000 A 
ATOM     14  C   UNL     1       0.192   9.857  20.912  0.00  0.00    +0.000 A 
ATOM     15  C   UNL     1       1.056   8.805  20.625  0.00  0.00    +0.000 A 
ATOM     16  C   UNL     1       1.521   8.579  19.320  0.00  0.00    +0.000 A 
ATOM     17  C   UNL     1       1.117   9.451  18.306  0.00  0.00    +0.000 A 
ATOM     18  C   UNL     1       0.247  10.513  18.593  0.00  0.00    +0.000 A 
ENDBRANCH   7  16
ENDBRANCH   1  10
BRANCH   6  19
ATOM     19  C   UNL     1       3.751   3.234  16.944  0.00  0.00    +0.000 C 
ATOM     20  O   UNL     1       2.630   3.094  16.462  0.00  0.00    +0.000 OA
ATOM     21  N   UNL     1       4.265   2.380  17.877  0.00  0.00    +0.000 N 
ATOM     22  H   UNL     1       5.158   2.617  18.299  0.00  0.00    +0.000 HD
BRANCH  21  23
ATOM     23  C   UNL     1       3.500   1.390  18.594  0.00  0.00    +0.000 C 
BRANCH  23  24
ATOM     24  C   UNL     1       2.751   2.062  19.704  0.00  0.00    +0.000 A 
ATOM     25  C   UNL     1       1.412   2.423  19.530  0.00  0.00    +0.000 A 
ATOM     26  C   UNL     1       0.702   2.970  20.590  0.00  0.00    +0.000 A 
ATOM     27  C   UNL     1       1.358   3.137  21.800  0.00  0.00    +0.000 A 
ATOM     28  N   UNL     1       2.649   2.796  22.011  0.00  0.00    +0.000 NA
ATOM     29  C   UNL     1       3.312   2.260  20.960  0.00  0.00    +0.000 A 
ENDBRANCH  23  24
ENDBRANCH  21  23
ENDBRANCH   6  19
TORSDOF 5
ENDMDL
MODEL 4
REMARK VINA RESULT:      -8.6      2.087      8.289
REMARK  Name = 
REMARK  6 active torsions:
REMARK  status: ('A' for Active; 'I' for Inactive)
REMARK    1  A    between atoms: C_1  and  C_2
REMARK    2  A    between atoms: C_5  and  C_6
REMARK    3  A    between atoms: C_9  and  C_10
REMARK    4  A    between atoms: C_15  and  C_16
REMARK    5  A    between atoms: N_18  and  C_19
REMARK    6  A    between atoms: C_19  and  C_20
REMARK                            x       y       z     vdW  Elec       q    Type
REMARK                         _______ _______ _______ _____ _____    ______ ____
ROOT
ATOM      1  C   UNL     1       3.660   3.796  19.709  0.00  0.00    +0.000 A 
ATOM      2  C   UNL     1       3.722   2.685  20.577  0.00  0.00    +0.000 A 
ATOM      3  C   UNL     1       2.664   2.367  21.436  0.00  0.00    +0.000 A 
ATOM      4  C   UNL     1       1.516   3.148  21.443  0.00  0.00    +0.000 A 
ATOM      5  C   UNL     1       1.413   4.232  20.573  0.00  0.00    +0.000 A 
ATOM      6  C   UNL     1       2.468   4.568  19.700  0.00  0.00    +0.000 A 
ENDROOT
BRANCH   1  10
ATOM      7  C   UNL     1       6.007   4.400  17.105  0.00  0.00    +0.000 A 
ATOM      8  C   UNL     1       6.738   4.745  18.217  0.00  0.00    +0.000 A 
ATOM      9  N   UNL     1       6.019   4.505  19.339  0.00  0.00    +0.000 NA
ATOM     10  C   UNL     1       4.833   4.129  18.906  0.00  0.00    +0.000 A 
ATOM     11  O   UNL     1       4.763   3.998  17.536  0.00  0.00    +0.000 OA
BRANCH   7  16
ATOM     12  C   UNL     1       7.148   4.251  11.447  0.00  0.00    +0.000 C 
ATOM     13  C   UNL     1       6.846   4.323  12.915  0.00  0.00    +0.000 A 
ATOM     14  C   UNL     1       5.759   3.633  13.442  0.00  0.00    +0.000 A 
ATOM     15  C   UNL     1       5.500   3.677  14.809  0.00  0.00    +0.000 A 
ATOM     16  C   UNL     1       6.320   4.407  15.683  0.00  0.00    +0.000 A 
ATOM     17  C   UNL     1       7.399   5.117  15.151  0.00  0.00    +0.000 A 
ATOM     18  C   UNL     1       7.662   5.075  13.774  0.00  0.00    +0.000 A 
ENDBRANCH   7  16
ENDBRANCH   1  10
BRANCH   6  19
ATOM     19  C   UNL     1       2.153   5.711  18.776  0.00  0.00    +0.000 C 
ATOM     20  O   UNL     1       1.576   5.489  17.715  0.00  0.00    +0.000 OA
ATOM     21  N   UNL     1       2.477   6.971  19.191  0.00  0.00    +0.000 N 
ATOM     22  H   UNL     1       3.039   7.067  20.031  0.00  0.00    +0.000 HD
BRANCH  21  23
ATOM     23  C   UNL     1       2.429   8.146  18.357  0.00  0.00    +0.000 C 
BRANCH  23  24
ATOM     24  C   UNL     1       1.342   9.051  18.852  0.00  0.00    +0.000 A 
ATOM     25  C   UNL     1       0.488   9.684  17.944  0.00  0.00    +0.000 A 
ATOM     26  C   UNL     1      -0.567  10.455  18.413  0.00  0.00    +0.000 A 
ATOM     27  C   UNL     1      -0.737  10.567  19.785  0.00  0.00    +0.000 A 
ATOM     28  N   UNL     1       0.063   9.967  20.695  0.00  0.00    +0.000 NA
ATOM     29  C   UNL     1       1.078   9.218  20.206  0.00  0.00    +0.000 A 
ENDBRANCH  23  24
ENDBRANCH  21  23
ENDBRANCH   6  19
TORSDOF 5
ENDMDL
MODEL 5
REMARK VINA RESULT:      -8.6      1.672      8.577
REMARK  Name = 
REMARK  6 active torsions:
REMARK  status: ('A' for Active; 'I' for Inactive)
REMARK    1  A    between atoms: C_1  and  C_2
REMARK    2  A    between atoms: C_5  and  C_6
REMARK    3  A    between atoms: C_9  and  C_10
REMARK    4  A    between atoms: C_15  and  C_16
REMARK    5  A    between atoms: N_18  and  C_19
REMARK    6  A    between atoms: C_19  and  C_20
REMARK                            x       y       z     vdW  Elec       q    Type
REMARK                         _______ _______ _______ _____ _____    ______ ____
ROOT
ATOM      1  C   UNL     1       3.739   3.786  19.884  0.00  0.00    +0.000 A 
ATOM      2  C   UNL     1       3.850   2.558  20.568  0.00  0.00    +0.000 A 
ATOM      3  C   UNL     1       2.869   2.131  21.471  0.00  0.00    +0.000 A 
ATOM      4  C   UNL     1       1.751   2.920  21.706  0.00  0.00    +0.000 A 
ATOM      5  C   UNL     1       1.599   4.123  21.020  0.00  0.00    +0.000 A 
ATOM      6  C   UNL     1       2.575   4.570  20.106  0.00  0.00    +0.000 A 
ENDROOT
BRANCH   1  10
ATOM      7  C   UNL     1       5.939   4.501  17.181  0.00  0.00    +0.000 A 
ATOM      8  C   UNL     1       6.624   5.045  18.241  0.00  0.00    +0.000 A 
ATOM      9  N   UNL     1       5.962   4.799  19.398  0.00  0.00    +0.000 NA
ATOM     10  C   UNL     1       4.840   4.217  19.027  0.00  0.00    +0.000 A 
ATOM     11  O   UNL     1       4.774   3.960  17.675  0.00  0.00    +0.000 OA
BRANCH   7  16
ATOM     12  C   UNL     1       6.990   4.050  11.522  0.00  0.00    +0.000 C 
ATOM     13  C   UNL     1       6.712   4.200  12.989  0.00  0.00    +0.000 A 
ATOM     14  C   UNL     1       5.624   3.552  13.566  0.00  0.00    +0.000 A 
ATOM     15  C   UNL     1       5.387   3.670  14.933  0.00  0.00    +0.000 A 
ATOM     16  C   UNL     1       6.230   4.432  15.756  0.00  0.00    +0.000 A 
ATOM     17  C   UNL     1       7.310   5.098  15.173  0.00  0.00    +0.000 A 
ATOM     18  C   UNL     1       7.551   4.983  13.796  0.00  0.00    +0.000 A 
ENDBRANCH   7  16
ENDBRANCH   1  10
BRANCH   6  19
ATOM     19  C   UNL     1       2.208   5.843  19.397  0.00  0.00    +0.000 C 
ATOM     20  O   UNL     1       1.996   5.821  18.187  0.00  0.00    +0.000 OA
ATOM     21  N   UNL     1       2.070   6.973  20.150  0.00  0.00    +0.000 N 
ATOM     22  H   UNL     1       2.358   6.935  21.123  0.00  0.00    +0.000 HD
BRANCH  21  23
ATOM     23  C   UNL     1       1.921   8.303  19.614  0.00  0.00    +0.000 C 
BRANCH  23  24
ATOM     24  C   UNL     1       0.996   9.084  20.497  0.00  0.00    +0.000 A 
ATOM     25  C   UNL     1       0.807   8.701  21.827  0.00  0.00    +0.000 A 
ATOM     26  C   UNL     1       0.013   9.478  22.661  0.00  0.00    +0.000 A 
ATOM     27  C   UNL     1      -0.566  10.622  22.135  0.00  0.00    +0.000 A 
ATOM     28  N   UNL     1      -0.403  11.030  20.856  0.00  0.00    +0.000 NA
ATOM     29  C   UNL     1       0.381  10.255  20.071  0.00  0.00    +0.000 A 
ENDBRANCH  23  24
ENDBRANCH  21  23
ENDBRANCH   6  19
TORSDOF 5
ENDMDL
MODEL 6
REMARK VINA RESULT:      -8.6      1.636      8.747
REMARK  Name = 
REMARK  6 active torsions:
REMARK  status: ('A' for Active; 'I' for Inactive)
REMARK    1  A    between atoms: C_1  and  C_2
REMARK    2  A    between atoms: C_5  and  C_6
REMARK    3  A    between atoms: C_9  and  C_10
REMARK    4  A    between atoms: C_15  and  C_16
REMARK    5  A    between atoms: N_18  and  C_19
REMARK    6  A    between atoms: C_19  and  C_20
REMARK                            x       y       z     vdW  Elec       q    Type
REMARK                         _______ _______ _______ _____ _____    ______ ____
ROOT
ATOM      1  C   UNL     1       3.656   4.060  19.702  0.00  0.00    +0.000 A 
ATOM      2  C   UNL     1       3.542   2.761  20.240  0.00  0.00    +0.000 A 
ATOM      3  C   UNL     1       2.501   2.417  21.109  0.00  0.00    +0.000 A 
ATOM      4  C   UNL     1       1.544   3.362  21.456  0.00  0.00    +0.000 A 
ATOM      5  C   UNL     1       1.613   4.644  20.913  0.00  0.00    +0.000 A 
ATOM      6  C   UNL     1       2.654   5.009  20.036  0.00  0.00    +0.000 A 
ENDROOT
BRANCH   1  10
ATOM      7  C   UNL     1       5.983   4.573  17.060  0.00  0.00    +0.000 A 
ATOM      8  C   UNL     1       6.698   5.021  18.144  0.00  0.00    +0.000 A 
ATOM      9  N   UNL     1       5.987   4.831  19.282  0.00  0.00    +0.000 NA
ATOM     10  C   UNL     1       4.817   4.381  18.877  0.00  0.00    +0.000 A 
ATOM     11  O   UNL     1       4.754   4.154  17.519  0.00  0.00    +0.000 OA
BRANCH   7  16
ATOM     12  C   UNL     1       7.133   4.083  11.423  0.00  0.00    +0.000 C 
ATOM     13  C   UNL     1       6.828   4.243  12.884  0.00  0.00    +0.000 A 
ATOM     14  C   UNL     1       5.755   3.565  13.454  0.00  0.00    +0.000 A 
ATOM     15  C   UNL     1       5.493   3.693  14.815  0.00  0.00    +0.000 A 
ATOM     16  C   UNL     1       6.297   4.495  15.640  0.00  0.00    +0.000 A 
ATOM     17  C   UNL     1       7.362   5.190  15.064  0.00  0.00    +0.000 A 
ATOM     18  C   UNL     1       7.627   5.065  13.692  0.00  0.00    +0.000 A 
ENDBRANCH   7  16
ENDBRANCH   1  10
BRANCH   6  19
ATOM     19  C   UNL     1       2.524   6.401  19.483  0.00  0.00    +0.000 C 
ATOM     20  O   UNL     1       3.089   6.688  18.431  0.00  0.00    +0.000 OA
ATOM     21  N   UNL     1       1.726   7.280  20.157  0.00  0.00    +0.000 N 
ATOM     22  H   UNL     1       1.374   7.003  21.068  0.00  0.00    +0.000 HD
BRANCH  21  23
ATOM     23  C   UNL     1       1.649   8.694  19.882  0.00  0.00    +0.000 C 
BRANCH  23  24
ATOM     24  C   UNL     1       0.903   9.367  20.994  0.00  0.00    +0.000 A 
ATOM     25  C   UNL     1      -0.178  10.204  20.707  0.00  0.00    +0.000 A 
ATOM     26  C   UNL     1      -0.915  10.758  21.745  0.00  0.00    +0.000 A 
ATOM     27  C   UNL     1      -0.547  10.451  23.046  0.00  0.00    +0.000 A 
ATOM     28  N   UNL     1       0.487   9.642  23.365  0.00  0.00    +0.000 NA
ATOM     29  C   UNL     1       1.182   9.113  22.332  0.00  0.00    +0.000 A 
ENDBRANCH  23  24
ENDBRANCH  21  23
ENDBRANCH   6  19
TORSDOF 5
ENDMDL
MODEL 7
REMARK VINA RESULT:      -8.5      1.601      8.742
REMARK  Name = 
REMARK  6 active torsions:
REMARK  status: ('A' for Active; 'I' for Inactive)
REMARK    1  A    between atoms: C_1  and  C_2
REMARK    2  A    between atoms: C_5  and  C_6
REMARK    3  A    between atoms: C_9  and  C_10
REMARK    4  A    between atoms: C_15  and  C_16
REMARK    5  A    between atoms: N_18  and  C_19
REMARK    6  A    between atoms: C_19  and  C_20
REMARK                            x       y       z     vdW  Elec       q    Type
REMARK                         _______ _______ _______ _____ _____    ______ ____
ROOT
ATOM      1  C   UNL     1       3.692   4.145  19.712  0.00  0.00    +0.000 A 
ATOM      2  C   UNL     1       3.751   2.856  20.281  0.00  0.00    +0.000 A 
ATOM      3  C   UNL     1       2.798   2.421  21.209  0.00  0.00    +0.000 A 
ATOM      4  C   UNL     1       1.758   3.263  21.583  0.00  0.00    +0.000 A 
ATOM      5  C   UNL     1       1.657   4.530  21.011  0.00  0.00    +0.000 A 
ATOM      6  C   UNL     1       2.607   4.986  20.075  0.00  0.00    +0.000 A 
ENDROOT
BRANCH   1  10
ATOM      7  C   UNL     1       5.868   4.755  16.963  0.00  0.00    +0.000 A 
ATOM      8  C   UNL     1       6.497   5.450  17.968  0.00  0.00    +0.000 A 
ATOM      9  N   UNL     1       5.840   5.271  19.140  0.00  0.00    +0.000 NA
ATOM     10  C   UNL     1       4.769   4.571  18.822  0.00  0.00    +0.000 A 
ATOM     11  O   UNL     1       4.741   4.178  17.502  0.00  0.00    +0.000 OA
BRANCH   7  16
ATOM     12  C   UNL     1       7.217   4.188  11.378  0.00  0.00    +0.000 C 
ATOM     13  C   UNL     1       6.872   4.302  12.834  0.00  0.00    +0.000 A 
ATOM     14  C   UNL     1       7.660   5.073  13.684  0.00  0.00    +0.000 A 
ATOM     15  C   UNL     1       7.318   5.200  15.027  0.00  0.00    +0.000 A 
ATOM     16  C   UNL     1       6.182   4.568  15.554  0.00  0.00    +0.000 A 
ATOM     17  C   UNL     1       5.403   3.778  14.705  0.00  0.00    +0.000 A 
ATOM     18  C   UNL     1       5.744   3.646  13.351  0.00  0.00    +0.000 A 
ENDBRANCH   7  16
ENDBRANCH   1  10
BRANCH   6  19
ATOM     19  C   UNL     1       2.296   6.339  19.501  0.00  0.00    +0.000 C 
ATOM     20  O   UNL     1       2.384   6.516  18.289  0.00  0.00    +0.000 OA
ATOM     21  N   UNL     1       1.867   7.310  20.359  0.00  0.00    +0.000 N 
ATOM     22  H   UNL     1       1.914   7.121  21.355  0.00  0.00    +0.000 HD
BRANCH  21  23
ATOM     23  C   UNL     1       1.718   8.703  20.014  0.00  0.00    +0.000 C 
BRANCH  23  24
ATOM     24  C   UNL     1       0.778   9.348  20.985  0.00  0.00    +0.000 A 
ATOM     25  C   UNL     1       0.740   8.920  22.315  0.00  0.00    +0.000 A 
ATOM     26  C   UNL     1      -0.075   9.578  23.227  0.00  0.00    +0.000 A 
ATOM     27  C   UNL     1      -0.827  10.652  22.778  0.00  0.00    +0.000 A 
ATOM     28  N   UNL     1      -0.814  11.100  21.502  0.00  0.00    +0.000 NA
ATOM     29  C   UNL     1      -0.006  10.443  20.639  0.00  0.00    +0.000 A 
ENDBRANCH  23  24
ENDBRANCH  21  23
ENDBRANCH   6  19
TORSDOF 5
ENDMDL
MODEL 8
REMARK VINA RESULT:      -8.5      1.276      1.471
REMARK  Name = 
REMARK  6 active torsions:
REMARK  status: ('A' for Active; 'I' for Inactive)
REMARK    1  A    between atoms: C_1  and  C_2
REMARK    2  A    between atoms: C_5  and  C_6
REMARK    3  A    between atoms: C_9  and  C_10
REMARK    4  A    between atoms: C_15  and  C_16
REMARK    5  A    between atoms: N_18  and  C_19
REMARK    6  A    between atoms: C_19  and  C_20
REMARK                            x       y       z     vdW  Elec       q    Type
REMARK                         _______ _______ _______ _____ _____    ______ ____
ROOT
ATOM      1  C   UNL     1       2.624   4.399  18.878  0.00  0.00    +0.000 A 
ATOM      2  C   UNL     1       1.516   3.652  19.328  0.00  0.00    +0.000 A 
ATOM      3  C   UNL     1       1.516   2.253  19.301  0.00  0.00    +0.000 A 
ATOM      4  C   UNL     1       2.629   1.567  18.831  0.00  0.00    +0.000 A 
ATOM      5  C   UNL     1       3.751   2.279  18.411  0.00  0.00    +0.000 A 
ATOM      6  C   UNL     1       3.770   3.688  18.431  0.00  0.00    +0.000 A 
ENDROOT
BRANCH   1  10
ATOM      7  C   UNL     1       1.892   7.828  19.480  0.00  0.00    +0.000 A 
ATOM      8  C   UNL     1       2.725   7.914  18.391  0.00  0.00    +0.000 A 
ATOM      9  N   UNL     1       3.058   6.674  17.959  0.00  0.00    +0.000 NA
ATOM     10  C   UNL     1       2.525   5.855  18.844  0.00  0.00    +0.000 A 
ATOM     11  O   UNL     1       1.752   6.494  19.789  0.00  0.00    +0.000 OA
BRANCH   7  16
ATOM     12  C   UNL     1      -0.732  11.977  22.521  0.00  0.00    +0.000 C 
ATOM     13  C   UNL     1      -0.077  10.878  21.735  0.00  0.00    +0.000 A 
ATOM     14  C   UNL     1       0.201  11.052  20.383  0.00  0.00    +0.000 A 
ATOM     15  C   UNL     1       0.837  10.043  19.666  0.00  0.00    +0.000 A 
ATOM     16  C   UNL     1       1.214   8.838  20.280  0.00  0.00    +0.000 A 
ATOM     17  C   UNL     1       0.917   8.656  21.632  0.00  0.00    +0.000 A 
ATOM     18  C   UNL     1       0.275   9.671  22.358  0.00  0.00    +0.000 A 
ENDBRANCH   7  16
ENDBRANCH   1  10
BRANCH   6  19
ATOM     19  C   UNL     1       5.087   4.285  18.024  0.00  0.00    +0.000 C 
ATOM     20  O   UNL     1       5.972   4.427  18.864  0.00  0.00    +0.000 OA
ATOM     21  N   UNL     1       5.264   4.597  16.706  0.00  0.00    +0.000 N 
ATOM     22  H   UNL     1       4.458   4.545  16.091  0.00  0.00    +0.000 HD
BRANCH  21  23
ATOM     23  C   UNL     1       6.376   5.352  16.184  0.00  0.00    +0.000 C 
BRANCH  23  24
ATOM     24  C   UNL     1       6.652   4.906  14.780  0.00  0.00    +0.000 A 
ATOM     25  C   UNL     1       5.884   3.891  14.202  0.00  0.00    +0.000 A 
ATOM     26  C   UNL     1       6.091   3.541  12.875  0.00  0.00    +0.000 A 
ATOM     27  C   UNL     1       7.064   4.224  12.162  0.00  0.00    +0.000 A 
ATOM     28  N   UNL     1       7.824   5.214  12.682  0.00  0.00    +0.000 NA
ATOM     29  C   UNL     1       7.594   5.536  13.975  0.00  0.00    +0.000 A 
ENDBRANCH  23  24
ENDBRANCH  21  23
ENDBRANCH   6  19
TORSDOF 5
ENDMDL
MODEL 9
REMARK VINA RESULT:      -8.5      2.166      5.273
REMARK  Name = 
REMARK  6 active torsions:
REMARK  status: ('A' for Active; 'I' for Inactive)
REMARK    1  A    between atoms: C_1  and  C_2
REMARK    2  A    between atoms: C_5  and  C_6
REMARK    3  A    between atoms: C_9  and  C_10
REMARK    4  A    between atoms: C_15  and  C_16
REMARK    5  A    between atoms: N_18  and  C_19
REMARK    6  A    between atoms: C_19  and  C_20
REMARK                            x       y       z     vdW  Elec       q    Type
REMARK                         _______ _______ _______ _____ _____    ______ ____
ROOT
ATOM      1  C   UNL     1       5.004   5.961  17.444  0.00  0.00    +0.000 A 
ATOM      2  C   UNL     1       5.992   6.901  17.083  0.00  0.00    +0.000 A 
ATOM      3  C   UNL     1       7.082   6.545  16.280  0.00  0.00    +0.000 A 
ATOM      4  C   UNL     1       7.206   5.242  15.814  0.00  0.00    +0.000 A 
ATOM      5  C   UNL     1       6.227   4.301  16.128  0.00  0.00    +0.000 A 
ATOM      6  C   UNL     1       5.121   4.641  16.935  0.00  0.00    +0.000 A 
ENDROOT
BRANCH   1  10
ATOM      7  C   UNL     1       2.343   7.613  19.133  0.00  0.00    +0.000 A 
ATOM      8  C   UNL     1       2.525   6.506  19.927  0.00  0.00    +0.000 A 
ATOM      9  N   UNL     1       3.573   5.776  19.475  0.00  0.00    +0.000 NA
ATOM     10  C   UNL     1       3.944   6.372  18.360  0.00  0.00    +0.000 A 
ATOM     11  O   UNL     1       3.258   7.540  18.106  0.00  0.00    +0.000 OA
BRANCH   7  16
ATOM     12  C   UNL     1      -1.420  11.968  19.591  0.00  0.00    +0.000 C 
ATOM     13  C   UNL     1      -0.418  10.858  19.460  0.00  0.00    +0.000 A 
ATOM     14  C   UNL     1       0.012  10.165  20.588  0.00  0.00    +0.000 A 
ATOM     15  C   UNL     1       0.917   9.116  20.459  0.00  0.00    +0.000 A 
ATOM     16  C   UNL     1       1.412   8.730  19.204  0.00  0.00    +0.000 A 
ATOM     17  C   UNL     1       0.995   9.438  18.074  0.00  0.00    +0.000 A 
ATOM     18  C   UNL     1       0.084  10.497  18.201  0.00  0.00    +0.000 A 
ENDBRANCH   7  16
ENDBRANCH   1  10
BRANCH   6  19
ATOM     19  C   UNL     1       4.125   3.529  17.101  0.00  0.00    +0.000 C 
ATOM     20  O   UNL     1       3.071   3.562  16.471  0.00  0.00    +0.000 OA
ATOM     21  N   UNL     1       4.465   2.487  17.916  0.00  0.00    +0.000 N 
ATOM     22  H   UNL     1       5.306   2.576  18.478  0.00  0.00    +0.000 HD
BRANCH  21  23
ATOM     23  C   UNL     1       3.559   1.448  18.340  0.00  0.00    +0.000 C 
BRANCH  23  24
ATOM     24  C   UNL     1       2.667   1.989  19.415  0.00  0.00    +0.000 A 
ATOM     25  C   UNL     1       3.193   2.307  20.670  0.00  0.00    +0.000 A 
ATOM     26  C   UNL     1       2.377   2.884  21.634  0.00  0.00    +0.000 A 
ATOM     27  C   UNL     1       1.052   3.131  21.307  0.00  0.00    +0.000 A 
ATOM     28  N   UNL     1       0.507   2.844  20.104  0.00  0.00    +0.000 NA
ATOM     29  C   UNL     1       1.329   2.288  19.185  0.00  0.00    +0.000 A 
ENDBRANCH  23  24
ENDBRANCH  21  23
ENDBRANCH   6  19
TORSDOF 5
ENDMDL
