MODEL 1
REMARK VINA RESULT:      -7.5      0.000      0.000
REMARK  Name = 
REMARK  8 active torsions:
REMARK  status: ('A' for Active; 'I' for Inactive)
REMARK    1  A    between atoms: C_1  and  C_2
REMARK    2  A    between atoms: C_4  and  C_5
REMARK    3  A    between atoms: N_7  and  C_8
REMARK    4  A    between atoms: N_7  and  C_15
REMARK    5  A    between atoms: C_8  and  C_9
REMARK    6  A    between atoms: C_12  and  C_13
REMARK    7  A    between atoms: C_23  and  C_24
REMARK    8  A    between atoms: N_26  and  C_27
REMARK                            x       y       z     vdW  Elec       q    Type
REMARK                         _______ _______ _______ _____ _____    ______ ____
ROOT
ATOM      1  C   UNL     1       4.571   6.363  17.912  0.00  0.00    +0.000 C 
ATOM      2  O   UNL     1       5.591   7.024  17.864  0.00  0.00    +0.000 OA
ATOM      3  N   UNL     1       4.631   4.906  17.612  0.00  0.00    +0.000 N 
ENDROOT
BRANCH   1   7
ATOM      4  C   UNL     1       2.582  10.727  17.839  0.00  0.00    +0.000 C 
ATOM      5  C   UNL     1       2.061   9.292  17.884  0.00  0.00    +0.000 A 
ATOM      6  C   UNL     1       2.698   8.136  17.389  0.00  0.00    +0.000 A 
ATOM      7  C   UNL     1       3.255   7.168  18.254  0.00  0.00    +0.000 A 
ATOM      8  C   UNL     1       2.457   7.035  19.446  0.00  0.00    +0.000 A 
ATOM      9  C   UNL     1       2.195   6.222  20.588  0.00  0.00    +0.000 A 
ATOM     10  C   UNL     1       2.746   4.907  20.988  0.00  0.00    +0.000 C 
ATOM     11  N   UNL     1       1.210   6.702  21.390  0.00  0.00    +0.000 NA
ATOM     12  N   UNL     1       0.816   7.818  20.771  0.00  0.00    +0.000 N 
ATOM     13  C   UNL     1      -0.225   8.696  21.246  0.00  0.00    +0.000 C 
ATOM     14  C   UNL     1       1.517   8.065  19.644  0.00  0.00    +0.000 A 
ATOM     15  N   UNL     1       1.314   9.184  18.955  0.00  0.00    +0.000 NA
ENDBRANCH   1   7
BRANCH   3  16
ATOM     16  C   UNL     1       3.548   3.935  17.615  0.00  0.00    +0.000 A 
ATOM     17  C   UNL     1       2.309   4.261  17.146  0.00  0.00    +0.000 A 
ATOM     18  C   UNL     1       1.213   3.782  17.892  0.00  0.00    +0.000 A 
ATOM     19  C   UNL     1       1.286   2.677  18.652  0.00  0.00    +0.000 A 
ATOM     20  F   UNL     1       0.224   2.284  19.351  0.00  0.00    +0.000 F 
ATOM     21  C   UNL     1       2.470   2.019  18.684  0.00  0.00    +0.000 A 
ATOM     22  C   UNL     1       3.623   2.673  18.197  0.00  0.00    +0.000 A 
ENDBRANCH   3  16
BRANCH   3  23
ATOM     23  C   UNL     1       5.949   4.338  17.160  0.00  0.00    +0.000 C 
BRANCH  23  24
ATOM     24  C   UNL     1       6.226   4.381  15.660  0.00  0.00    +0.000 A 
ATOM     25  C   UNL     1       5.575   3.596  14.730  0.00  0.00    +0.000 A 
ATOM     26  S   UNL     1       6.174   3.871  13.155  0.00  0.00    +0.000 S 
ATOM     27  C   UNL     1       7.331   4.977  13.784  0.00  0.00    +0.000 A 
ATOM     28  C   UNL     1       8.244   5.673  12.817  0.00  0.00    +0.000 C 
ATOM     29  N   UNL     1       7.293   5.121  15.099  0.00  0.00    +0.000 NA
ENDBRANCH  23  24
ENDBRANCH   3  23
TORSDOF 4
ENDMDL
MODEL 2
REMARK VINA RESULT:      -7.3      0.826      1.023
REMARK  Name = 
REMARK  8 active torsions:
REMARK  status: ('A' for Active; 'I' for Inactive)
REMARK    1  A    between atoms: C_1  and  C_2
REMARK    2  A    between atoms: C_4  and  C_5
REMARK    3  A    between atoms: N_7  and  C_8
REMARK    4  A    between atoms: N_7  and  C_15
REMARK    5  A    between atoms: C_8  and  C_9
REMARK    6  A    between atoms: C_12  and  C_13
REMARK    7  A    between atoms: C_23  and  C_24
REMARK    8  A    between atoms: N_26  and  C_27
REMARK                            x       y       z     vdW  Elec       q    Type
REMARK                         _______ _______ _______ _____ _____    ______ ____
ROOT
ATOM      1  C   UNL     1       4.561   6.248  17.978  0.00  0.00    +0.000 C 
ATOM      2  O   UNL     1       5.599   6.882  17.942  0.00  0.00    +0.000 OA
ATOM      3  N   UNL     1       4.588   4.786  17.696  0.00  0.00    +0.000 N 
ENDROOT
BRANCH   1   7
ATOM      4  C   UNL     1       2.681  10.657  17.793  0.00  0.00    +0.000 C 
ATOM      5  C   UNL     1       2.124   9.236  17.859  0.00  0.00    +0.000 A 
ATOM      6  C   UNL     1       2.739   8.055  17.395  0.00  0.00    +0.000 A 
ATOM      7  C   UNL     1       3.261   7.092  18.286  0.00  0.00    +0.000 A 
ATOM      8  C   UNL     1       2.443   7.001  19.470  0.00  0.00    +0.000 A 
ATOM      9  C   UNL     1       2.146   6.217  20.623  0.00  0.00    +0.000 A 
ATOM     10  C   UNL     1       2.660   4.897  21.056  0.00  0.00    +0.000 C 
ATOM     11  N   UNL     1       1.163   6.737  21.402  0.00  0.00    +0.000 NA
ATOM     12  N   UNL     1       0.804   7.850  20.756  0.00  0.00    +0.000 N 
ATOM     13  C   UNL     1      -0.221   8.761  21.199  0.00  0.00    +0.000 C 
ATOM     14  C   UNL     1       1.527   8.057  19.635  0.00  0.00    +0.000 A 
ATOM     15  N   UNL     1       1.361   9.167  18.921  0.00  0.00    +0.000 NA
ENDBRANCH   1   7
BRANCH   3  16
ATOM     16  C   UNL     1       3.480   3.844  17.691  0.00  0.00    +0.000 A 
ATOM     17  C   UNL     1       2.258   4.199  17.200  0.00  0.00    +0.000 A 
ATOM     18  C   UNL     1       1.138   3.755  17.932  0.00  0.00    +0.000 A 
ATOM     19  C   UNL     1       1.170   2.654  18.703  0.00  0.00    +0.000 A 
ATOM     20  F   UNL     1       0.087   2.295  19.388  0.00  0.00    +0.000 F 
ATOM     21  C   UNL     1       2.336   1.966  18.758  0.00  0.00    +0.000 A 
ATOM     22  C   UNL     1       3.513   2.586  18.284  0.00  0.00    +0.000 A 
ENDBRANCH   3  16
BRANCH   3  23
ATOM     23  C   UNL     1       5.899   4.179  17.276  0.00  0.00    +0.000 C 
BRANCH  23  24
ATOM     24  C   UNL     1       6.241   4.269  15.792  0.00  0.00    +0.000 A 
ATOM     25  C   UNL     1       7.211   5.101  15.269  0.00  0.00    +0.000 A 
ATOM     26  S   UNL     1       7.285   4.978  13.568  0.00  0.00    +0.000 S 
ATOM     27  C   UNL     1       5.970   3.871  13.586  0.00  0.00    +0.000 A 
ATOM     28  C   UNL     1       5.514   3.293  12.279  0.00  0.00    +0.000 C 
ATOM     29  N   UNL     1       5.482   3.620  14.790  0.00  0.00    +0.000 NA
ENDBRANCH  23  24
ENDBRANCH   3  23
TORSDOF 4
ENDMDL
MODEL 3
REMARK VINA RESULT:      -6.9      7.475      9.686
REMARK  Name = 
REMARK  8 active torsions:
REMARK  status: ('A' for Active; 'I' for Inactive)
REMARK    1  A    between atoms: C_1  and  C_2
REMARK    2  A    between atoms: C_4  and  C_5
REMARK    3  A    between atoms: N_7  and  C_8
REMARK    4  A    between atoms: N_7  and  C_15
REMARK    5  A    between atoms: C_8  and  C_9
REMARK    6  A    between atoms: C_12  and  C_13
REMARK    7  A    between atoms: C_23  and  C_24
REMARK    8  A    between atoms: N_26  and  C_27
REMARK                            x       y       z     vdW  Elec       q    Type
REMARK                         _______ _______ _______ _____ _____    ______ ____
ROOT
ATOM      1  C   UNL     1      -0.664  12.294  18.766  0.00  0.00    +0.000 C 
ATOM      2  O   UNL     1      -0.312  13.227  18.070  0.00  0.00    +0.000 OA
ATOM      3  N   UNL     1       0.201  11.859  19.897  0.00  0.00    +0.000 N 
ENDROOT
BRANCH   1   7
ATOM      4  C   UNL     1      -3.163  10.672  15.007  0.00  0.00    +0.000 C 
ATOM      5  C   UNL     1      -3.170  10.417  16.513  0.00  0.00    +0.000 A 
ATOM      6  C   UNL     1      -2.088  10.548  17.406  0.00  0.00    +0.000 A 
ATOM      7  C   UNL     1      -2.021  11.604  18.341  0.00  0.00    +0.000 A 
ATOM      8  C   UNL     1      -3.336  11.933  18.829  0.00  0.00    +0.000 A 
ATOM      9  C   UNL     1      -4.064  12.623  19.842  0.00  0.00    +0.000 A 
ATOM     10  C   UNL     1      -3.597  13.355  21.043  0.00  0.00    +0.000 C 
ATOM     11  N   UNL     1      -5.412  12.512  19.724  0.00  0.00    +0.000 NA
ATOM     12  N   UNL     1      -5.571  11.738  18.647  0.00  0.00    +0.000 N 
ATOM     13  C   UNL     1      -6.844  11.329  18.110  0.00  0.00    +0.000 C 
ATOM     14  C   UNL     1      -4.396  11.385  18.081  0.00  0.00    +0.000 A 
ATOM     15  N   UNL     1      -4.375  10.691  16.946  0.00  0.00    +0.000 NA
ENDBRANCH   1   7
BRANCH   3  16
ATOM     16  C   UNL     1      -0.026  10.783  20.849  0.00  0.00    +0.000 A 
ATOM     17  C   UNL     1      -1.043  10.848  21.755  0.00  0.00    +0.000 A 
ATOM     18  C   UNL     1      -0.747  10.402  23.059  0.00  0.00    +0.000 A 
ATOM     19  C   UNL     1       0.213   9.496  23.312  0.00  0.00    +0.000 A 
ATOM     20  F   UNL     1       0.462   9.128  24.566  0.00  0.00    +0.000 F 
ATOM     21  C   UNL     1       0.907   9.012  22.253  0.00  0.00    +0.000 A 
ATOM     22  C   UNL     1       0.818   9.689  21.017  0.00  0.00    +0.000 A 
ENDBRANCH   3  16
BRANCH   3  23
ATOM     23  C   UNL     1       1.533  12.541  20.062  0.00  0.00    +0.000 C 
BRANCH  23  24
ATOM     24  C   UNL     1       1.543  13.812  20.905  0.00  0.00    +0.000 A 
ATOM     25  C   UNL     1       2.657  14.601  21.103  0.00  0.00    +0.000 A 
ATOM     26  S   UNL     1       2.315  15.912  22.142  0.00  0.00    +0.000 S 
ATOM     27  C   UNL     1       0.708  15.335  22.347  0.00  0.00    +0.000 A 
ATOM     28  C   UNL     1      -0.227  16.136  23.205  0.00  0.00    +0.000 C 
ATOM     29  N   UNL     1       0.441  14.214  21.697  0.00  0.00    +0.000 NA
ENDBRANCH  23  24
ENDBRANCH   3  23
TORSDOF 4
ENDMDL
MODEL 4
REMARK VINA RESULT:      -6.9      7.472      9.531
REMARK  Name = 
REMARK  8 active torsions:
REMARK  status: ('A' for Active; 'I' for Inactive)
REMARK    1  A    between atoms: C_1  and  C_2
REMARK    2  A    between atoms: C_4  and  C_5
REMARK    3  A    between atoms: N_7  and  C_8
REMARK    4  A    between atoms: N_7  and  C_15
REMARK    5  A    between atoms: C_8  and  C_9
REMARK    6  A    between atoms: C_12  and  C_13
REMARK    7  A    between atoms: C_23  and  C_24
REMARK    8  A    between atoms: N_26  and  C_27
REMARK                            x       y       z     vdW  Elec       q    Type
REMARK                         _______ _______ _______ _____ _____    ______ ____
ROOT
ATOM      1  C   UNL     1      -0.671  12.272  18.689  0.00  0.00    +0.000 C 
ATOM      2  O   UNL     1      -0.314  13.191  17.977  0.00  0.00    +0.000 OA
ATOM      3  N   UNL     1       0.200  11.840  19.816  0.00  0.00    +0.000 N 
ENDROOT
BRANCH   1   7
ATOM      4  C   UNL     1      -3.258  10.677  14.979  0.00  0.00    +0.000 C 
ATOM      5  C   UNL     1      -3.240  10.424  16.485  0.00  0.00    +0.000 A 
ATOM      6  C   UNL     1      -2.140  10.542  17.358  0.00  0.00    +0.000 A 
ATOM      7  C   UNL     1      -2.043  11.598  18.290  0.00  0.00    +0.000 A 
ATOM      8  C   UNL     1      -3.346  11.942  18.803  0.00  0.00    +0.000 A 
ATOM      9  C   UNL     1      -4.047  12.641  19.829  0.00  0.00    +0.000 A 
ATOM     10  C   UNL     1      -3.549  13.368  21.019  0.00  0.00    +0.000 C 
ATOM     11  N   UNL     1      -5.398  12.545  19.736  0.00  0.00    +0.000 NA
ATOM     12  N   UNL     1      -5.585  11.772  18.662  0.00  0.00    +0.000 N 
ATOM     13  C   UNL     1      -6.873  11.378  18.149  0.00  0.00    +0.000 C 
ATOM     14  C   UNL     1      -4.426  11.406  18.075  0.00  0.00    +0.000 A 
ATOM     15  N   UNL     1      -4.434  10.711  16.940  0.00  0.00    +0.000 NA
ENDBRANCH   1   7
BRANCH   3  16
ATOM     16  C   UNL     1      -0.031  10.781  20.785  0.00  0.00    +0.000 A 
ATOM     17  C   UNL     1      -1.030  10.877  21.708  0.00  0.00    +0.000 A 
ATOM     18  C   UNL     1      -0.720  10.441  23.013  0.00  0.00    +0.000 A 
ATOM     19  C   UNL     1       0.226   9.519  23.259  0.00  0.00    +0.000 A 
ATOM     20  F   UNL     1       0.490   9.162  24.514  0.00  0.00    +0.000 F 
ATOM     21  C   UNL     1       0.891   9.008  22.195  0.00  0.00    +0.000 A 
ATOM     22  C   UNL     1       0.794   9.672  20.952  0.00  0.00    +0.000 A 
ENDBRANCH   3  16
BRANCH   3  23
ATOM     23  C   UNL     1       1.545  12.503  19.955  0.00  0.00    +0.000 C 
BRANCH  23  24
ATOM     24  C   UNL     1       1.555  13.880  20.612  0.00  0.00    +0.000 A 
ATOM     25  C   UNL     1       0.808  14.214  21.723  0.00  0.00    +0.000 A 
ATOM     26  S   UNL     1       1.027  15.851  22.152  0.00  0.00    +0.000 S 
ATOM     27  C   UNL     1       2.057  16.073  20.794  0.00  0.00    +0.000 A 
ATOM     28  C   UNL     1       2.681  17.424  20.591  0.00  0.00    +0.000 C 
ATOM     29  N   UNL     1       2.216  14.995  20.043  0.00  0.00    +0.000 NA
ENDBRANCH  23  24
ENDBRANCH   3  23
TORSDOF 4
ENDMDL
MODEL 5
REMARK VINA RESULT:      -6.7      7.682      9.886
REMARK  Name = 
REMARK  8 active torsions:
REMARK  status: ('A' for Active; 'I' for Inactive)
REMARK    1  A    between atoms: C_1  and  C_2
REMARK    2  A    between atoms: C_4  and  C_5
REMARK    3  A    between atoms: N_7  and  C_8
REMARK    4  A    between atoms: N_7  and  C_15
REMARK    5  A    between atoms: C_8  and  C_9
REMARK    6  A    between atoms: C_12  and  C_13
REMARK    7  A    between atoms: C_23  and  C_24
REMARK    8  A    between atoms: N_26  and  C_27
REMARK                            x       y       z     vdW  Elec       q    Type
REMARK                         _______ _______ _______ _____ _____    ______ ____
ROOT
ATOM      1  C   UNL     1      -0.568  12.780  18.667  0.00  0.00    +0.000 C 
ATOM      2  O   UNL     1      -0.408  13.640  17.822  0.00  0.00    +0.000 OA
ATOM      3  N   UNL     1       0.393  12.680  19.799  0.00  0.00    +0.000 N 
ENDROOT
BRANCH   1   7
ATOM      4  C   UNL     1      -2.874  10.218  15.331  0.00  0.00    +0.000 C 
ATOM      5  C   UNL     1      -2.779  10.190  16.856  0.00  0.00    +0.000 A 
ATOM      6  C   UNL     1      -1.705  10.635  17.653  0.00  0.00    +0.000 A 
ATOM      7  C   UNL     1      -1.794  11.813  18.427  0.00  0.00    +0.000 A 
ATOM      8  C   UNL     1      -3.128  11.978  18.947  0.00  0.00    +0.000 A 
ATOM      9  C   UNL     1      -3.930  12.674  19.898  0.00  0.00    +0.000 A 
ATOM     10  C   UNL     1      -3.557  13.643  20.955  0.00  0.00    +0.000 C 
ATOM     11  N   UNL     1      -5.239  12.316  19.881  0.00  0.00    +0.000 NA
ATOM     12  N   UNL     1      -5.296  11.376  18.933  0.00  0.00    +0.000 N 
ATOM     13  C   UNL     1      -6.496  10.681  18.538  0.00  0.00    +0.000 C 
ATOM     14  C   UNL     1      -4.100  11.152  18.349  0.00  0.00    +0.000 A 
ATOM     15  N   UNL     1      -3.997  10.313  17.322  0.00  0.00    +0.000 NA
ENDBRANCH   1   7
BRANCH   3  16
ATOM     16  C   UNL     1       0.390  11.743  20.912  0.00  0.00    +0.000 A 
ATOM     17  C   UNL     1       1.127  10.597  20.869  0.00  0.00    +0.000 A 
ATOM     18  C   UNL     1       0.509   9.437  21.376  0.00  0.00    +0.000 A 
ATOM     19  C   UNL     1      -0.458   9.484  22.309  0.00  0.00    +0.000 A 
ATOM     20  F   UNL     1      -1.020   8.355  22.735  0.00  0.00    +0.000 F 
ATOM     21  C   UNL     1      -0.831  10.706  22.758  0.00  0.00    +0.000 A 
ATOM     22  C   UNL     1      -0.437  11.848  22.026  0.00  0.00    +0.000 A 
ENDBRANCH   3  16
BRANCH   3  23
ATOM     23  C   UNL     1       1.589  13.596  19.785  0.00  0.00    +0.000 C 
BRANCH  23  24
ATOM     24  C   UNL     1       1.456  14.894  20.574  0.00  0.00    +0.000 A 
ATOM     25  C   UNL     1       1.830  15.039  21.895  0.00  0.00    +0.000 A 
ATOM     26  S   UNL     1       1.491  16.611  22.469  0.00  0.00    +0.000 S 
ATOM     27  C   UNL     1       0.792  17.018  20.952  0.00  0.00    +0.000 A 
ATOM     28  C   UNL     1       0.277  18.415  20.762  0.00  0.00    +0.000 C 
ATOM     29  N   UNL     1       0.787  16.033  20.068  0.00  0.00    +0.000 NA
ENDBRANCH  23  24
ENDBRANCH   3  23
TORSDOF 4
ENDMDL
MODEL 6
REMARK VINA RESULT:      -6.6      7.473      9.506
REMARK  Name = 
REMARK  8 active torsions:
REMARK  status: ('A' for Active; 'I' for Inactive)
REMARK    1  A    between atoms: C_1  and  C_2
REMARK    2  A    between atoms: C_4  and  C_5
REMARK    3  A    between atoms: N_7  and  C_8
REMARK    4  A    between atoms: N_7  and  C_15
REMARK    5  A    between atoms: C_8  and  C_9
REMARK    6  A    between atoms: C_12  and  C_13
REMARK    7  A    between atoms: C_23  and  C_24
REMARK    8  A    between atoms: N_26  and  C_27
REMARK                            x       y       z     vdW  Elec       q    Type
REMARK                         _______ _______ _______ _____ _____    ______ ____
ROOT
ATOM      1  C   UNL     1      -1.407  13.423  20.159  0.00  0.00    +0.000 C 
ATOM      2  O   UNL     1      -1.530  14.590  19.840  0.00  0.00    +0.000 OA
ATOM      3  N   UNL     1      -0.278  13.023  21.044  0.00  0.00    +0.000 N 
ENDROOT
BRANCH   1   7
ATOM      4  C   UNL     1      -2.675  11.140  16.136  0.00  0.00    +0.000 C 
ATOM      5  C   UNL     1      -2.941  10.949  17.629  0.00  0.00    +0.000 A 
ATOM      6  C   UNL     1      -2.119  11.352  18.701  0.00  0.00    +0.000 A 
ATOM      7  C   UNL     1      -2.470  12.433  19.539  0.00  0.00    +0.000 A 
ATOM      8  C   UNL     1      -3.898  12.480  19.733  0.00  0.00    +0.000 A 
ATOM      9  C   UNL     1      -4.948  13.031  20.525  0.00  0.00    +0.000 A 
ATOM     10  C   UNL     1      -4.904  13.895  21.727  0.00  0.00    +0.000 C 
ATOM     11  N   UNL     1      -6.188  12.618  20.157  0.00  0.00    +0.000 NA
ATOM     12  N   UNL     1      -5.954  11.787  19.139  0.00  0.00    +0.000 N 
ATOM     13  C   UNL     1      -6.974  11.085  18.401  0.00  0.00    +0.000 C 
ATOM     14  C   UNL     1      -4.641  11.682  18.843  0.00  0.00    +0.000 A 
ATOM     15  N   UNL     1      -4.240  10.965  17.796  0.00  0.00    +0.000 NA
ENDBRANCH   1   7
BRANCH   3  16
ATOM     16  C   UNL     1       0.053  11.700  21.549  0.00  0.00    +0.000 A 
ATOM     17  C   UNL     1       0.907  10.881  20.871  0.00  0.00    +0.000 A 
ATOM     18  C   UNL     1       0.550   9.519  20.811  0.00  0.00    +0.000 A 
ATOM     19  C   UNL     1      -0.215   8.932  21.747  0.00  0.00    +0.000 A 
ATOM     20  F   UNL     1      -0.537   7.646  21.627  0.00  0.00    +0.000 F 
ATOM     21  C   UNL     1      -0.645   9.703  22.774  0.00  0.00    +0.000 A 
ATOM     22  C   UNL     1      -0.548  11.107  22.655  0.00  0.00    +0.000 A 
ENDBRANCH   3  16
BRANCH   3  23
ATOM     23  C   UNL     1       0.726  14.081  21.419  0.00  0.00    +0.000 C 
BRANCH  23  24
ATOM     24  C   UNL     1       1.727  14.477  20.338  0.00  0.00    +0.000 A 
ATOM     25  C   UNL     1       2.933  13.839  20.128  0.00  0.00    +0.000 A 
ATOM     26  S   UNL     1       3.819  14.581  18.872  0.00  0.00    +0.000 S 
ATOM     27  C   UNL     1       2.590  15.772  18.703  0.00  0.00    +0.000 A 
ATOM     28  C   UNL     1       2.755  16.812  17.633  0.00  0.00    +0.000 C 
ATOM     29  N   UNL     1       1.581  15.643  19.549  0.00  0.00    +0.000 NA
ENDBRANCH  23  24
ENDBRANCH   3  23
TORSDOF 4
ENDMDL
MODEL 7
REMARK VINA RESULT:      -6.6      7.176      9.101
REMARK  Name = 
REMARK  8 active torsions:
REMARK  status: ('A' for Active; 'I' for Inactive)
REMARK    1  A    between atoms: C_1  and  C_2
REMARK    2  A    between atoms: C_4  and  C_5
REMARK    3  A    between atoms: N_7  and  C_8
REMARK    4  A    between atoms: N_7  and  C_15
REMARK    5  A    between atoms: C_8  and  C_9
REMARK    6  A    between atoms: C_12  and  C_13
REMARK    7  A    between atoms: C_23  and  C_24
REMARK    8  A    between atoms: N_26  and  C_27
REMARK                            x       y       z     vdW  Elec       q    Type
REMARK                         _______ _______ _______ _____ _____    ______ ____
ROOT
ATOM      1  C   UNL     1      -1.236  12.579  19.075  0.00  0.00    +0.000 C 
ATOM      2  O   UNL     1      -0.889  13.301  18.160  0.00  0.00    +0.000 OA
ATOM      3  N   UNL     1      -0.268  11.598  19.638  0.00  0.00    +0.000 N 
ENDROOT
BRANCH   1   7
ATOM      4  C   UNL     1      -4.080  12.855  22.927  0.00  0.00    +0.000 C 
ATOM      5  C   UNL     1      -4.184  13.275  21.462  0.00  0.00    +0.000 A 
ATOM      6  C   UNL     1      -3.126  13.604  20.591  0.00  0.00    +0.000 A 
ATOM      7  C   UNL     1      -2.736  12.746  19.540  0.00  0.00    +0.000 A 
ATOM      8  C   UNL     1      -3.884  12.079  18.979  0.00  0.00    +0.000 A 
ATOM      9  C   UNL     1      -4.366  11.322  17.870  0.00  0.00    +0.000 A 
ATOM     10  C   UNL     1      -3.703  10.928  16.606  0.00  0.00    +0.000 C 
ATOM     11  N   UNL     1      -5.678  10.986  17.963  0.00  0.00    +0.000 NA
ATOM     12  N   UNL     1      -6.063  11.532  19.119  0.00  0.00    +0.000 N 
ATOM     13  C   UNL     1      -7.394  11.447  19.664  0.00  0.00    +0.000 C 
ATOM     14  C   UNL     1      -5.055  12.167  19.756  0.00  0.00    +0.000 A 
ATOM     15  N   UNL     1      -5.244  12.689  20.965  0.00  0.00    +0.000 NA
ENDBRANCH   1   7
BRANCH   3  16
ATOM     16  C   UNL     1      -0.465  10.651  20.725  0.00  0.00    +0.000 A 
ATOM     17  C   UNL     1      -1.211  10.981  21.818  0.00  0.00    +0.000 A 
ATOM     18  C   UNL     1      -0.710  10.562  23.067  0.00  0.00    +0.000 A 
ATOM     19  C   UNL     1       0.093   9.492  23.199  0.00  0.00    +0.000 A 
ATOM     20  F   UNL     1       0.554   9.156  24.401  0.00  0.00    +0.000 F 
ATOM     21  C   UNL     1       0.415   8.812  22.072  0.00  0.00    +0.000 A 
ATOM     22  C   UNL     1       0.171   9.418  20.820  0.00  0.00    +0.000 A 
ENDBRANCH   3  16
BRANCH   3  23
ATOM     23  C   UNL     1       1.076  11.477  18.970  0.00  0.00    +0.000 C 
BRANCH  23  24
ATOM     24  C   UNL     1       2.053  12.625  19.204  0.00  0.00    +0.000 A 
ATOM     25  C   UNL     1       2.239  13.248  20.422  0.00  0.00    +0.000 A 
ATOM     26  S   UNL     1       3.370  14.520  20.304  0.00  0.00    +0.000 S 
ATOM     27  C   UNL     1       3.517  14.238  18.615  0.00  0.00    +0.000 A 
ATOM     28  C   UNL     1       4.484  15.084  17.837  0.00  0.00    +0.000 C 
ATOM     29  N   UNL     1       2.750  13.264  18.152  0.00  0.00    +0.000 NA
ENDBRANCH  23  24
ENDBRANCH   3  23
TORSDOF 4
ENDMDL
MODEL 8
REMARK VINA RESULT:      -6.5      5.771      8.744
REMARK  Name = 
REMARK  8 active torsions:
REMARK  status: ('A' for Active; 'I' for Inactive)
REMARK    1  A    between atoms: C_1  and  C_2
REMARK    2  A    between atoms: C_4  and  C_5
REMARK    3  A    between atoms: N_7  and  C_8
REMARK    4  A    between atoms: N_7  and  C_15
REMARK    5  A    between atoms: C_8  and  C_9
REMARK    6  A    between atoms: C_12  and  C_13
REMARK    7  A    between atoms: C_23  and  C_24
REMARK    8  A    between atoms: N_26  and  C_27
REMARK                            x       y       z     vdW  Elec       q    Type
REMARK                         _______ _______ _______ _____ _____    ______ ____
ROOT
ATOM      1  C   UNL     1      -1.005  12.267  19.881  0.00  0.00    +0.000 C 
ATOM      2  O   UNL     1      -1.056  13.432  20.229  0.00  0.00    +0.000 OA
ATOM      3  N   UNL     1       0.243  11.489  20.115  0.00  0.00    +0.000 N 
ENDROOT
BRANCH   1   7
ATOM      4  C   UNL     1      -2.798  10.976  15.624  0.00  0.00    +0.000 C 
ATOM      5  C   UNL     1      -3.140  10.686  17.085  0.00  0.00    +0.000 A 
ATOM      6  C   UNL     1      -2.259  10.694  18.185  0.00  0.00    +0.000 A 
ATOM      7  C   UNL     1      -2.298  11.717  19.158  0.00  0.00    +0.000 A 
ATOM      8  C   UNL     1      -3.653  12.153  19.381  0.00  0.00    +0.000 A 
ATOM      9  C   UNL     1      -4.514  12.883  20.253  0.00  0.00    +0.000 A 
ATOM     10  C   UNL     1      -4.245  13.538  21.554  0.00  0.00    +0.000 C 
ATOM     11  N   UNL     1      -5.812  12.899  19.857  0.00  0.00    +0.000 NA
ATOM     12  N   UNL     1      -5.809  12.170  18.738  0.00  0.00    +0.000 N 
ATOM     13  C   UNL     1      -6.974  11.894  17.935  0.00  0.00    +0.000 C 
ATOM     14  C   UNL     1      -4.577  11.724  18.410  0.00  0.00    +0.000 A 
ATOM     15  N   UNL     1      -4.381  11.059  17.274  0.00  0.00    +0.000 NA
ENDBRANCH   1   7
BRANCH   3  16
ATOM     16  C   UNL     1       0.519  10.099  19.790  0.00  0.00    +0.000 A 
ATOM     17  C   UNL     1       0.326   9.110  20.708  0.00  0.00    +0.000 A 
ATOM     18  C   UNL     1       1.312   8.104  20.759  0.00  0.00    +0.000 A 
ATOM     19  C   UNL     1       2.074   7.786  19.698  0.00  0.00    +0.000 A 
ATOM     20  F   UNL     1       3.004   6.841  19.810  0.00  0.00    +0.000 F 
ATOM     21  C   UNL     1       1.863   8.476  18.551  0.00  0.00    +0.000 A 
ATOM     22  C   UNL     1       1.111   9.670  18.606  0.00  0.00    +0.000 A 
ENDBRANCH   3  16
BRANCH   3  23
ATOM     23  C   UNL     1       1.428  12.223  20.685  0.00  0.00    +0.000 C 
BRANCH  23  24
ATOM     24  C   UNL     1       2.010  13.340  19.824  0.00  0.00    +0.000 A 
ATOM     25  C   UNL     1       2.544  13.150  18.566  0.00  0.00    +0.000 A 
ATOM     26  S   UNL     1       3.147  14.610  17.919  0.00  0.00    +0.000 S 
ATOM     27  C   UNL     1       2.737  15.429  19.375  0.00  0.00    +0.000 A 
ATOM     28  C   UNL     1       3.002  16.904  19.455  0.00  0.00    +0.000 C 
ATOM     29  N   UNL     1       2.200  14.657  20.305  0.00  0.00    +0.000 NA
ENDBRANCH  23  24
ENDBRANCH   3  23
TORSDOF 4
ENDMDL
MODEL 9
REMARK VINA RESULT:      -6.4      7.831      9.740
REMARK  Name = 
REMARK  8 active torsions:
REMARK  status: ('A' for Active; 'I' for Inactive)
REMARK    1  A    between atoms: C_1  and  C_2
REMARK    2  A    between atoms: C_4  and  C_5
REMARK    3  A    between atoms: N_7  and  C_8
REMARK    4  A    between atoms: N_7  and  C_15
REMARK    5  A    between atoms: C_8  and  C_9
REMARK    6  A    between atoms: C_12  and  C_13
REMARK    7  A    between atoms: C_23  and  C_24
REMARK    8  A    between atoms: N_26  and  C_27
REMARK                            x       y       z     vdW  Elec       q    Type
REMARK                         _______ _______ _______ _____ _____    ______ ____
ROOT
ATOM      1  C   UNL     1       0.462  14.152  21.643  0.00  0.00    +0.000 C 
ATOM      2  O   UNL     1       1.135  14.836  22.391  0.00  0.00    +0.000 OA
ATOM      3  N   UNL     1       1.138  13.293  20.632  0.00  0.00    +0.000 N 
ENDROOT
BRANCH   1   7
ATOM      4  C   UNL     1      -3.042  17.264  22.663  0.00  0.00    +0.000 C 
ATOM      5  C   UNL     1      -2.954  15.916  21.949  0.00  0.00    +0.000 A 
ATOM      6  C   UNL     1      -1.838  15.376  21.279  0.00  0.00    +0.000 A 
ATOM      7  C   UNL     1      -1.102  14.297  21.814  0.00  0.00    +0.000 A 
ATOM      8  C   UNL     1      -1.975  13.382  22.506  0.00  0.00    +0.000 A 
ATOM      9  C   UNL     1      -2.087  12.075  23.063  0.00  0.00    +0.000 A 
ATOM     10  C   UNL     1      -1.139  10.937  23.062  0.00  0.00    +0.000 C 
ATOM     11  N   UNL     1      -3.303  11.811  23.607  0.00  0.00    +0.000 NA
ATOM     12  N   UNL     1      -3.993  12.935  23.395  0.00  0.00    +0.000 N 
ATOM     13  C   UNL     1      -5.360  13.148  23.801  0.00  0.00    +0.000 C 
ATOM     14  C   UNL     1      -3.263  13.884  22.772  0.00  0.00    +0.000 A 
ATOM     15  N   UNL     1      -3.769  15.098  22.565  0.00  0.00    +0.000 NA
ENDBRANCH   1   7
BRANCH   3  16
ATOM     16  C   UNL     1       0.537  12.401  19.653  0.00  0.00    +0.000 A 
ATOM     17  C   UNL     1      -0.224  12.888  18.632  0.00  0.00    +0.000 A 
ATOM     18  C   UNL     1      -1.391  12.161  18.321  0.00  0.00    +0.000 A 
ATOM     19  C   UNL     1      -1.511  10.847  18.574  0.00  0.00    +0.000 A 
ATOM     20  F   UNL     1      -2.646  10.217  18.278  0.00  0.00    +0.000 F 
ATOM     21  C   UNL     1      -0.455  10.224  19.151  0.00  0.00    +0.000 A 
ATOM     22  C   UNL     1       0.561  11.012  19.734  0.00  0.00    +0.000 A 
ENDBRANCH   3  16
BRANCH   3  23
ATOM     23  C   UNL     1       2.636  13.395  20.516  0.00  0.00    +0.000 C 
BRANCH  23  24
ATOM     24  C   UNL     1       3.174  14.593  19.740  0.00  0.00    +0.000 A 
ATOM     25  C   UNL     1       4.307  15.298  20.092  0.00  0.00    +0.000 A 
ATOM     26  S   UNL     1       4.582  16.606  19.029  0.00  0.00    +0.000 S 
ATOM     27  C   UNL     1       3.136  16.225  18.181  0.00  0.00    +0.000 A 
ATOM     28  C   UNL     1       2.776  17.058  16.986  0.00  0.00    +0.000 C 
ATOM     29  N   UNL     1       2.467  15.194  18.671  0.00  0.00    +0.000 NA
ENDBRANCH  23  24
ENDBRANCH   3  23
TORSDOF 4
ENDMDL
