MODEL 1
REMARK VINA RESULT:      -9.2      0.000      0.000
REMARK  Name = 
REMARK  4 active torsions:
REMARK  status: ('A' for Active; 'I' for Inactive)
REMARK    1  A    between atoms: C_14  and  C_15
REMARK    2  A    between atoms: C_19  and  O_20
REMARK    3  A    between atoms: N_22  and  C_23
REMARK    4  A    between atoms: C_23  and  C_24
REMARK                            x       y       z     vdW  Elec       q    Type
REMARK                         _______ _______ _______ _____ _____    ______ ____
ROOT
ATOM      1  O   UNL     1       4.362   7.074  17.457  0.00  0.00    +0.000 OA
ATOM      2  C   UNL     1       4.866   6.017  17.144  0.00  0.00    +0.000 C 
ATOM      3  C   UNL     1       4.114   4.691  16.868  0.00  0.00    +0.000 A 
ATOM      4  O   UNL     1       2.755   4.469  17.043  0.00  0.00    +0.000 OA
ATOM      5  C   UNL     1       2.434   3.801  18.195  0.00  0.00    +0.000 A 
ATOM      6  C   UNL     1       1.261   3.086  18.392  0.00  0.00    +0.000 A 
ATOM      7  C   UNL     1       0.847   2.833  19.708  0.00  0.00    +0.000 A 
ATOM      8  C   UNL     1       1.556   3.383  20.782  0.00  0.00    +0.000 A 
ATOM      9  C   UNL     1       2.831   3.900  20.568  0.00  0.00    +0.000 A 
ATOM     10  C   UNL     1       3.314   3.905  19.262  0.00  0.00    +0.000 A 
ATOM     11  C   UNL     1       4.765   3.878  18.890  0.00  0.00    +0.000 A 
ATOM     12  O   UNL     1       5.627   3.899  19.753  0.00  0.00    +0.000 OA
ATOM     13  C   UNL     1       5.054   3.872  17.370  0.00  0.00    +0.000 A 
ATOM     14  C   UNL     1       6.368   4.319  16.790  0.00  0.00    +0.000 C 
ATOM     15  N   UNL     1       6.263   5.714  17.174  0.00  0.00    +0.000 N 
ENDROOT
BRANCH  14  16
ATOM     16  C   UNL     1       6.478   4.283  15.224  0.00  0.00    +0.000 A 
ATOM     17  C   UNL     1       5.695   3.450  14.407  0.00  0.00    +0.000 A 
ATOM     18  C   UNL     1       5.827   3.477  13.005  0.00  0.00    +0.000 A 
ATOM     19  C   UNL     1       6.760   4.315  12.389  0.00  0.00    +0.000 A 
ATOM     20  C   UNL     1       7.536   5.153  13.181  0.00  0.00    +0.000 A 
ATOM     21  C   UNL     1       7.384   5.151  14.566  0.00  0.00    +0.000 A 
BRANCH  20  22
ATOM     22  O   UNL     1       8.457   5.994  12.643  0.00  0.00    +0.000 OA
ATOM     23  H   UNL     1       8.489   5.846  11.684  0.00  0.00    +0.000 HD
ENDBRANCH  20  22
ENDBRANCH  14  16
BRANCH  15  24
ATOM     24  C   UNL     1       7.116   6.149  18.274  0.00  0.00    +0.000 C 
BRANCH  24  25
ATOM     25  C   UNL     1       7.810   7.467  18.131  0.00  0.00    +0.000 A 
ATOM     26  C   UNL     1       7.540   8.566  17.344  0.00  0.00    +0.000 A 
ATOM     27  C   UNL     1       8.260   9.660  17.886  0.00  0.00    +0.000 A 
ATOM     28  C   UNL     1       8.974   9.147  18.939  0.00  0.00    +0.000 A 
ATOM     29  O   UNL     1       8.719   7.822  19.098  0.00  0.00    +0.000 OA
ENDBRANCH  24  25
ENDBRANCH  15  24
TORSDOF 4
ENDMDL
MODEL 2
REMARK VINA RESULT:      -8.7      0.925      1.294
REMARK  Name = 
REMARK  4 active torsions:
REMARK  status: ('A' for Active; 'I' for Inactive)
REMARK    1  A    between atoms: C_14  and  C_15
REMARK    2  A    between atoms: C_19  and  O_20
REMARK    3  A    between atoms: N_22  and  C_23
REMARK    4  A    between atoms: C_23  and  C_24
REMARK                            x       y       z     vdW  Elec       q    Type
REMARK                         _______ _______ _______ _____ _____    ______ ____
ROOT
ATOM      1  O   UNL     1       4.503   7.149  17.289  0.00  0.00    +0.000 OA
ATOM      2  C   UNL     1       5.054   6.117  16.970  0.00  0.00    +0.000 C 
ATOM      3  C   UNL     1       4.359   4.772  16.642  0.00  0.00    +0.000 A 
ATOM      4  O   UNL     1       3.004   4.498  16.769  0.00  0.00    +0.000 OA
ATOM      5  C   UNL     1       2.672   3.794  17.896  0.00  0.00    +0.000 A 
ATOM      6  C   UNL     1       1.520   3.033  18.040  0.00  0.00    +0.000 A 
ATOM      7  C   UNL     1       1.075   2.737  19.336  0.00  0.00    +0.000 A 
ATOM      8  C   UNL     1       1.730   3.288  20.445  0.00  0.00    +0.000 A 
ATOM      9  C   UNL     1       2.991   3.854  20.282  0.00  0.00    +0.000 A 
ATOM     10  C   UNL     1       3.514   3.905  18.993  0.00  0.00    +0.000 A 
ATOM     11  C   UNL     1       4.976   3.938  18.666  0.00  0.00    +0.000 A 
ATOM     12  O   UNL     1       5.809   3.970  19.557  0.00  0.00    +0.000 OA
ATOM     13  C   UNL     1       5.313   3.976  17.157  0.00  0.00    +0.000 A 
ATOM     14  C   UNL     1       6.627   4.482  16.629  0.00  0.00    +0.000 C 
ATOM     15  N   UNL     1       6.460   5.863  17.038  0.00  0.00    +0.000 N 
ENDROOT
BRANCH  14  16
ATOM     16  C   UNL     1       6.787   4.484  15.067  0.00  0.00    +0.000 A 
ATOM     17  C   UNL     1       7.608   5.387  14.368  0.00  0.00    +0.000 A 
ATOM     18  C   UNL     1       7.724   5.327  12.967  0.00  0.00    +0.000 A 
ATOM     19  C   UNL     1       7.005   4.382  12.228  0.00  0.00    +0.000 A 
ATOM     20  C   UNL     1       6.197   3.476  12.902  0.00  0.00    +0.000 A 
ATOM     21  C   UNL     1       6.105   3.513  14.292  0.00  0.00    +0.000 A 
BRANCH  20  22
ATOM     22  O   UNL     1       5.477   2.531  12.242  0.00  0.00    +0.000 OA
ATOM     23  H   UNL     1       6.048   2.116  11.576  0.00  0.00    +0.000 HD
ENDBRANCH  20  22
ENDBRANCH  14  16
BRANCH  15  24
ATOM     24  C   UNL     1       7.262   6.303  18.174  0.00  0.00    +0.000 C 
BRANCH  24  25
ATOM     25  C   UNL     1       7.902   7.653  18.086  0.00  0.00    +0.000 A 
ATOM     26  C   UNL     1       7.588   8.772  17.343  0.00  0.00    +0.000 A 
ATOM     27  C   UNL     1       8.263   9.871  17.931  0.00  0.00    +0.000 A 
ATOM     28  C   UNL     1       8.997   9.344  18.963  0.00  0.00    +0.000 A 
ATOM     29  O   UNL     1       8.796   8.005  19.068  0.00  0.00    +0.000 OA
ENDBRANCH  24  25
ENDBRANCH  15  24
TORSDOF 4
ENDMDL
MODEL 3
REMARK VINA RESULT:      -7.3      8.486     10.578
REMARK  Name = 
REMARK  4 active torsions:
REMARK  status: ('A' for Active; 'I' for Inactive)
REMARK    1  A    between atoms: C_14  and  C_15
REMARK    2  A    between atoms: C_19  and  O_20
REMARK    3  A    between atoms: N_22  and  C_23
REMARK    4  A    between atoms: C_23  and  C_24
REMARK                            x       y       z     vdW  Elec       q    Type
REMARK                         _______ _______ _______ _____ _____    ______ ____
ROOT
ATOM      1  O   UNL     1       1.706  12.329  18.186  0.00  0.00    +0.000 OA
ATOM      2  C   UNL     1       0.570  12.092  18.537  0.00  0.00    +0.000 C 
ATOM      3  C   UNL     1      -0.540  13.137  18.811  0.00  0.00    +0.000 A 
ATOM      4  O   UNL     1      -0.384  14.516  18.808  0.00  0.00    +0.000 OA
ATOM      5  C   UNL     1      -0.278  15.076  20.053  0.00  0.00    +0.000 A 
ATOM      6  C   UNL     1      -0.555  16.404  20.348  0.00  0.00    +0.000 A 
ATOM      7  C   UNL     1      -0.001  16.959  21.511  0.00  0.00    +0.000 A 
ATOM      8  C   UNL     1       0.889  16.209  22.289  0.00  0.00    +0.000 A 
ATOM      9  C   UNL     1       0.974  14.832  22.096  0.00  0.00    +0.000 A 
ATOM     10  C   UNL     1       0.206  14.275  21.078  0.00  0.00    +0.000 A 
ATOM     11  C   UNL     1      -0.277  12.857  21.052  0.00  0.00    +0.000 A 
ATOM     12  O   UNL     1       0.034  12.081  21.940  0.00  0.00    +0.000 OA
ATOM     13  C   UNL     1      -1.131  12.474  19.821  0.00  0.00    +0.000 A 
ATOM     14  C   UNL     1      -1.303  11.053  19.360  0.00  0.00    +0.000 C 
ATOM     15  N   UNL     1       0.077  10.824  18.980  0.00  0.00    +0.000 N 
ENDROOT
BRANCH  14  16
ATOM     16  C   UNL     1      -2.173  10.847  18.069  0.00  0.00    +0.000 A 
ATOM     17  C   UNL     1      -1.790  10.029  16.993  0.00  0.00    +0.000 A 
ATOM     18  C   UNL     1      -2.623   9.871  15.869  0.00  0.00    +0.000 A 
ATOM     19  C   UNL     1      -3.845  10.544  15.782  0.00  0.00    +0.000 A 
ATOM     20  C   UNL     1      -4.244  11.350  16.840  0.00  0.00    +0.000 A 
ATOM     21  C   UNL     1      -3.435  11.483  17.967  0.00  0.00    +0.000 A 
BRANCH  20  22
ATOM     22  O   UNL     1      -5.421  12.028  16.819  0.00  0.00    +0.000 OA
ATOM     23  H   UNL     1      -6.148  11.389  16.899  0.00  0.00    +0.000 HD
ENDBRANCH  20  22
ENDBRANCH  14  16
BRANCH  15  24
ATOM     24  C   UNL     1       0.859   9.967  19.863  0.00  0.00    +0.000 C 
BRANCH  24  25
ATOM     25  C   UNL     1       1.476   8.740  19.268  0.00  0.00    +0.000 A 
ATOM     26  C   UNL     1       2.034   8.501  18.029  0.00  0.00    +0.000 A 
ATOM     27  C   UNL     1       2.808   7.319  18.137  0.00  0.00    +0.000 A 
ATOM     28  C   UNL     1       2.628   6.875  19.422  0.00  0.00    +0.000 A 
ATOM     29  O   UNL     1       1.821   7.718  20.118  0.00  0.00    +0.000 OA
ENDBRANCH  24  25
ENDBRANCH  15  24
TORSDOF 4
ENDMDL
MODEL 4
REMARK VINA RESULT:      -7.2      9.564     11.971
REMARK  Name = 
REMARK  4 active torsions:
REMARK  status: ('A' for Active; 'I' for Inactive)
REMARK    1  A    between atoms: C_14  and  C_15
REMARK    2  A    between atoms: C_19  and  O_20
REMARK    3  A    between atoms: N_22  and  C_23
REMARK    4  A    between atoms: C_23  and  C_24
REMARK                            x       y       z     vdW  Elec       q    Type
REMARK                         _______ _______ _______ _____ _____    ______ ____
ROOT
ATOM      1  O   UNL     1       1.677  13.352  21.221  0.00  0.00    +0.000 OA
ATOM      2  C   UNL     1       0.519  12.994  21.230  0.00  0.00    +0.000 C 
ATOM      3  C   UNL     1      -0.007  11.610  21.683  0.00  0.00    +0.000 A 
ATOM      4  O   UNL     1       0.769  10.517  22.043  0.00  0.00    +0.000 OA
ATOM      5  C   UNL     1       0.896   9.566  21.066  0.00  0.00    +0.000 A 
ATOM      6  C   UNL     1       1.219   8.236  21.296  0.00  0.00    +0.000 A 
ATOM      7  C   UNL     1       1.746   7.484  20.236  0.00  0.00    +0.000 A 
ATOM      8  C   UNL     1       2.029   8.103  19.012  0.00  0.00    +0.000 A 
ATOM      9  C   UNL     1       1.497   9.362  18.743  0.00  0.00    +0.000 A 
ATOM     10  C   UNL     1       0.757   9.978  19.748  0.00  0.00    +0.000 A 
ATOM     11  C   UNL     1      -0.315  10.997  19.514  0.00  0.00    +0.000 A 
ATOM     12  O   UNL     1      -0.568  11.384  18.385  0.00  0.00    +0.000 OA
ATOM     13  C   UNL     1      -1.010  11.526  20.791  0.00  0.00    +0.000 A 
ATOM     14  C   UNL     1      -1.736  12.843  20.837  0.00  0.00    +0.000 C 
ATOM     15  N   UNL     1      -0.577  13.689  20.629  0.00  0.00    +0.000 N 
ENDROOT
BRANCH  14  16
ATOM     16  C   UNL     1      -2.352  13.243  22.225  0.00  0.00    +0.000 A 
ATOM     17  C   UNL     1      -2.065  14.450  22.886  0.00  0.00    +0.000 A 
ATOM     18  C   UNL     1      -2.664  14.760  24.122  0.00  0.00    +0.000 A 
ATOM     19  C   UNL     1      -3.541  13.864  24.738  0.00  0.00    +0.000 A 
ATOM     20  C   UNL     1      -3.843  12.670  24.095  0.00  0.00    +0.000 A 
ATOM     21  C   UNL     1      -3.276  12.375  22.856  0.00  0.00    +0.000 A 
BRANCH  20  22
ATOM     22  O   UNL     1      -4.692  11.759  24.639  0.00  0.00    +0.000 OA
ATOM     23  H   UNL     1      -5.303  11.454  23.949  0.00  0.00    +0.000 HD
ENDBRANCH  20  22
ENDBRANCH  14  16
BRANCH  15  24
ATOM     24  C   UNL     1      -0.458  14.314  19.317  0.00  0.00    +0.000 C 
BRANCH  24  25
ATOM     25  C   UNL     1      -0.724  15.784  19.224  0.00  0.00    +0.000 A 
ATOM     26  C   UNL     1      -0.358  16.727  18.287  0.00  0.00    +0.000 A 
ATOM     27  C   UNL     1      -1.196  17.855  18.474  0.00  0.00    +0.000 A 
ATOM     28  C   UNL     1      -1.984  17.554  19.556  0.00  0.00    +0.000 A 
ATOM     29  O   UNL     1      -1.708  16.310  20.026  0.00  0.00    +0.000 OA
ENDBRANCH  24  25
ENDBRANCH  15  24
TORSDOF 4
ENDMDL
MODEL 5
REMARK VINA RESULT:      -7.2      7.672     10.107
REMARK  Name = 
REMARK  4 active torsions:
REMARK  status: ('A' for Active; 'I' for Inactive)
REMARK    1  A    between atoms: C_14  and  C_15
REMARK    2  A    between atoms: C_19  and  O_20
REMARK    3  A    between atoms: N_22  and  C_23
REMARK    4  A    between atoms: C_23  and  C_24
REMARK                            x       y       z     vdW  Elec       q    Type
REMARK                         _______ _______ _______ _____ _____    ______ ____
ROOT
ATOM      1  O   UNL     1       2.304  11.211  17.963  0.00  0.00    +0.000 OA
ATOM      2  C   UNL     1       1.174  11.305  18.392  0.00  0.00    +0.000 C 
ATOM      3  C   UNL     1       0.377  12.618  18.591  0.00  0.00    +0.000 A 
ATOM      4  O   UNL     1       0.865  13.906  18.418  0.00  0.00    +0.000 OA
ATOM      5  C   UNL     1       1.197  14.547  19.582  0.00  0.00    +0.000 A 
ATOM      6  C   UNL     1       1.276  15.925  19.730  0.00  0.00    +0.000 A 
ATOM      7  C   UNL     1       2.033  16.439  20.792  0.00  0.00    +0.000 A 
ATOM      8  C   UNL     1       2.768  15.574  21.612  0.00  0.00    +0.000 A 
ATOM      9  C   UNL     1       2.498  14.208  21.580  0.00  0.00    +0.000 A 
ATOM     10  C   UNL     1       1.544  13.759  20.671  0.00  0.00    +0.000 A 
ATOM     11  C   UNL     1       0.729  12.514  20.835  0.00  0.00    +0.000 A 
ATOM     12  O   UNL     1       0.905  11.780  21.794  0.00  0.00    +0.000 OA
ATOM     13  C   UNL     1      -0.281  12.233  19.698  0.00  0.00    +0.000 A 
ATOM     14  C   UNL     1      -0.830  10.861  19.417  0.00  0.00    +0.000 C 
ATOM     15  N   UNL     1       0.420  10.254  19.003  0.00  0.00    +0.000 N 
ENDROOT
BRANCH  14  16
ATOM     16  C   UNL     1      -1.817  10.749  18.201  0.00  0.00    +0.000 A 
ATOM     17  C   UNL     1      -1.612   9.891  17.107  0.00  0.00    +0.000 A 
ATOM     18  C   UNL     1      -2.544   9.822  16.054  0.00  0.00    +0.000 A 
ATOM     19  C   UNL     1      -3.688  10.625  16.055  0.00  0.00    +0.000 A 
ATOM     20  C   UNL     1      -3.911  11.473  17.133  0.00  0.00    +0.000 A 
ATOM     21  C   UNL     1      -3.006  11.519  18.192  0.00  0.00    +0.000 A 
BRANCH  20  22
ATOM     22  O   UNL     1      -5.006  12.275  17.197  0.00  0.00    +0.000 OA
ATOM     23  H   UNL     1      -5.622  12.014  16.493  0.00  0.00    +0.000 HD
ENDBRANCH  20  22
ENDBRANCH  14  16
BRANCH  15  24
ATOM     24  C   UNL     1       1.032   9.324  19.945  0.00  0.00    +0.000 C 
BRANCH  24  25
ATOM     25  C   UNL     1       1.684   8.100  19.383  0.00  0.00    +0.000 A 
ATOM     26  C   UNL     1       2.310   7.864  18.177  0.00  0.00    +0.000 A 
ATOM     27  C   UNL     1       3.081   6.684  18.325  0.00  0.00    +0.000 A 
ATOM     28  C   UNL     1       2.830   6.237  19.598  0.00  0.00    +0.000 A 
ATOM     29  O   UNL     1       1.984   7.076  20.249  0.00  0.00    +0.000 OA
ENDBRANCH  24  25
ENDBRANCH  15  24
TORSDOF 4
ENDMDL
MODEL 6
REMARK VINA RESULT:      -7.1      8.666     10.681
REMARK  Name = 
REMARK  4 active torsions:
REMARK  status: ('A' for Active; 'I' for Inactive)
REMARK    1  A    between atoms: C_14  and  C_15
REMARK    2  A    between atoms: C_19  and  O_20
REMARK    3  A    between atoms: N_22  and  C_23
REMARK    4  A    between atoms: C_23  and  C_24
REMARK                            x       y       z     vdW  Elec       q    Type
REMARK                         _______ _______ _______ _____ _____    ______ ____
ROOT
ATOM      1  O   UNL     1       1.256  11.145  21.707  0.00  0.00    +0.000 OA
ATOM      2  C   UNL     1       0.926  12.036  20.954  0.00  0.00    +0.000 C 
ATOM      3  C   UNL     1       0.403  13.435  21.365  0.00  0.00    +0.000 A 
ATOM      4  O   UNL     1       0.121  13.856  22.657  0.00  0.00    +0.000 OA
ATOM      5  C   UNL     1      -1.211  13.841  22.979  0.00  0.00    +0.000 A 
ATOM      6  C   UNL     1      -1.787  14.598  23.989  0.00  0.00    +0.000 A 
ATOM      7  C   UNL     1      -3.021  14.186  24.511  0.00  0.00    +0.000 A 
ATOM      8  C   UNL     1      -3.595  12.983  24.083  0.00  0.00    +0.000 A 
ATOM      9  C   UNL     1      -3.115  12.368  22.929  0.00  0.00    +0.000 A 
ATOM     10  C   UNL     1      -2.027  12.956  22.289  0.00  0.00    +0.000 A 
ATOM     11  C   UNL     1      -1.720  12.818  20.830  0.00  0.00    +0.000 A 
ATOM     12  O   UNL     1      -2.414  12.116  20.114  0.00  0.00    +0.000 OA
ATOM     13  C   UNL     1      -0.464  13.580  20.347  0.00  0.00    +0.000 A 
ATOM     14  C   UNL     1       0.281  13.212  19.093  0.00  0.00    +0.000 C 
ATOM     15  N   UNL     1       0.745  11.913  19.540  0.00  0.00    +0.000 N 
ENDROOT
BRANCH  14  16
ATOM     16  C   UNL     1       1.557  14.068  18.771  0.00  0.00    +0.000 A 
ATOM     17  C   UNL     1       2.809  13.512  18.456  0.00  0.00    +0.000 A 
ATOM     18  C   UNL     1       3.913  14.334  18.159  0.00  0.00    +0.000 A 
ATOM     19  C   UNL     1       3.800  15.726  18.194  0.00  0.00    +0.000 A 
ATOM     20  C   UNL     1       2.568  16.293  18.495  0.00  0.00    +0.000 A 
ATOM     21  C   UNL     1       1.466  15.481  18.758  0.00  0.00    +0.000 A 
BRANCH  20  22
ATOM     22  O   UNL     1       2.392  17.639  18.541  0.00  0.00    +0.000 OA
ATOM     23  H   UNL     1       2.666  17.957  19.417  0.00  0.00    +0.000 HD
ENDBRANCH  20  22
ENDBRANCH  14  16
BRANCH  15  24
ATOM     24  C   UNL     1       0.087  10.752  18.953  0.00  0.00    +0.000 C 
BRANCH  24  25
ATOM     25  C   UNL     1       0.929   9.546  18.678  0.00  0.00    +0.000 A 
ATOM     26  C   UNL     1       1.785   9.239  17.641  0.00  0.00    +0.000 A 
ATOM     27  C   UNL     1       2.607   8.169  18.075  0.00  0.00    +0.000 A 
ATOM     28  C   UNL     1       2.162   7.848  19.332  0.00  0.00    +0.000 A 
ATOM     29  O   UNL     1       1.145   8.665  19.710  0.00  0.00    +0.000 OA
ENDBRANCH  24  25
ENDBRANCH  15  24
TORSDOF 4
ENDMDL
MODEL 7
REMARK VINA RESULT:      -7.0      8.855     10.822
REMARK  Name = 
REMARK  4 active torsions:
REMARK  status: ('A' for Active; 'I' for Inactive)
REMARK    1  A    between atoms: C_14  and  C_15
REMARK    2  A    between atoms: C_19  and  O_20
REMARK    3  A    between atoms: N_22  and  C_23
REMARK    4  A    between atoms: C_23  and  C_24
REMARK                            x       y       z     vdW  Elec       q    Type
REMARK                         _______ _______ _______ _____ _____    ______ ____
ROOT
ATOM      1  O   UNL     1       1.080  11.452  21.713  0.00  0.00    +0.000 OA
ATOM      2  C   UNL     1       0.664  12.330  20.988  0.00  0.00    +0.000 C 
ATOM      3  C   UNL     1       0.081  13.692  21.441  0.00  0.00    +0.000 A 
ATOM      4  O   UNL     1      -0.163  14.082  22.751  0.00  0.00    +0.000 OA
ATOM      5  C   UNL     1      -1.475  13.987  23.134  0.00  0.00    +0.000 A 
ATOM      6  C   UNL     1      -2.045  14.699  24.181  0.00  0.00    +0.000 A 
ATOM      7  C   UNL     1      -3.228  14.210  24.753  0.00  0.00    +0.000 A 
ATOM      8  C   UNL     1      -3.751  12.980  24.337  0.00  0.00    +0.000 A 
ATOM      9  C   UNL     1      -3.292  12.406  23.154  0.00  0.00    +0.000 A 
ATOM     10  C   UNL     1      -2.271  13.063  22.472  0.00  0.00    +0.000 A 
ATOM     11  C   UNL     1      -2.026  12.959  20.998  0.00  0.00    +0.000 A 
ATOM     12  O   UNL     1      -2.712  12.225  20.306  0.00  0.00    +0.000 OA
ATOM     13  C   UNL     1      -0.840  13.798  20.467  0.00  0.00    +0.000 A 
ATOM     14  C   UNL     1      -0.136  13.487  19.174  0.00  0.00    +0.000 C 
ATOM     15  N   UNL     1       0.423  12.212  19.583  0.00  0.00    +0.000 N 
ENDROOT
BRANCH  14  16
ATOM     16  C   UNL     1       1.072  14.419  18.805  0.00  0.00    +0.000 A 
ATOM     17  C   UNL     1       1.015  15.822  18.848  0.00  0.00    +0.000 A 
ATOM     18  C   UNL     1       2.139  16.605  18.522  0.00  0.00    +0.000 A 
ATOM     19  C   UNL     1       3.338  16.006  18.123  0.00  0.00    +0.000 A 
ATOM     20  C   UNL     1       3.416  14.620  18.085  0.00  0.00    +0.000 A 
ATOM     21  C   UNL     1       2.313  13.843  18.437  0.00  0.00    +0.000 A 
BRANCH  20  22
ATOM     22  O   UNL     1       4.553  13.977  17.710  0.00  0.00    +0.000 OA
ATOM     23  H   UNL     1       4.743  14.199  16.785  0.00  0.00    +0.000 HD
ENDBRANCH  20  22
ENDBRANCH  14  16
BRANCH  15  24
ATOM     24  C   UNL     1      -0.194  11.021  19.011  0.00  0.00    +0.000 C 
BRANCH  24  25
ATOM     25  C   UNL     1       0.691   9.843  18.748  0.00  0.00    +0.000 A 
ATOM     26  C   UNL     1       1.593   9.579  17.739  0.00  0.00    +0.000 A 
ATOM     27  C   UNL     1       2.427   8.523  18.186  0.00  0.00    +0.000 A 
ATOM     28  C   UNL     1       1.944   8.167  19.419  0.00  0.00    +0.000 A 
ATOM     29  O   UNL     1       0.891   8.950  19.772  0.00  0.00    +0.000 OA
ENDBRANCH  24  25
ENDBRANCH  15  24
TORSDOF 4
ENDMDL
MODEL 8
REMARK VINA RESULT:      -7.0      7.674     10.584
REMARK  Name = 
REMARK  4 active torsions:
REMARK  status: ('A' for Active; 'I' for Inactive)
REMARK    1  A    between atoms: C_14  and  C_15
REMARK    2  A    between atoms: C_19  and  O_20
REMARK    3  A    between atoms: N_22  and  C_23
REMARK    4  A    between atoms: C_23  and  C_24
REMARK                            x       y       z     vdW  Elec       q    Type
REMARK                         _______ _______ _______ _____ _____    ______ ____
ROOT
ATOM      1  O   UNL     1       0.345  12.366  21.924  0.00  0.00    +0.000 OA
ATOM      2  C   UNL     1       0.597  11.996  20.797  0.00  0.00    +0.000 C 
ATOM      3  C   UNL     1       1.851  12.373  19.969  0.00  0.00    +0.000 A 
ATOM      4  O   UNL     1       2.832  13.284  20.338  0.00  0.00    +0.000 OA
ATOM      5  C   UNL     1       2.714  14.513  19.744  0.00  0.00    +0.000 A 
ATOM      6  C   UNL     1       3.756  15.417  19.588  0.00  0.00    +0.000 A 
ATOM      7  C   UNL     1       3.442  16.768  19.386  0.00  0.00    +0.000 A 
ATOM      8  C   UNL     1       2.109  17.193  19.445  0.00  0.00    +0.000 A 
ATOM      9  C   UNL     1       1.087  16.250  19.382  0.00  0.00    +0.000 A 
ATOM     10  C   UNL     1       1.450  14.907  19.331  0.00  0.00    +0.000 A 
ATOM     11  C   UNL     1       0.616  13.821  18.724  0.00  0.00    +0.000 A 
ATOM     12  O   UNL     1      -0.488  14.069  18.269  0.00  0.00    +0.000 OA
ATOM     13  C   UNL     1       1.240  12.407  18.772  0.00  0.00    +0.000 A 
ATOM     14  C   UNL     1       0.419  11.150  18.672  0.00  0.00    +0.000 C 
ATOM     15  N   UNL     1      -0.302  11.314  19.919  0.00  0.00    +0.000 N 
ENDROOT
BRANCH  14  16
ATOM     16  C   UNL     1       1.212   9.799  18.776  0.00  0.00    +0.000 A 
ATOM     17  C   UNL     1       2.058   9.312  17.765  0.00  0.00    +0.000 A 
ATOM     18  C   UNL     1       2.757   8.100  17.925  0.00  0.00    +0.000 A 
ATOM     19  C   UNL     1       2.609   7.335  19.085  0.00  0.00    +0.000 A 
ATOM     20  C   UNL     1       1.784   7.806  20.099  0.00  0.00    +0.000 A 
ATOM     21  C   UNL     1       1.116   9.021  19.956  0.00  0.00    +0.000 A 
BRANCH  20  22
ATOM     22  O   UNL     1       1.602   7.112  21.253  0.00  0.00    +0.000 OA
ATOM     23  H   UNL     1       2.006   7.611  21.981  0.00  0.00    +0.000 HD
ENDBRANCH  20  22
ENDBRANCH  14  16
BRANCH  15  24
ATOM     24  C   UNL     1      -1.704  11.700  19.811  0.00  0.00    +0.000 C 
BRANCH  24  25
ATOM     25  C   UNL     1      -2.454  11.247  18.598  0.00  0.00    +0.000 A 
ATOM     26  C   UNL     1      -2.445  10.056  17.904  0.00  0.00    +0.000 A 
ATOM     27  C   UNL     1      -3.612  10.028  17.099  0.00  0.00    +0.000 A 
ATOM     28  C   UNL     1      -4.233  11.233  17.307  0.00  0.00    +0.000 A 
ATOM     29  O   UNL     1      -3.544  11.985  18.204  0.00  0.00    +0.000 OA
ENDBRANCH  24  25
ENDBRANCH  15  24
TORSDOF 4
ENDMDL
MODEL 9
REMARK VINA RESULT:      -6.9      7.559     10.367
REMARK  Name = 
REMARK  4 active torsions:
REMARK  status: ('A' for Active; 'I' for Inactive)
REMARK    1  A    between atoms: C_14  and  C_15
REMARK    2  A    between atoms: C_19  and  O_20
REMARK    3  A    between atoms: N_22  and  C_23
REMARK    4  A    between atoms: C_23  and  C_24
REMARK                            x       y       z     vdW  Elec       q    Type
REMARK                         _______ _______ _______ _____ _____    ______ ____
ROOT
ATOM      1  O   UNL     1      -0.710  12.287  21.729  0.00  0.00    +0.000 OA
ATOM      2  C   UNL     1      -0.105  11.840  20.778  0.00  0.00    +0.000 C 
ATOM      3  C   UNL     1       1.369  12.137  20.409  0.00  0.00    +0.000 A 
ATOM      4  O   UNL     1       2.203  13.050  21.041  0.00  0.00    +0.000 OA
ATOM      5  C   UNL     1       2.344  14.240  20.377  0.00  0.00    +0.000 A 
ATOM      6  C   UNL     1       3.413  15.111  20.538  0.00  0.00    +0.000 A 
ATOM      7  C   UNL     1       3.242  16.453  20.169  0.00  0.00    +0.000 A 
ATOM      8  C   UNL     1       1.987  16.907  19.746  0.00  0.00    +0.000 A 
ATOM      9  C   UNL     1       1.009  15.983  19.389  0.00  0.00    +0.000 A 
ATOM     10  C   UNL     1       1.313  14.632  19.537  0.00  0.00    +0.000 A 
ATOM     11  C   UNL     1       0.690  13.527  18.741  0.00  0.00    +0.000 A 
ATOM     12  O   UNL     1      -0.183  13.766  17.923  0.00  0.00    +0.000 OA
ATOM     13  C   UNL     1       1.203  12.106  19.075  0.00  0.00    +0.000 A 
ATOM     14  C   UNL     1       0.414  10.862  18.769  0.00  0.00    +0.000 C 
ATOM     15  N   UNL     1      -0.680  11.120  19.684  0.00  0.00    +0.000 N 
ENDROOT
BRANCH  14  16
ATOM     16  C   UNL     1       1.069   9.505  19.209  0.00  0.00    +0.000 A 
ATOM     17  C   UNL     1       0.855   8.907  20.463  0.00  0.00    +0.000 A 
ATOM     18  C   UNL     1       1.457   7.678  20.793  0.00  0.00    +0.000 A 
ATOM     19  C   UNL     1       2.305   7.030  19.891  0.00  0.00    +0.000 A 
ATOM     20  C   UNL     1       2.520   7.601  18.643  0.00  0.00    +0.000 A 
ATOM     21  C   UNL     1       1.900   8.802  18.303  0.00  0.00    +0.000 A 
BRANCH  20  22
ATOM     22  O   UNL     1       3.329   7.019  17.720  0.00  0.00    +0.000 OA
ATOM     23  H   UNL     1       3.918   6.395  18.174  0.00  0.00    +0.000 HD
ENDBRANCH  20  22
ENDBRANCH  14  16
BRANCH  15  24
ATOM     24  C   UNL     1      -1.945  11.527  19.083  0.00  0.00    +0.000 C 
BRANCH  24  25
ATOM     25  C   UNL     1      -2.332  10.888  17.786  0.00  0.00    +0.000 A 
ATOM     26  C   UNL     1      -2.972   9.700  17.502  0.00  0.00    +0.000 A 
ATOM     27  C   UNL     1      -3.430   9.778  16.163  0.00  0.00    +0.000 A 
ATOM     28  C   UNL     1      -2.988  10.987  15.691  0.00  0.00    +0.000 A 
ATOM     29  O   UNL     1      -2.318  11.668  16.656  0.00  0.00    +0.000 OA
ENDBRANCH  24  25
ENDBRANCH  15  24
TORSDOF 4
ENDMDL
