MODEL 1
REMARK VINA RESULT:      -8.9      0.000      0.000
REMARK  Name = 
REMARK  6 active torsions:
REMARK  status: ('A' for Active; 'I' for Inactive)
REMARK    1  A    between atoms: C_1  and  C_2
REMARK    2  A    between atoms: C_2  and  C_3
REMARK    3  A    between atoms: C_5  and  C_6
REMARK    4  A    between atoms: C_9  and  C_10
REMARK    5  A    between atoms: N_18  and  C_19
REMARK    6  A    between atoms: C_19  and  C_20
REMARK                            x       y       z     vdW  Elec       q    Type
REMARK                         _______ _______ _______ _____ _____    ______ ____
ROOT
ATOM      1  C   UNL     1       2.589   6.893  19.390  0.00  0.00    +0.000 C 
ATOM      2  O   UNL     1       2.572   6.351  20.493  0.00  0.00    +0.000 OA
ATOM      3  N   UNL     1       1.814   8.019  19.077  0.00  0.00    +0.000 N 
ATOM      4  C   UNL     1       1.812   8.746  17.802  0.00  0.00    +0.000 C 
ATOM      5  C   UNL     1       2.028  10.233  17.988  0.00  0.00    +0.000 C 
ATOM      6  C   UNL     1       1.039  10.838  18.984  0.00  0.00    +0.000 C 
ATOM      7  C   UNL     1      -0.370  10.927  18.373  0.00  0.00    +0.000 C 
ATOM      8  C   UNL     1      -0.887  12.273  18.840  0.00  0.00    +0.000 C 
ATOM      9  N   UNL     1       0.306  13.118  18.794  0.00  0.00    +0.000 NA
ATOM     10  C   UNL     1       1.422  12.299  19.277  0.00  0.00    +0.000 C 
ATOM     11  C   UNL     1       1.053  10.016  20.295  0.00  0.00    +0.000 C 
ATOM     12  C   UNL     1       0.869   8.516  20.068  0.00  0.00    +0.000 C 
ENDROOT
BRANCH   1  16
ATOM     13  C   UNL     1       5.092   5.470  16.224  0.00  0.00    +0.000 A 
ATOM     14  C   UNL     1       4.138   4.625  16.800  0.00  0.00    +0.000 A 
ATOM     15  C   UNL     1       3.410   5.036  17.912  0.00  0.00    +0.000 A 
ATOM     16  C   UNL     1       3.521   6.351  18.373  0.00  0.00    +0.000 A 
ATOM     17  C   UNL     1       4.505   7.192  17.838  0.00  0.00    +0.000 A 
ATOM     18  C   UNL     1       5.298   6.746  16.775  0.00  0.00    +0.000 A 
BRANCH  13  21
ATOM     19  C   UNL     1       6.254   3.944  13.285  0.00  0.00    +0.000 A 
ATOM     20  N   UNL     1       5.286   4.154  14.145  0.00  0.00    +0.000 NA
ATOM     21  C   UNL     1       5.849   4.996  15.081  0.00  0.00    +0.000 A 
ATOM     22  N   UNL     1       7.129   5.310  14.826  0.00  0.00    +0.000 NA
ATOM     23  N   UNL     1       7.362   4.620  13.700  0.00  0.00    +0.000 N 
ATOM     24  H   UNL     1       8.281   4.673  13.264  0.00  0.00    +0.000 HD
BRANCH  19  26
ATOM     25  C   UNL     1       4.749   3.071  11.542  0.00  0.00    +0.000 C 
ATOM     26  C   UNL     1       6.186   3.159  12.032  0.00  0.00    +0.000 C 
ENDBRANCH  19  26
ENDBRANCH  13  21
ENDBRANCH   1  16
BRANCH   9  27
ATOM     27  C   UNL     1       0.134  14.334  19.600  0.00  0.00    +0.000 C 
BRANCH  27  28
ATOM     28  C   UNL     1       0.480  15.608  18.856  0.00  0.00    +0.000 A 
ATOM     29  C   UNL     1      -0.524  16.487  18.427  0.00  0.00    +0.000 A 
ATOM     30  C   UNL     1      -0.195  17.652  17.730  0.00  0.00    +0.000 A 
ATOM     31  C   UNL     1       1.139  17.953  17.462  0.00  0.00    +0.000 A 
ATOM     32  C   UNL     1       2.147  17.091  17.889  0.00  0.00    +0.000 A 
ATOM     33  C   UNL     1       1.820  15.924  18.580  0.00  0.00    +0.000 A 
ENDBRANCH  27  28
ENDBRANCH   9  27
TORSDOF 5
ENDMDL
MODEL 2
REMARK VINA RESULT:      -8.6      0.999      1.663
REMARK  Name = 
REMARK  6 active torsions:
REMARK  status: ('A' for Active; 'I' for Inactive)
REMARK    1  A    between atoms: C_1  and  C_2
REMARK    2  A    between atoms: C_2  and  C_3
REMARK    3  A    between atoms: C_5  and  C_6
REMARK    4  A    between atoms: C_9  and  C_10
REMARK    5  A    between atoms: N_18  and  C_19
REMARK    6  A    between atoms: C_19  and  C_20
REMARK                            x       y       z     vdW  Elec       q    Type
REMARK                         _______ _______ _______ _____ _____    ______ ____
ROOT
ATOM      1  C   UNL     1       2.268   7.142  19.611  0.00  0.00    +0.000 C 
ATOM      2  O   UNL     1       2.427   6.546  20.675  0.00  0.00    +0.000 OA
ATOM      3  N   UNL     1       1.405   8.237  19.467  0.00  0.00    +0.000 N 
ATOM      4  C   UNL     1       1.196   9.024  18.246  0.00  0.00    +0.000 C 
ATOM      5  C   UNL     1       1.362  10.511  18.484  0.00  0.00    +0.000 C 
ATOM      6  C   UNL     1       0.489  11.010  19.635  0.00  0.00    +0.000 C 
ATOM      7  C   UNL     1      -0.993  11.050  19.221  0.00  0.00    +0.000 C 
ATOM      8  C   UNL     1      -1.507  12.341  19.827  0.00  0.00    +0.000 C 
ATOM      9  N   UNL     1      -0.374  13.253  19.672  0.00  0.00    +0.000 NA
ATOM     10  C   UNL     1       0.836  12.474  19.956  0.00  0.00    +0.000 C 
ATOM     11  C   UNL     1       0.719  10.127  20.885  0.00  0.00    +0.000 C 
ATOM     12  C   UNL     1       0.579   8.631  20.600  0.00  0.00    +0.000 C 
ENDROOT
BRANCH   1  16
ATOM     13  C   UNL     1       4.845   5.788  16.475  0.00  0.00    +0.000 A 
ATOM     14  C   UNL     1       4.767   7.151  16.782  0.00  0.00    +0.000 A 
ATOM     15  C   UNL     1       3.840   7.613  17.710  0.00  0.00    +0.000 A 
ATOM     16  C   UNL     1       3.080   6.703  18.451  0.00  0.00    +0.000 A 
ATOM     17  C   UNL     1       3.113   5.342  18.121  0.00  0.00    +0.000 A 
ATOM     18  C   UNL     1       3.984   4.890  17.125  0.00  0.00    +0.000 A 
BRANCH  13  21
ATOM     19  C   UNL     1       6.549   4.370  13.754  0.00  0.00    +0.000 A 
ATOM     20  N   UNL     1       5.432   4.562  14.414  0.00  0.00    +0.000 NA
ATOM     21  C   UNL     1       5.808   5.348  15.482  0.00  0.00    +0.000 A 
ATOM     22  N   UNL     1       7.117   5.646  15.501  0.00  0.00    +0.000 NA
ATOM     23  N   UNL     1       7.560   5.003  14.412  0.00  0.00    +0.000 N 
ATOM     24  H   UNL     1       8.549   5.055  14.169  0.00  0.00    +0.000 HD
BRANCH  19  26
ATOM     25  C   UNL     1       5.400   3.036  12.030  0.00  0.00    +0.000 C 
ATOM     26  C   UNL     1       6.722   3.642  12.475  0.00  0.00    +0.000 C 
ENDBRANCH  19  26
ENDBRANCH  13  21
ENDBRANCH   1  16
BRANCH   9  27
ATOM     27  C   UNL     1      -0.495  14.416  20.560  0.00  0.00    +0.000 C 
BRANCH  27  28
ATOM     28  C   UNL     1      -0.847  15.698  19.833  0.00  0.00    +0.000 A 
ATOM     29  C   UNL     1      -0.228  16.032  18.620  0.00  0.00    +0.000 A 
ATOM     30  C   UNL     1      -0.550  17.222  17.965  0.00  0.00    +0.000 A 
ATOM     31  C   UNL     1      -1.498  18.086  18.510  0.00  0.00    +0.000 A 
ATOM     32  C   UNL     1      -2.125  17.763  19.712  0.00  0.00    +0.000 A 
ATOM     33  C   UNL     1      -1.800  16.577  20.371  0.00  0.00    +0.000 A 
ENDBRANCH  27  28
ENDBRANCH   9  27
TORSDOF 5
ENDMDL
MODEL 3
REMARK VINA RESULT:      -8.5      1.191      1.722
REMARK  Name = 
REMARK  6 active torsions:
REMARK  status: ('A' for Active; 'I' for Inactive)
REMARK    1  A    between atoms: C_1  and  C_2
REMARK    2  A    between atoms: C_2  and  C_3
REMARK    3  A    between atoms: C_5  and  C_6
REMARK    4  A    between atoms: C_9  and  C_10
REMARK    5  A    between atoms: N_18  and  C_19
REMARK    6  A    between atoms: C_19  and  C_20
REMARK                            x       y       z     vdW  Elec       q    Type
REMARK                         _______ _______ _______ _____ _____    ______ ____
ROOT
ATOM      1  C   UNL     1       1.839   7.715  19.912  0.00  0.00    +0.000 C 
ATOM      2  O   UNL     1       1.924   7.308  21.069  0.00  0.00    +0.000 OA
ATOM      3  N   UNL     1       1.136   8.875  19.558  0.00  0.00    +0.000 N 
ATOM      4  C   UNL     1       1.026   9.447  18.211  0.00  0.00    +0.000 C 
ATOM      5  C   UNL     1       1.402  10.913  18.175  0.00  0.00    +0.000 C 
ATOM      6  C   UNL     1       0.621  11.733  19.203  0.00  0.00    +0.000 C 
ATOM      7  C   UNL     1      -0.845  11.904  18.767  0.00  0.00    +0.000 C 
ATOM      8  C   UNL     1      -1.165  13.343  19.119  0.00  0.00    +0.000 C 
ATOM      9  N   UNL     1       0.083  14.042  18.816  0.00  0.00    +0.000 NA
ATOM     10  C   UNL     1       1.174  13.167  19.255  0.00  0.00    +0.000 C 
ATOM     11  C   UNL     1       0.739  11.069  20.596  0.00  0.00    +0.000 C 
ATOM     12  C   UNL     1       0.387   9.582  20.588  0.00  0.00    +0.000 C 
ENDROOT
BRANCH   1  16
ATOM     13  C   UNL     1       4.159   5.456  17.115  0.00  0.00    +0.000 A 
ATOM     14  C   UNL     1       4.295   6.847  17.181  0.00  0.00    +0.000 A 
ATOM     15  C   UNL     1       3.456   7.601  17.994  0.00  0.00    +0.000 A 
ATOM     16  C   UNL     1       2.567   6.962  18.863  0.00  0.00    +0.000 A 
ATOM     17  C   UNL     1       2.387   5.576  18.774  0.00  0.00    +0.000 A 
ATOM     18  C   UNL     1       3.173   4.828  17.891  0.00  0.00    +0.000 A 
BRANCH  13  21
ATOM     19  C   UNL     1       6.150   4.243  14.491  0.00  0.00    +0.000 A 
ATOM     20  N   UNL     1       5.357   5.169  14.975  0.00  0.00    +0.000 NA
ATOM     21  C   UNL     1       5.038   4.708  16.235  0.00  0.00    +0.000 A 
ATOM     22  N   UNL     1       5.608   3.532  16.541  0.00  0.00    +0.000 NA
ATOM     23  N   UNL     1       6.287   3.256  15.419  0.00  0.00    +0.000 N 
ATOM     24  H   UNL     1       6.833   2.396  15.365  0.00  0.00    +0.000 HD
BRANCH  19  26
ATOM     25  C   UNL     1       7.827   5.413  13.117  0.00  0.00    +0.000 C 
ATOM     26  C   UNL     1       6.847   4.253  13.184  0.00  0.00    +0.000 C 
ENDBRANCH  19  26
ENDBRANCH  13  21
ENDBRANCH   1  16
BRANCH   9  27
ATOM     27  C   UNL     1       0.137  15.354  19.474  0.00  0.00    +0.000 C 
BRANCH  27  28
ATOM     28  C   UNL     1       0.334  16.507  18.511  0.00  0.00    +0.000 A 
ATOM     29  C   UNL     1      -0.756  17.275  18.075  0.00  0.00    +0.000 A 
ATOM     30  C   UNL     1      -0.566  18.328  17.177  0.00  0.00    +0.000 A 
ATOM     31  C   UNL     1       0.713  18.628  16.713  0.00  0.00    +0.000 A 
ATOM     32  C   UNL     1       1.805  17.877  17.144  0.00  0.00    +0.000 A 
ATOM     33  C   UNL     1       1.617  16.821  18.036  0.00  0.00    +0.000 A 
ENDBRANCH  27  28
ENDBRANCH   9  27
TORSDOF 5
ENDMDL
MODEL 4
REMARK VINA RESULT:      -8.4      1.805      2.817
REMARK  Name = 
REMARK  6 active torsions:
REMARK  status: ('A' for Active; 'I' for Inactive)
REMARK    1  A    between atoms: C_1  and  C_2
REMARK    2  A    between atoms: C_2  and  C_3
REMARK    3  A    between atoms: C_5  and  C_6
REMARK    4  A    between atoms: C_9  and  C_10
REMARK    5  A    between atoms: N_18  and  C_19
REMARK    6  A    between atoms: C_19  and  C_20
REMARK                            x       y       z     vdW  Elec       q    Type
REMARK                         _______ _______ _______ _____ _____    ______ ____
ROOT
ATOM      1  C   UNL     1       2.889   6.437  19.315  0.00  0.00    +0.000 C 
ATOM      2  O   UNL     1       2.961   5.855  20.396  0.00  0.00    +0.000 OA
ATOM      3  N   UNL     1       2.010   7.502  19.074  0.00  0.00    +0.000 N 
ATOM      4  C   UNL     1       1.897   8.272  17.830  0.00  0.00    +0.000 C 
ATOM      5  C   UNL     1       1.991   9.765  18.067  0.00  0.00    +0.000 C 
ATOM      6  C   UNL     1       0.992  10.244  19.121  0.00  0.00    +0.000 C 
ATOM      7  C   UNL     1      -0.441  10.232  18.562  0.00  0.00    +0.000 C 
ATOM      8  C   UNL     1      -1.054  11.510  19.100  0.00  0.00    +0.000 C 
ATOM      9  N   UNL     1       0.059  12.457  19.047  0.00  0.00    +0.000 NA
ATOM     10  C   UNL     1       1.259  11.721  19.458  0.00  0.00    +0.000 C 
ATOM     11  C   UNL     1       1.127   9.379  20.396  0.00  0.00    +0.000 C 
ATOM     12  C   UNL     1       1.064   7.877  20.116  0.00  0.00    +0.000 C 
ENDROOT
BRANCH   1  16
ATOM     13  C   UNL     1       5.370   5.328  16.009  0.00  0.00    +0.000 A 
ATOM     14  C   UNL     1       4.599   4.362  16.666  0.00  0.00    +0.000 A 
ATOM     15  C   UNL     1       3.891   4.688  17.817  0.00  0.00    +0.000 A 
ATOM     16  C   UNL     1       3.826   6.017  18.245  0.00  0.00    +0.000 A 
ATOM     17  C   UNL     1       4.629   6.984  17.628  0.00  0.00    +0.000 A 
ATOM     18  C   UNL     1       5.410   6.635  16.521  0.00  0.00    +0.000 A 
BRANCH  13  21
ATOM     19  C   UNL     1       6.567   3.904  13.033  0.00  0.00    +0.000 A 
ATOM     20  N   UNL     1       5.640   3.981  13.958  0.00  0.00    +0.000 NA
ATOM     21  C   UNL     1       6.115   4.943  14.825  0.00  0.00    +0.000 A 
ATOM     22  N   UNL     1       7.300   5.459  14.463  0.00  0.00    +0.000 NA
ATOM     23  N   UNL     1       7.568   4.774  13.343  0.00  0.00    +0.000 N 
ATOM     24  H   UNL     1       8.431   4.965  12.836  0.00  0.00    +0.000 HD
BRANCH  19  26
ATOM     25  C   UNL     1       5.119   2.679  11.461  0.00  0.00    +0.000 C 
ATOM     26  C   UNL     1       6.546   3.068  11.810  0.00  0.00    +0.000 C 
ENDBRANCH  19  26
ENDBRANCH  13  21
ENDBRANCH   1  16
BRANCH   9  27
ATOM     27  C   UNL     1      -0.187  13.623  19.906  0.00  0.00    +0.000 C 
BRANCH  27  28
ATOM     28  C   UNL     1      -1.152  13.345  21.041  0.00  0.00    +0.000 A 
ATOM     29  C   UNL     1      -2.483  13.780  20.976  0.00  0.00    +0.000 A 
ATOM     30  C   UNL     1      -3.362  13.530  22.033  0.00  0.00    +0.000 A 
ATOM     31  C   UNL     1      -2.922  12.839  23.160  0.00  0.00    +0.000 A 
ATOM     32  C   UNL     1      -1.603  12.396  23.234  0.00  0.00    +0.000 A 
ATOM     33  C   UNL     1      -0.722  12.649  22.182  0.00  0.00    +0.000 A 
ENDBRANCH  27  28
ENDBRANCH   9  27
TORSDOF 5
ENDMDL
MODEL 5
REMARK VINA RESULT:      -8.4      0.993      1.182
REMARK  Name = 
REMARK  6 active torsions:
REMARK  status: ('A' for Active; 'I' for Inactive)
REMARK    1  A    between atoms: C_1  and  C_2
REMARK    2  A    between atoms: C_2  and  C_3
REMARK    3  A    between atoms: C_5  and  C_6
REMARK    4  A    between atoms: C_9  and  C_10
REMARK    5  A    between atoms: N_18  and  C_19
REMARK    6  A    between atoms: C_19  and  C_20
REMARK                            x       y       z     vdW  Elec       q    Type
REMARK                         _______ _______ _______ _____ _____    ______ ____
ROOT
ATOM      1  C   UNL     1       2.004   7.470  19.773  0.00  0.00    +0.000 C 
ATOM      2  O   UNL     1       1.833   7.001  20.897  0.00  0.00    +0.000 OA
ATOM      3  N   UNL     1       1.387   8.649  19.333  0.00  0.00    +0.000 N 
ATOM      4  C   UNL     1       1.575   9.293  18.027  0.00  0.00    +0.000 C 
ATOM      5  C   UNL     1       1.936  10.758  18.154  0.00  0.00    +0.000 C 
ATOM      6  C   UNL     1       0.937  11.523  19.023  0.00  0.00    +0.000 C 
ATOM      7  C   UNL     1      -0.396  11.721  18.281  0.00  0.00    +0.000 C 
ATOM      8  C   UNL     1      -0.801  13.140  18.628  0.00  0.00    +0.000 C 
ATOM      9  N   UNL     1       0.477  13.851  18.649  0.00  0.00    +0.000 NA
ATOM     10  C   UNL     1       1.451  12.951  19.274  0.00  0.00    +0.000 C 
ATOM     11  C   UNL     1       0.748  10.785  20.371  0.00  0.00    +0.000 C 
ATOM     12  C   UNL     1       0.421   9.302  20.205  0.00  0.00    +0.000 C 
ENDROOT
BRANCH   1  16
ATOM     13  C   UNL     1       4.548   5.526  16.934  0.00  0.00    +0.000 A 
ATOM     14  C   UNL     1       3.674   4.773  17.727  0.00  0.00    +0.000 A 
ATOM     15  C   UNL     1       2.939   5.381  18.739  0.00  0.00    +0.000 A 
ATOM     16  C   UNL     1       2.956   6.772  18.875  0.00  0.00    +0.000 A 
ATOM     17  C   UNL     1       3.859   7.532  18.122  0.00  0.00    +0.000 A 
ATOM     18  C   UNL     1       4.663   6.906  17.164  0.00  0.00    +0.000 A 
BRANCH  13  21
ATOM     19  C   UNL     1       6.506   4.622  14.165  0.00  0.00    +0.000 A 
ATOM     20  N   UNL     1       5.922   5.551  14.883  0.00  0.00    +0.000 NA
ATOM     21  C   UNL     1       5.316   4.851  15.905  0.00  0.00    +0.000 A 
ATOM     22  N   UNL     1       5.509   3.524  15.839  0.00  0.00    +0.000 NA
ATOM     23  N   UNL     1       6.246   3.408  14.725  0.00  0.00    +0.000 N 
ATOM     24  H   UNL     1       6.549   2.484  14.422  0.00  0.00    +0.000 HD
BRANCH  19  26
ATOM     25  C   UNL     1       7.029   3.779  11.910  0.00  0.00    +0.000 C 
ATOM     26  C   UNL     1       7.361   4.816  12.971  0.00  0.00    +0.000 C 
ENDBRANCH  19  26
ENDBRANCH  13  21
ENDBRANCH   1  16
BRANCH   9  27
ATOM     27  C   UNL     1       0.370  15.125  19.371  0.00  0.00    +0.000 C 
BRANCH  27  28
ATOM     28  C   UNL     1       0.521  16.342  18.479  0.00  0.00    +0.000 A 
ATOM     29  C   UNL     1      -0.602  17.066  18.054  0.00  0.00    +0.000 A 
ATOM     30  C   UNL     1      -0.453  18.178  17.221  0.00  0.00    +0.000 A 
ATOM     31  C   UNL     1       0.817  18.580  16.813  0.00  0.00    +0.000 A 
ATOM     32  C   UNL     1       1.941  17.873  17.234  0.00  0.00    +0.000 A 
ATOM     33  C   UNL     1       1.794  16.759  18.061  0.00  0.00    +0.000 A 
ENDBRANCH  27  28
ENDBRANCH   9  27
TORSDOF 5
ENDMDL
MODEL 6
REMARK VINA RESULT:      -8.3      0.859      1.290
REMARK  Name = 
REMARK  6 active torsions:
REMARK  status: ('A' for Active; 'I' for Inactive)
REMARK    1  A    between atoms: C_1  and  C_2
REMARK    2  A    between atoms: C_2  and  C_3
REMARK    3  A    between atoms: C_5  and  C_6
REMARK    4  A    between atoms: C_9  and  C_10
REMARK    5  A    between atoms: N_18  and  C_19
REMARK    6  A    between atoms: C_19  and  C_20
REMARK                            x       y       z     vdW  Elec       q    Type
REMARK                         _______ _______ _______ _____ _____    ______ ____
ROOT
ATOM      1  C   UNL     1       2.801   6.235  19.653  0.00  0.00    +0.000 C 
ATOM      2  O   UNL     1       2.846   5.609  20.710  0.00  0.00    +0.000 OA
ATOM      3  N   UNL     1       1.947   7.327  19.443  0.00  0.00    +0.000 N 
ATOM      4  C   UNL     1       1.869   8.148  18.230  0.00  0.00    +0.000 C 
ATOM      5  C   UNL     1       1.991   9.628  18.528  0.00  0.00    +0.000 C 
ATOM      6  C   UNL     1       0.987  10.086  19.587  0.00  0.00    +0.000 C 
ATOM      7  C   UNL     1      -0.439  10.127  19.009  0.00  0.00    +0.000 C 
ATOM      8  C   UNL     1      -1.032  11.395  19.590  0.00  0.00    +0.000 C 
ATOM      9  N   UNL     1       0.102  12.320  19.590  0.00  0.00    +0.000 NA
ATOM     10  C   UNL     1       1.280  11.542  19.986  0.00  0.00    +0.000 C 
ATOM     11  C   UNL     1       1.086   9.168  20.828  0.00  0.00    +0.000 C 
ATOM     12  C   UNL     1       0.995   7.681  20.487  0.00  0.00    +0.000 C 
ENDROOT
BRANCH   1  16
ATOM     13  C   UNL     1       5.403   5.336  16.376  0.00  0.00    +0.000 A 
ATOM     14  C   UNL     1       4.218   4.613  16.553  0.00  0.00    +0.000 A 
ATOM     15  C   UNL     1       3.433   4.810  17.683  0.00  0.00    +0.000 A 
ATOM     16  C   UNL     1       3.743   5.837  18.579  0.00  0.00    +0.000 A 
ATOM     17  C   UNL     1       4.949   6.536  18.441  0.00  0.00    +0.000 A 
ATOM     18  C   UNL     1       5.783   6.274  17.349  0.00  0.00    +0.000 A 
BRANCH  13  21
ATOM     19  C   UNL     1       6.743   4.269  13.313  0.00  0.00    +0.000 A 
ATOM     20  N   UNL     1       5.765   4.255  14.187  0.00  0.00    +0.000 NA
ATOM     21  C   UNL     1       6.208   5.083  15.196  0.00  0.00    +0.000 A 
ATOM     22  N   UNL     1       7.425   5.606  14.972  0.00  0.00    +0.000 NA
ATOM     23  N   UNL     1       7.743   5.062  13.789  0.00  0.00    +0.000 N 
ATOM     24  H   UNL     1       8.640   5.290  13.361  0.00  0.00    +0.000 HD
BRANCH  19  26
ATOM     25  C   UNL     1       5.546   2.723  11.814  0.00  0.00    +0.000 C 
ATOM     26  C   UNL     1       6.777   3.598  11.993  0.00  0.00    +0.000 C 
ENDBRANCH  19  26
ENDBRANCH  13  21
ENDBRANCH   1  16
BRANCH   9  27
ATOM     27  C   UNL     1      -0.132  13.455  20.492  0.00  0.00    +0.000 C 
BRANCH  27  28
ATOM     28  C   UNL     1      -0.058  14.802  19.801  0.00  0.00    +0.000 A 
ATOM     29  C   UNL     1       1.084  15.181  19.081  0.00  0.00    +0.000 A 
ATOM     30  C   UNL     1       1.146  16.430  18.458  0.00  0.00    +0.000 A 
ATOM     31  C   UNL     1       0.068  17.308  18.543  0.00  0.00    +0.000 A 
ATOM     32  C   UNL     1      -1.075  16.941  19.249  0.00  0.00    +0.000 A 
ATOM     33  C   UNL     1      -1.138  15.696  19.877  0.00  0.00    +0.000 A 
ENDBRANCH  27  28
ENDBRANCH   9  27
TORSDOF 5
ENDMDL
MODEL 7
REMARK VINA RESULT:      -8.3      1.224      1.916
REMARK  Name = 
REMARK  6 active torsions:
REMARK  status: ('A' for Active; 'I' for Inactive)
REMARK    1  A    between atoms: C_1  and  C_2
REMARK    2  A    between atoms: C_2  and  C_3
REMARK    3  A    between atoms: C_5  and  C_6
REMARK    4  A    between atoms: C_9  and  C_10
REMARK    5  A    between atoms: N_18  and  C_19
REMARK    6  A    between atoms: C_19  and  C_20
REMARK                            x       y       z     vdW  Elec       q    Type
REMARK                         _______ _______ _______ _____ _____    ______ ____
ROOT
ATOM      1  C   UNL     1       1.811   7.552  19.788  0.00  0.00    +0.000 C 
ATOM      2  O   UNL     1       1.817   7.040  20.906  0.00  0.00    +0.000 OA
ATOM      3  N   UNL     1       1.145   8.752  19.498  0.00  0.00    +0.000 N 
ATOM      4  C   UNL     1       1.127   9.445  18.205  0.00  0.00    +0.000 C 
ATOM      5  C   UNL     1       1.521  10.903  18.328  0.00  0.00    +0.000 C 
ATOM      6  C   UNL     1       0.684  11.638  19.376  0.00  0.00    +0.000 C 
ATOM      7  C   UNL     1      -0.749  11.872  18.866  0.00  0.00    +0.000 C 
ATOM      8  C   UNL     1      -1.076  13.278  19.328  0.00  0.00    +0.000 C 
ATOM      9  N   UNL     1       0.196  13.981  19.170  0.00  0.00    +0.000 NA
ATOM     10  C   UNL     1       1.248  13.052  19.595  0.00  0.00    +0.000 C 
ATOM     11  C   UNL     1       0.705  10.848  20.707  0.00  0.00    +0.000 C 
ATOM     12  C   UNL     1       0.339   9.374  20.540  0.00  0.00    +0.000 C 
ENDROOT
BRANCH   1  16
ATOM     13  C   UNL     1       4.310   5.567  16.937  0.00  0.00    +0.000 A 
ATOM     14  C   UNL     1       4.297   6.965  17.009  0.00  0.00    +0.000 A 
ATOM     15  C   UNL     1       3.396   7.620  17.841  0.00  0.00    +0.000 A 
ATOM     16  C   UNL     1       2.597   6.886  18.722  0.00  0.00    +0.000 A 
ATOM     17  C   UNL     1       2.565   5.489  18.628  0.00  0.00    +0.000 A 
ATOM     18  C   UNL     1       3.411   4.834  17.727  0.00  0.00    +0.000 A 
BRANCH  13  21
ATOM     19  C   UNL     1       6.607   4.715  14.424  0.00  0.00    +0.000 A 
ATOM     20  N   UNL     1       5.845   5.612  15.005  0.00  0.00    +0.000 NA
ATOM     21  C   UNL     1       5.248   4.922  16.038  0.00  0.00    +0.000 A 
ATOM     22  N   UNL     1       5.616   3.632  16.112  0.00  0.00    +0.000 NA
ATOM     23  N   UNL     1       6.457   3.527  15.074  0.00  0.00    +0.000 N 
ATOM     24  H   UNL     1       6.903   2.631  14.882  0.00  0.00    +0.000 HD
BRANCH  19  26
ATOM     25  C   UNL     1       7.041   4.171  12.060  0.00  0.00    +0.000 C 
ATOM     26  C   UNL     1       7.532   4.925  13.286  0.00  0.00    +0.000 C 
ENDBRANCH  19  26
ENDBRANCH  13  21
ENDBRANCH   1  16
BRANCH   9  27
ATOM     27  C   UNL     1       0.222  15.226  19.949  0.00  0.00    +0.000 C 
BRANCH  27  28
ATOM     28  C   UNL     1      -0.357  16.416  19.208  0.00  0.00    +0.000 A 
ATOM     29  C   UNL     1       0.232  16.883  18.024  0.00  0.00    +0.000 A 
ATOM     30  C   UNL     1      -0.302  17.987  17.356  0.00  0.00    +0.000 A 
ATOM     31  C   UNL     1      -1.431  18.630  17.860  0.00  0.00    +0.000 A 
ATOM     32  C   UNL     1      -2.029  18.172  19.032  0.00  0.00    +0.000 A 
ATOM     33  C   UNL     1      -1.495  17.072  19.704  0.00  0.00    +0.000 A 
ENDBRANCH  27  28
ENDBRANCH   9  27
TORSDOF 5
ENDMDL
MODEL 8
REMARK VINA RESULT:      -8.2      1.158      1.722
REMARK  Name = 
REMARK  6 active torsions:
REMARK  status: ('A' for Active; 'I' for Inactive)
REMARK    1  A    between atoms: C_1  and  C_2
REMARK    2  A    between atoms: C_2  and  C_3
REMARK    3  A    between atoms: C_5  and  C_6
REMARK    4  A    between atoms: C_9  and  C_10
REMARK    5  A    between atoms: N_18  and  C_19
REMARK    6  A    between atoms: C_19  and  C_20
REMARK                            x       y       z     vdW  Elec       q    Type
REMARK                         _______ _______ _______ _____ _____    ______ ____
ROOT
ATOM      1  C   UNL     1       2.036   7.573  19.653  0.00  0.00    +0.000 C 
ATOM      2  O   UNL     1       2.080   7.001  20.740  0.00  0.00    +0.000 OA
ATOM      3  N   UNL     1       1.290   8.739  19.429  0.00  0.00    +0.000 N 
ATOM      4  C   UNL     1       1.223   9.501  18.177  0.00  0.00    +0.000 C 
ATOM      5  C   UNL     1       1.517  10.972  18.382  0.00  0.00    +0.000 C 
ATOM      6  C   UNL     1       0.635  11.590  19.467  0.00  0.00    +0.000 C 
ATOM      7  C   UNL     1      -0.812  11.755  18.969  0.00  0.00    +0.000 C 
ATOM      8  C   UNL     1      -1.232  13.107  19.508  0.00  0.00    +0.000 C 
ATOM      9  N   UNL     1      -0.010  13.903  19.391  0.00  0.00    +0.000 NA
ATOM     10  C   UNL     1       1.103  13.024  19.765  0.00  0.00    +0.000 C 
ATOM     11  C   UNL     1       0.713  10.731  20.752  0.00  0.00    +0.000 C 
ATOM     12  C   UNL     1       0.446   9.246  20.503  0.00  0.00    +0.000 C 
ENDROOT
BRANCH   1  16
ATOM     13  C   UNL     1       4.664   5.939  16.697  0.00  0.00    +0.000 A 
ATOM     14  C   UNL     1       4.503   7.325  16.806  0.00  0.00    +0.000 A 
ATOM     15  C   UNL     1       3.557   7.859  17.675  0.00  0.00    +0.000 A 
ATOM     16  C   UNL     1       2.863   7.021  18.553  0.00  0.00    +0.000 A 
ATOM     17  C   UNL     1       2.979   5.632  18.422  0.00  0.00    +0.000 A 
ATOM     18  C   UNL     1       3.867   5.094  17.485  0.00  0.00    +0.000 A 
BRANCH  13  21
ATOM     19  C   UNL     1       6.404   4.352  14.095  0.00  0.00    +0.000 A 
ATOM     20  N   UNL     1       5.272   4.621  14.700  0.00  0.00    +0.000 NA
ATOM     21  C   UNL     1       5.643   5.420  15.761  0.00  0.00    +0.000 A 
ATOM     22  N   UNL     1       6.964   5.652  15.827  0.00  0.00    +0.000 NA
ATOM     23  N   UNL     1       7.418   4.953  14.777  0.00  0.00    +0.000 N 
ATOM     24  H   UNL     1       8.418   4.948  14.576  0.00  0.00    +0.000 HD
BRANCH  19  26
ATOM     25  C   UNL     1       7.295   4.425  11.799  0.00  0.00    +0.000 C 
ATOM     26  C   UNL     1       6.592   3.577  12.847  0.00  0.00    +0.000 C 
ENDBRANCH  19  26
ENDBRANCH  13  21
ENDBRANCH   1  16
BRANCH   9  27
ATOM     27  C   UNL     1      -0.067  15.101  20.238  0.00  0.00    +0.000 C 
BRANCH  27  28
ATOM     28  C   UNL     1      -0.738  16.284  19.569  0.00  0.00    +0.000 A 
ATOM     29  C   UNL     1      -1.898  16.856  20.110  0.00  0.00    +0.000 A 
ATOM     30  C   UNL     1      -2.515  17.938  19.479  0.00  0.00    +0.000 A 
ATOM     31  C   UNL     1      -1.977  18.463  18.306  0.00  0.00    +0.000 A 
ATOM     32  C   UNL     1      -0.821  17.908  17.761  0.00  0.00    +0.000 A 
ATOM     33  C   UNL     1      -0.205  16.824  18.387  0.00  0.00    +0.000 A 
ENDBRANCH  27  28
ENDBRANCH   9  27
TORSDOF 5
ENDMDL
MODEL 9
REMARK VINA RESULT:      -8.2      1.052      1.464
REMARK  Name = 
REMARK  6 active torsions:
REMARK  status: ('A' for Active; 'I' for Inactive)
REMARK    1  A    between atoms: C_1  and  C_2
REMARK    2  A    between atoms: C_2  and  C_3
REMARK    3  A    between atoms: C_5  and  C_6
REMARK    4  A    between atoms: C_9  and  C_10
REMARK    5  A    between atoms: N_18  and  C_19
REMARK    6  A    between atoms: C_19  and  C_20
REMARK                            x       y       z     vdW  Elec       q    Type
REMARK                         _______ _______ _______ _____ _____    ______ ____
ROOT
ATOM      1  C   UNL     1       2.927   6.401  19.408  0.00  0.00    +0.000 C 
ATOM      2  O   UNL     1       3.061   5.837  20.492  0.00  0.00    +0.000 OA
ATOM      3  N   UNL     1       2.027   7.456  19.198  0.00  0.00    +0.000 N 
ATOM      4  C   UNL     1       1.842   8.204  17.950  0.00  0.00    +0.000 C 
ATOM      5  C   UNL     1       1.938   9.702  18.157  0.00  0.00    +0.000 C 
ATOM      6  C   UNL     1       0.994  10.192  19.255  0.00  0.00    +0.000 C 
ATOM      7  C   UNL     1      -0.468  10.161  18.775  0.00  0.00    +0.000 C 
ATOM      8  C   UNL     1      -1.060  11.443  19.325  0.00  0.00    +0.000 C 
ATOM      9  N   UNL     1       0.042  12.397  19.197  0.00  0.00    +0.000 NA
ATOM     10  C   UNL     1       1.268  11.676  19.554  0.00  0.00    +0.000 C 
ATOM     11  C   UNL     1       1.203   9.348  20.536  0.00  0.00    +0.000 C 
ATOM     12  C   UNL     1       1.136   7.842  20.283  0.00  0.00    +0.000 C 
ENDROOT
BRANCH   1  16
ATOM     13  C   UNL     1       5.232   5.251  15.991  0.00  0.00    +0.000 A 
ATOM     14  C   UNL     1       4.512   4.290  16.710  0.00  0.00    +0.000 A 
ATOM     15  C   UNL     1       3.866   4.631  17.893  0.00  0.00    +0.000 A 
ATOM     16  C   UNL     1       3.807   5.969  18.296  0.00  0.00    +0.000 A 
ATOM     17  C   UNL     1       4.561   6.932  17.614  0.00  0.00    +0.000 A 
ATOM     18  C   UNL     1       5.283   6.569  16.472  0.00  0.00    +0.000 A 
BRANCH  13  21
ATOM     19  C   UNL     1       6.275   3.783  12.978  0.00  0.00    +0.000 A 
ATOM     20  N   UNL     1       5.399   3.871  13.951  0.00  0.00    +0.000 NA
ATOM     21  C   UNL     1       5.914   4.849  14.775  0.00  0.00    +0.000 A 
ATOM     22  N   UNL     1       7.076   5.365  14.341  0.00  0.00    +0.000 NA
ATOM     23  N   UNL     1       7.286   4.663  13.219  0.00  0.00    +0.000 N 
ATOM     24  H   UNL     1       8.120   4.849  12.664  0.00  0.00    +0.000 HD
BRANCH  19  26
ATOM     25  C   UNL     1       4.750   2.800  11.312  0.00  0.00    +0.000 C 
ATOM     26  C   UNL     1       6.193   2.927  11.772  0.00  0.00    +0.000 C 
ENDBRANCH  19  26
ENDBRANCH  13  21
ENDBRANCH   1  16
BRANCH   9  27
ATOM     27  C   UNL     1      -0.166  13.575  20.049  0.00  0.00    +0.000 C 
BRANCH  27  28
ATOM     28  C   UNL     1       1.001  14.542  20.040  0.00  0.00    +0.000 A 
ATOM     29  C   UNL     1       1.721  14.812  21.212  0.00  0.00    +0.000 A 
ATOM     30  C   UNL     1       2.787  15.715  21.196  0.00  0.00    +0.000 A 
ATOM     31  C   UNL     1       3.148  16.349  20.009  0.00  0.00    +0.000 A 
ATOM     32  C   UNL     1       2.445  16.084  18.835  0.00  0.00    +0.000 A 
ATOM     33  C   UNL     1       1.376  15.187  18.850  0.00  0.00    +0.000 A 
ENDBRANCH  27  28
ENDBRANCH   9  27
TORSDOF 5
ENDMDL
