MODEL 1
REMARK VINA RESULT:      -8.7      0.000      0.000
REMARK  Name = 
REMARK  7 active torsions:
REMARK  status: ('A' for Active; 'I' for Inactive)
REMARK    1  A    between atoms: C_1  and  C_2
REMARK    2  A    between atoms: C_5  and  C_6
REMARK    3  A    between atoms: C_7  and  C_8
REMARK    4  A    between atoms: C_8  and  C_9
REMARK    5  A    between atoms: N_11  and  C_12
REMARK    6  A    between atoms: C_16  and  C_17
REMARK    7  A    between atoms: N_19  and  C_20
REMARK                            x       y       z     vdW  Elec       q    Type
REMARK                         _______ _______ _______ _____ _____    ______ ____
ROOT
ATOM      1  C   UNL     1       3.482   3.906  19.360  0.00  0.00    +0.000 A 
ATOM      2  C   UNL     1       2.724   2.950  20.042  0.00  0.00    +0.000 A 
ATOM      3  C   UNL     1       1.652   3.341  20.852  0.00  0.00    +0.000 A 
ATOM      4  C   UNL     1       1.319   4.690  20.970  0.00  0.00    +0.000 A 
ATOM      5  C   UNL     1       2.095   5.649  20.306  0.00  0.00    +0.000 A 
ATOM      6  C   UNL     1       3.195   5.255  19.530  0.00  0.00    +0.000 A 
ENDROOT
BRANCH   1   9
ATOM      7  C   UNL     1       4.333   3.542  17.094  0.00  0.00    +0.000 C 
ATOM      8  O   UNL     1       3.292   3.860  16.523  0.00  0.00    +0.000 OA
ATOM      9  N   UNL     1       4.518   3.552  18.470  0.00  0.00    +0.000 N 
ATOM     10  H   UNL     1       5.469   3.703  18.788  0.00  0.00    +0.000 HD
BRANCH   7  11
ATOM     11  C   UNL     1       5.544   3.090  16.303  0.00  0.00    +0.000 C 
BRANCH  11  18
ATOM     12  C   UNL     1       6.146   3.684  13.199  0.00  0.00    +0.000 C 
ATOM     13  C   UNL     1       6.665   4.421  14.376  0.00  0.00    +0.000 A 
ATOM     14  N   UNL     1       7.459   5.480  14.198  0.00  0.00    +0.000 NA
ATOM     15  O   UNL     1       7.725   5.964  15.458  0.00  0.00    +0.000 OA
ATOM     16  C   UNL     1       7.097   5.197  16.391  0.00  0.00    +0.000 A 
ATOM     17  C   UNL     1       7.277   5.644  17.787  0.00  0.00    +0.000 C 
ATOM     18  C   UNL     1       6.418   4.172  15.762  0.00  0.00    +0.000 A 
ENDBRANCH  11  18
ENDBRANCH   7  11
ENDBRANCH   1   9
BRANCH   5  19
ATOM     19  C   UNL     1       1.733   7.093  20.301  0.00  0.00    +0.000 C 
ATOM     20  O   UNL     1       2.244   7.803  19.440  0.00  0.00    +0.000 OA
ATOM     21  N   UNL     1       0.890   7.504  21.315  0.00  0.00    +0.000 N 
ATOM     22  H   UNL     1       0.692   6.836  22.049  0.00  0.00    +0.000 HD
BRANCH  21  23
ATOM     23  C   UNL     1       0.439   8.823  21.535  0.00  0.00    +0.000 A 
ATOM     24  C   UNL     1       0.700   9.885  20.662  0.00  0.00    +0.000 A 
ATOM     25  C   UNL     1       0.264  11.177  20.965  0.00  0.00    +0.000 A 
ATOM     26  C   UNL     1      -0.437  11.405  22.139  0.00  0.00    +0.000 A 
ATOM     27  F   UNL     1      -0.837  12.647  22.440  0.00  0.00    +0.000 F 
ATOM     28  C   UNL     1      -0.729  10.361  23.008  0.00  0.00    +0.000 A 
ATOM     29  C   UNL     1      -0.301   9.067  22.700  0.00  0.00    +0.000 A 
ENDBRANCH  21  23
ENDBRANCH   5  19
TORSDOF 5
ENDMDL
MODEL 2
REMARK VINA RESULT:      -8.5      2.023      2.569
REMARK  Name = 
REMARK  7 active torsions:
REMARK  status: ('A' for Active; 'I' for Inactive)
REMARK    1  A    between atoms: C_1  and  C_2
REMARK    2  A    between atoms: C_5  and  C_6
REMARK    3  A    between atoms: C_7  and  C_8
REMARK    4  A    between atoms: C_8  and  C_9
REMARK    5  A    between atoms: N_11  and  C_12
REMARK    6  A    between atoms: C_16  and  C_17
REMARK    7  A    between atoms: N_19  and  C_20
REMARK                            x       y       z     vdW  Elec       q    Type
REMARK                         _______ _______ _______ _____ _____    ______ ____
ROOT
ATOM      1  C   UNL     1       3.441   5.557  18.854  0.00  0.00    +0.000 A 
ATOM      2  C   UNL     1       2.841   5.020  19.996  0.00  0.00    +0.000 A 
ATOM      3  C   UNL     1       1.908   5.767  20.724  0.00  0.00    +0.000 A 
ATOM      4  C   UNL     1       1.554   7.048  20.302  0.00  0.00    +0.000 A 
ATOM      5  C   UNL     1       2.174   7.594  19.171  0.00  0.00    +0.000 A 
ATOM      6  C   UNL     1       3.142   6.858  18.471  0.00  0.00    +0.000 A 
ENDROOT
BRANCH   1   9
ATOM      7  C   UNL     1       3.868   3.876  17.125  0.00  0.00    +0.000 C 
ATOM      8  O   UNL     1       2.684   3.631  16.902  0.00  0.00    +0.000 OA
ATOM      9  N   UNL     1       4.325   4.810  18.045  0.00  0.00    +0.000 N 
ATOM     10  H   UNL     1       5.226   5.229  17.840  0.00  0.00    +0.000 HD
BRANCH   7  11
ATOM     11  C   UNL     1       4.965   3.141  16.383  0.00  0.00    +0.000 C 
BRANCH  11  18
ATOM     12  C   UNL     1       5.204   3.858  13.254  0.00  0.00    +0.000 C 
ATOM     13  C   UNL     1       6.095   4.302  14.353  0.00  0.00    +0.000 A 
ATOM     14  N   UNL     1       7.120   5.115  14.088  0.00  0.00    +0.000 NA
ATOM     15  O   UNL     1       7.713   5.379  15.301  0.00  0.00    +0.000 OA
ATOM     16  C   UNL     1       7.050   4.723  16.292  0.00  0.00    +0.000 A 
ATOM     17  C   UNL     1       7.573   4.961  17.653  0.00  0.00    +0.000 C 
ATOM     18  C   UNL     1       6.013   3.992  15.746  0.00  0.00    +0.000 A 
ENDBRANCH  11  18
ENDBRANCH   7  11
ENDBRANCH   1   9
BRANCH   5  19
ATOM     19  C   UNL     1       1.768   8.909  18.604  0.00  0.00    +0.000 C 
ATOM     20  O   UNL     1       2.116   9.164  17.455  0.00  0.00    +0.000 OA
ATOM     21  N   UNL     1       1.079   9.745  19.461  0.00  0.00    +0.000 N 
ATOM     22  H   UNL     1       1.019   9.463  20.431  0.00  0.00    +0.000 HD
BRANCH  21  23
ATOM     23  C   UNL     1       0.624  11.046  19.162  0.00  0.00    +0.000 A 
ATOM     24  C   UNL     1      -0.675  11.329  18.724  0.00  0.00    +0.000 A 
ATOM     25  C   UNL     1      -1.046  12.636  18.399  0.00  0.00    +0.000 A 
ATOM     26  C   UNL     1      -0.119  13.660  18.517  0.00  0.00    +0.000 A 
ATOM     27  F   UNL     1      -0.469  14.910  18.186  0.00  0.00    +0.000 F 
ATOM     28  C   UNL     1       1.168  13.406  18.972  0.00  0.00    +0.000 A 
ATOM     29  C   UNL     1       1.537  12.100  19.307  0.00  0.00    +0.000 A 
ENDBRANCH  21  23
ENDBRANCH   5  19
TORSDOF 5
ENDMDL
MODEL 3
REMARK VINA RESULT:      -8.5      2.111      3.010
REMARK  Name = 
REMARK  7 active torsions:
REMARK  status: ('A' for Active; 'I' for Inactive)
REMARK    1  A    between atoms: C_1  and  C_2
REMARK    2  A    between atoms: C_5  and  C_6
REMARK    3  A    between atoms: C_7  and  C_8
REMARK    4  A    between atoms: C_8  and  C_9
REMARK    5  A    between atoms: N_11  and  C_12
REMARK    6  A    between atoms: C_16  and  C_17
REMARK    7  A    between atoms: N_19  and  C_20
REMARK                            x       y       z     vdW  Elec       q    Type
REMARK                         _______ _______ _______ _____ _____    ______ ____
ROOT
ATOM      1  C   UNL     1       3.404   5.638  18.879  0.00  0.00    +0.000 A 
ATOM      2  C   UNL     1       2.766   5.120  20.008  0.00  0.00    +0.000 A 
ATOM      3  C   UNL     1       1.821   5.885  20.702  0.00  0.00    +0.000 A 
ATOM      4  C   UNL     1       1.494   7.165  20.257  0.00  0.00    +0.000 A 
ATOM      5  C   UNL     1       2.152   7.692  19.139  0.00  0.00    +0.000 A 
ATOM      6  C   UNL     1       3.130   6.939  18.474  0.00  0.00    +0.000 A 
ENDROOT
BRANCH   1   9
ATOM      7  C   UNL     1       3.860   3.954  17.160  0.00  0.00    +0.000 C 
ATOM      8  O   UNL     1       2.681   3.739  16.888  0.00  0.00    +0.000 OA
ATOM      9  N   UNL     1       4.302   4.874  18.103  0.00  0.00    +0.000 N 
ATOM     10  H   UNL     1       5.220   5.271  17.937  0.00  0.00    +0.000 HD
BRANCH   7  11
ATOM     11  C   UNL     1       4.969   3.196  16.459  0.00  0.00    +0.000 C 
BRANCH  11  18
ATOM     12  C   UNL     1       7.558   4.813  17.477  0.00  0.00    +0.000 C 
ATOM     13  C   UNL     1       7.042   4.715  16.091  0.00  0.00    +0.000 A 
ATOM     14  N   UNL     1       7.694   5.322  15.097  0.00  0.00    +0.000 NA
ATOM     15  O   UNL     1       7.005   5.007  13.949  0.00  0.00    +0.000 OA
ATOM     16  C   UNL     1       5.940   4.216  14.252  0.00  0.00    +0.000 A 
ATOM     17  C   UNL     1       5.141   3.776  13.089  0.00  0.00    +0.000 C 
ATOM     18  C   UNL     1       5.893   4.010  15.617  0.00  0.00    +0.000 A 
ENDBRANCH  11  18
ENDBRANCH   7  11
ENDBRANCH   1   9
BRANCH   5  19
ATOM     19  C   UNL     1       1.776   9.005  18.547  0.00  0.00    +0.000 C 
ATOM     20  O   UNL     1       2.022   9.183  17.358  0.00  0.00    +0.000 OA
ATOM     21  N   UNL     1       1.234   9.925  19.423  0.00  0.00    +0.000 N 
ATOM     22  H   UNL     1       1.255   9.692  20.407  0.00  0.00    +0.000 HD
BRANCH  21  23
ATOM     23  C   UNL     1       0.836  11.241  19.103  0.00  0.00    +0.000 A 
ATOM     24  C   UNL     1       1.715  12.330  19.081  0.00  0.00    +0.000 A 
ATOM     25  C   UNL     1       1.245  13.615  18.803  0.00  0.00    +0.000 A 
ATOM     26  C   UNL     1      -0.103  13.810  18.542  0.00  0.00    +0.000 A 
ATOM     27  F   UNL     1      -0.557  15.046  18.296  0.00  0.00    +0.000 F 
ATOM     28  C   UNL     1      -0.988  12.740  18.535  0.00  0.00    +0.000 A 
ATOM     29  C   UNL     1      -0.517  11.453  18.804  0.00  0.00    +0.000 A 
ENDBRANCH  21  23
ENDBRANCH   5  19
TORSDOF 5
ENDMDL
MODEL 4
REMARK VINA RESULT:      -8.5      1.990      2.408
REMARK  Name = 
REMARK  7 active torsions:
REMARK  status: ('A' for Active; 'I' for Inactive)
REMARK    1  A    between atoms: C_1  and  C_2
REMARK    2  A    between atoms: C_5  and  C_6
REMARK    3  A    between atoms: C_7  and  C_8
REMARK    4  A    between atoms: C_8  and  C_9
REMARK    5  A    between atoms: N_11  and  C_12
REMARK    6  A    between atoms: C_16  and  C_17
REMARK    7  A    between atoms: N_19  and  C_20
REMARK                            x       y       z     vdW  Elec       q    Type
REMARK                         _______ _______ _______ _____ _____    ______ ____
ROOT
ATOM      1  C   UNL     1       2.755   5.343  18.747  0.00  0.00    +0.000 A 
ATOM      2  C   UNL     1       2.317   4.430  19.710  0.00  0.00    +0.000 A 
ATOM      3  C   UNL     1       1.628   4.873  20.845  0.00  0.00    +0.000 A 
ATOM      4  C   UNL     1       1.355   6.230  21.013  0.00  0.00    +0.000 A 
ATOM      5  C   UNL     1       1.816   7.146  20.060  0.00  0.00    +0.000 A 
ATOM      6  C   UNL     1       2.545   6.702  18.947  0.00  0.00    +0.000 A 
ENDROOT
BRANCH   1   9
ATOM      7  C   UNL     1       4.342   3.932  17.529  0.00  0.00    +0.000 C 
ATOM      8  O   UNL     1       4.715   3.295  18.512  0.00  0.00    +0.000 OA
ATOM      9  N   UNL     1       3.381   4.934  17.550  0.00  0.00    +0.000 N 
ATOM     10  H   UNL     1       2.859   5.065  16.691  0.00  0.00    +0.000 HD
BRANCH   7  11
ATOM     11  C   UNL     1       4.933   3.662  16.160  0.00  0.00    +0.000 C 
BRANCH  11  18
ATOM     12  C   UNL     1       6.274   3.816  13.239  0.00  0.00    +0.000 C 
ATOM     13  C   UNL     1       6.657   4.581  14.450  0.00  0.00    +0.000 A 
ATOM     14  N   UNL     1       7.647   5.474  14.384  0.00  0.00    +0.000 NA
ATOM     15  O   UNL     1       7.725   6.041  15.634  0.00  0.00    +0.000 OA
ATOM     16  C   UNL     1       6.787   5.489  16.451  0.00  0.00    +0.000 A 
ATOM     17  C   UNL     1       6.745   6.049  17.818  0.00  0.00    +0.000 C 
ATOM     18  C   UNL     1       6.082   4.525  15.757  0.00  0.00    +0.000 A 
ENDBRANCH  11  18
ENDBRANCH   7  11
ENDBRANCH   1   9
BRANCH   5  19
ATOM     19  C   UNL     1       1.469   8.592  20.121  0.00  0.00    +0.000 C 
ATOM     20  O   UNL     1       1.335   9.098  21.231  0.00  0.00    +0.000 OA
ATOM     21  N   UNL     1       1.274   9.215  18.903  0.00  0.00    +0.000 N 
ATOM     22  H   UNL     1       1.250   8.624  18.082  0.00  0.00    +0.000 HD
BRANCH  21  23
ATOM     23  C   UNL     1       0.905  10.563  18.711  0.00  0.00    +0.000 A 
ATOM     24  C   UNL     1       1.829  11.611  18.623  0.00  0.00    +0.000 A 
ATOM     25  C   UNL     1       1.393  12.931  18.480  0.00  0.00    +0.000 A 
ATOM     26  C   UNL     1       0.034  13.201  18.420  0.00  0.00    +0.000 A 
ATOM     27  F   UNL     1      -0.384  14.468  18.303  0.00  0.00    +0.000 F 
ATOM     28  C   UNL     1      -0.899  12.174  18.481  0.00  0.00    +0.000 A 
ATOM     29  C   UNL     1      -0.463  10.853  18.615  0.00  0.00    +0.000 A 
ENDBRANCH  21  23
ENDBRANCH   5  19
TORSDOF 5
ENDMDL
MODEL 5
REMARK VINA RESULT:      -8.5      0.455      1.574
REMARK  Name = 
REMARK  7 active torsions:
REMARK  status: ('A' for Active; 'I' for Inactive)
REMARK    1  A    between atoms: C_1  and  C_2
REMARK    2  A    between atoms: C_5  and  C_6
REMARK    3  A    between atoms: C_7  and  C_8
REMARK    4  A    between atoms: C_8  and  C_9
REMARK    5  A    between atoms: N_11  and  C_12
REMARK    6  A    between atoms: C_16  and  C_17
REMARK    7  A    between atoms: N_19  and  C_20
REMARK                            x       y       z     vdW  Elec       q    Type
REMARK                         _______ _______ _______ _____ _____    ______ ____
ROOT
ATOM      1  C   UNL     1       3.501   3.905  19.373  0.00  0.00    +0.000 A 
ATOM      2  C   UNL     1       2.768   2.974  20.114  0.00  0.00    +0.000 A 
ATOM      3  C   UNL     1       1.723   3.394  20.945  0.00  0.00    +0.000 A 
ATOM      4  C   UNL     1       1.392   4.746  21.024  0.00  0.00    +0.000 A 
ATOM      5  C   UNL     1       2.143   5.680  20.300  0.00  0.00    +0.000 A 
ATOM      6  C   UNL     1       3.217   5.259  19.503  0.00  0.00    +0.000 A 
ENDROOT
BRANCH   1   9
ATOM      7  C   UNL     1       4.250   3.361  17.107  0.00  0.00    +0.000 C 
ATOM      8  O   UNL     1       3.164   3.565  16.569  0.00  0.00    +0.000 OA
ATOM      9  N   UNL     1       4.507   3.519  18.463  0.00  0.00    +0.000 N 
ATOM     10  H   UNL     1       5.463   3.751  18.708  0.00  0.00    +0.000 HD
BRANCH   7  11
ATOM     11  C   UNL     1       5.443   2.898  16.295  0.00  0.00    +0.000 C 
BRANCH  11  18
ATOM     12  C   UNL     1       7.428   5.081  17.578  0.00  0.00    +0.000 C 
ATOM     13  C   UNL     1       7.072   4.914  16.148  0.00  0.00    +0.000 A 
ATOM     14  N   UNL     1       7.623   5.712  15.231  0.00  0.00    +0.000 NA
ATOM     15  O   UNL     1       7.137   5.280  14.018  0.00  0.00    +0.000 OA
ATOM     16  C   UNL     1       6.294   4.228  14.206  0.00  0.00    +0.000 A 
ATOM     17  C   UNL     1       5.736   3.649  12.967  0.00  0.00    +0.000 C 
ATOM     18  C   UNL     1       6.189   3.958  15.557  0.00  0.00    +0.000 A 
ENDBRANCH  11  18
ENDBRANCH   7  11
ENDBRANCH   1   9
BRANCH   5  19
ATOM     19  C   UNL     1       1.778   7.123  20.253  0.00  0.00    +0.000 C 
ATOM     20  O   UNL     1       2.255   7.801  19.348  0.00  0.00    +0.000 OA
ATOM     21  N   UNL     1       0.974   7.572  21.282  0.00  0.00    +0.000 N 
ATOM     22  H   UNL     1       0.804   6.933  22.048  0.00  0.00    +0.000 HD
BRANCH  21  23
ATOM     23  C   UNL     1       0.528   8.898  21.469  0.00  0.00    +0.000 A 
ATOM     24  C   UNL     1       0.818   9.942  20.583  0.00  0.00    +0.000 A 
ATOM     25  C   UNL     1       0.386  11.243  20.854  0.00  0.00    +0.000 A 
ATOM     26  C   UNL     1      -0.340  11.497  22.008  0.00  0.00    +0.000 A 
ATOM     27  F   UNL     1      -0.736  12.748  22.278  0.00  0.00    +0.000 F 
ATOM     28  C   UNL     1      -0.658  10.472  22.889  0.00  0.00    +0.000 A 
ATOM     29  C   UNL     1      -0.234   9.169  22.613  0.00  0.00    +0.000 A 
ENDBRANCH  21  23
ENDBRANCH   5  19
TORSDOF 5
ENDMDL
MODEL 6
REMARK VINA RESULT:      -8.4      1.249      1.617
REMARK  Name = 
REMARK  7 active torsions:
REMARK  status: ('A' for Active; 'I' for Inactive)
REMARK    1  A    between atoms: C_1  and  C_2
REMARK    2  A    between atoms: C_5  and  C_6
REMARK    3  A    between atoms: C_7  and  C_8
REMARK    4  A    between atoms: C_8  and  C_9
REMARK    5  A    between atoms: N_11  and  C_12
REMARK    6  A    between atoms: C_16  and  C_17
REMARK    7  A    between atoms: N_19  and  C_20
REMARK                            x       y       z     vdW  Elec       q    Type
REMARK                         _______ _______ _______ _____ _____    ______ ____
ROOT
ATOM      1  C   UNL     1       3.618   4.924  19.198  0.00  0.00    +0.000 A 
ATOM      2  C   UNL     1       2.961   4.160  20.165  0.00  0.00    +0.000 A 
ATOM      3  C   UNL     1       1.926   4.716  20.926  0.00  0.00    +0.000 A 
ATOM      4  C   UNL     1       1.529   6.035  20.710  0.00  0.00    +0.000 A 
ATOM      5  C   UNL     1       2.205   6.807  19.756  0.00  0.00    +0.000 A 
ATOM      6  C   UNL     1       3.270   6.258  19.028  0.00  0.00    +0.000 A 
ENDROOT
BRANCH   1   9
ATOM      7  C   UNL     1       4.292   3.757  17.153  0.00  0.00    +0.000 C 
ATOM      8  O   UNL     1       3.155   3.645  16.700  0.00  0.00    +0.000 OA
ATOM      9  N   UNL     1       4.609   4.381  18.353  0.00  0.00    +0.000 N 
ATOM     10  H   UNL     1       5.535   4.792  18.407  0.00  0.00    +0.000 HD
BRANCH   7  11
ATOM     11  C   UNL     1       5.484   3.196  16.406  0.00  0.00    +0.000 C 
BRANCH  11  18
ATOM     12  C   UNL     1       5.958   3.631  13.253  0.00  0.00    +0.000 C 
ATOM     13  C   UNL     1       6.587   4.374  14.372  0.00  0.00    +0.000 A 
ATOM     14  N   UNL     1       7.438   5.369  14.111  0.00  0.00    +0.000 NA
ATOM     15  O   UNL     1       7.802   5.881  15.335  0.00  0.00    +0.000 OA
ATOM     16  C   UNL     1       7.176   5.194  16.328  0.00  0.00    +0.000 A 
ATOM     17  C   UNL     1       7.458   5.680  17.695  0.00  0.00    +0.000 C 
ATOM     18  C   UNL     1       6.397   4.195  15.777  0.00  0.00    +0.000 A 
ENDBRANCH  11  18
ENDBRANCH   7  11
ENDBRANCH   1   9
BRANCH   5  19
ATOM     19  C   UNL     1       1.765   8.183  19.399  0.00  0.00    +0.000 C 
ATOM     20  O   UNL     1       2.251   8.692  18.393  0.00  0.00    +0.000 OA
ATOM     21  N   UNL     1       0.884   8.780  20.279  0.00  0.00    +0.000 N 
ATOM     22  H   UNL     1       0.709   8.300  21.153  0.00  0.00    +0.000 HD
BRANCH  21  23
ATOM     23  C   UNL     1       0.357  10.085  20.170  0.00  0.00    +0.000 A 
ATOM     24  C   UNL     1       0.727  11.139  21.013  0.00  0.00    +0.000 A 
ATOM     25  C   UNL     1       0.130  12.395  20.881  0.00  0.00    +0.000 A 
ATOM     26  C   UNL     1      -0.832  12.597  19.902  0.00  0.00    +0.000 A 
ATOM     27  F   UNL     1      -1.418  13.796  19.789  0.00  0.00    +0.000 F 
ATOM     28  C   UNL     1      -1.196  11.572  19.039  0.00  0.00    +0.000 A 
ATOM     29  C   UNL     1      -0.592  10.317  19.166  0.00  0.00    +0.000 A 
ENDBRANCH  21  23
ENDBRANCH   5  19
TORSDOF 5
ENDMDL
MODEL 7
REMARK VINA RESULT:      -8.3      1.745      2.002
REMARK  Name = 
REMARK  7 active torsions:
REMARK  status: ('A' for Active; 'I' for Inactive)
REMARK    1  A    between atoms: C_1  and  C_2
REMARK    2  A    between atoms: C_5  and  C_6
REMARK    3  A    between atoms: C_7  and  C_8
REMARK    4  A    between atoms: C_8  and  C_9
REMARK    5  A    between atoms: N_11  and  C_12
REMARK    6  A    between atoms: C_16  and  C_17
REMARK    7  A    between atoms: N_19  and  C_20
REMARK                            x       y       z     vdW  Elec       q    Type
REMARK                         _______ _______ _______ _____ _____    ______ ____
ROOT
ATOM      1  C   UNL     1       3.316   4.326  19.319  0.00  0.00    +0.000 A 
ATOM      2  C   UNL     1       2.412   3.426  19.888  0.00  0.00    +0.000 A 
ATOM      3  C   UNL     1       1.314   3.892  20.621  0.00  0.00    +0.000 A 
ATOM      4  C   UNL     1       1.104   5.262  20.771  0.00  0.00    +0.000 A 
ATOM      5  C   UNL     1       2.025   6.163  20.220  0.00  0.00    +0.000 A 
ATOM      6  C   UNL     1       3.147   5.689  19.525  0.00  0.00    +0.000 A 
ENDROOT
BRANCH   1   9
ATOM      7  C   UNL     1       4.239   3.693  17.141  0.00  0.00    +0.000 C 
ATOM      8  O   UNL     1       3.198   3.877  16.512  0.00  0.00    +0.000 OA
ATOM      9  N   UNL     1       4.389   3.903  18.505  0.00  0.00    +0.000 N 
ATOM     10  H   UNL     1       5.324   4.144  18.815  0.00  0.00    +0.000 HD
BRANCH   7  11
ATOM     11  C   UNL     1       5.489   3.196  16.443  0.00  0.00    +0.000 C 
BRANCH  11  18
ATOM     12  C   UNL     1       6.102   3.690  13.323  0.00  0.00    +0.000 C 
ATOM     13  C   UNL     1       6.636   4.449  14.479  0.00  0.00    +0.000 A 
ATOM     14  N   UNL     1       7.451   5.486  14.272  0.00  0.00    +0.000 NA
ATOM     15  O   UNL     1       7.728   6.000  15.517  0.00  0.00    +0.000 OA
ATOM     16  C   UNL     1       7.085   5.272  16.471  0.00  0.00    +0.000 A 
ATOM     17  C   UNL     1       7.274   5.755  17.855  0.00  0.00    +0.000 C 
ATOM     18  C   UNL     1       6.384   4.244  15.871  0.00  0.00    +0.000 A 
ENDBRANCH  11  18
ENDBRANCH   7  11
ENDBRANCH   1   9
BRANCH   5  19
ATOM     19  C   UNL     1       1.805   7.635  20.249  0.00  0.00    +0.000 C 
ATOM     20  O   UNL     1       1.749   8.179  21.348  0.00  0.00    +0.000 OA
ATOM     21  N   UNL     1       1.625   8.239  19.021  0.00  0.00    +0.000 N 
ATOM     22  H   UNL     1       1.526   7.632  18.218  0.00  0.00    +0.000 HD
BRANCH  21  23
ATOM     23  C   UNL     1       1.368   9.609  18.800  0.00  0.00    +0.000 A 
ATOM     24  C   UNL     1       2.317  10.500  18.286  0.00  0.00    +0.000 A 
ATOM     25  C   UNL     1       2.012  11.855  18.138  0.00  0.00    +0.000 A 
ATOM     26  C   UNL     1       0.754  12.317  18.499  0.00  0.00    +0.000 A 
ATOM     27  F   UNL     1       0.468  13.619  18.375  0.00  0.00    +0.000 F 
ATOM     28  C   UNL     1      -0.210  11.446  18.988  0.00  0.00    +0.000 A 
ATOM     29  C   UNL     1       0.093  10.089  19.128  0.00  0.00    +0.000 A 
ENDBRANCH  21  23
ENDBRANCH   5  19
TORSDOF 5
ENDMDL
MODEL 8
REMARK VINA RESULT:      -8.2      0.470      1.006
REMARK  Name = 
REMARK  7 active torsions:
REMARK  status: ('A' for Active; 'I' for Inactive)
REMARK    1  A    between atoms: C_1  and  C_2
REMARK    2  A    between atoms: C_5  and  C_6
REMARK    3  A    between atoms: C_7  and  C_8
REMARK    4  A    between atoms: C_8  and  C_9
REMARK    5  A    between atoms: N_11  and  C_12
REMARK    6  A    between atoms: C_16  and  C_17
REMARK    7  A    between atoms: N_19  and  C_20
REMARK                            x       y       z     vdW  Elec       q    Type
REMARK                         _______ _______ _______ _____ _____    ______ ____
ROOT
ATOM      1  C   UNL     1       3.254   3.588  19.217  0.00  0.00    +0.000 A 
ATOM      2  C   UNL     1       2.444   2.645  19.856  0.00  0.00    +0.000 A 
ATOM      3  C   UNL     1       1.402   3.057  20.695  0.00  0.00    +0.000 A 
ATOM      4  C   UNL     1       1.151   4.415  20.884  0.00  0.00    +0.000 A 
ATOM      5  C   UNL     1       1.979   5.359  20.262  0.00  0.00    +0.000 A 
ATOM      6  C   UNL     1       3.049   4.940  19.458  0.00  0.00    +0.000 A 
ENDROOT
BRANCH   1   9
ATOM      7  C   UNL     1       4.478   3.922  17.123  0.00  0.00    +0.000 C 
ATOM      8  O   UNL     1       3.856   4.925  16.780  0.00  0.00    +0.000 OA
ATOM      9  N   UNL     1       4.262   3.219  18.301  0.00  0.00    +0.000 N 
ATOM     10  H   UNL     1       5.065   2.724  18.675  0.00  0.00    +0.000 HD
BRANCH   7  11
ATOM     11  C   UNL     1       5.572   3.349  16.245  0.00  0.00    +0.000 C 
BRANCH  11  18
ATOM     12  C   UNL     1       6.250   3.528  13.104  0.00  0.00    +0.000 C 
ATOM     13  C   UNL     1       6.756   4.403  14.189  0.00  0.00    +0.000 A 
ATOM     14  N   UNL     1       7.571   5.419  13.894  0.00  0.00    +0.000 NA
ATOM     15  O   UNL     1       7.819   6.058  15.087  0.00  0.00    +0.000 OA
ATOM     16  C   UNL     1       7.159   5.427  16.095  0.00  0.00    +0.000 A 
ATOM     17  C   UNL     1       7.316   6.049  17.427  0.00  0.00    +0.000 C 
ATOM     18  C   UNL     1       6.475   4.339  15.589  0.00  0.00    +0.000 A 
ENDBRANCH  11  18
ENDBRANCH   7  11
ENDBRANCH   1   9
BRANCH   5  19
ATOM     19  C   UNL     1       1.703   6.820  20.333  0.00  0.00    +0.000 C 
ATOM     20  O   UNL     1       2.396   7.563  19.644  0.00  0.00    +0.000 OA
ATOM     21  N   UNL     1       0.721   7.203  21.225  0.00  0.00    +0.000 N 
ATOM     22  H   UNL     1       0.360   6.491  21.848  0.00  0.00    +0.000 HD
BRANCH  21  23
ATOM     23  C   UNL     1       0.311   8.527  21.490  0.00  0.00    +0.000 A 
ATOM     24  C   UNL     1       0.016   9.002  22.773  0.00  0.00    +0.000 A 
ATOM     25  C   UNL     1      -0.431  10.312  22.960  0.00  0.00    +0.000 A 
ATOM     26  C   UNL     1      -0.578  11.148  21.863  0.00  0.00    +0.000 A 
ATOM     27  F   UNL     1      -1.026  12.398  22.039  0.00  0.00    +0.000 F 
ATOM     28  C   UNL     1      -0.268  10.705  20.584  0.00  0.00    +0.000 A 
ATOM     29  C   UNL     1       0.189   9.397  20.398  0.00  0.00    +0.000 A 
ENDBRANCH  21  23
ENDBRANCH   5  19
TORSDOF 5
ENDMDL
MODEL 9
REMARK VINA RESULT:      -8.2      2.817      5.443
REMARK  Name = 
REMARK  7 active torsions:
REMARK  status: ('A' for Active; 'I' for Inactive)
REMARK    1  A    between atoms: C_1  and  C_2
REMARK    2  A    between atoms: C_5  and  C_6
REMARK    3  A    between atoms: C_7  and  C_8
REMARK    4  A    between atoms: C_8  and  C_9
REMARK    5  A    between atoms: N_11  and  C_12
REMARK    6  A    between atoms: C_16  and  C_17
REMARK    7  A    between atoms: N_19  and  C_20
REMARK                            x       y       z     vdW  Elec       q    Type
REMARK                         _______ _______ _______ _____ _____    ______ ____
ROOT
ATOM      1  C   UNL     1       1.563   8.379  20.053  0.00  0.00    +0.000 A 
ATOM      2  C   UNL     1       1.504   8.955  18.781  0.00  0.00    +0.000 A 
ATOM      3  C   UNL     1       0.810  10.154  18.577  0.00  0.00    +0.000 A 
ATOM      4  C   UNL     1       0.187  10.793  19.648  0.00  0.00    +0.000 A 
ATOM      5  C   UNL     1       0.226  10.202  20.917  0.00  0.00    +0.000 A 
ATOM      6  C   UNL     1       0.886   8.979  21.107  0.00  0.00    +0.000 A 
ENDROOT
BRANCH   1   9
ATOM      7  C   UNL     1       2.677   6.328  19.315  0.00  0.00    +0.000 C 
ATOM      8  O   UNL     1       2.411   6.469  18.123  0.00  0.00    +0.000 OA
ATOM      9  N   UNL     1       2.318   7.217  20.319  0.00  0.00    +0.000 N 
ATOM     10  H   UNL     1       2.929   7.242  21.128  0.00  0.00    +0.000 HD
BRANCH   7  11
ATOM     11  C   UNL     1       3.447   5.116  19.800  0.00  0.00    +0.000 C 
BRANCH  11  18
ATOM     12  C   UNL     1       4.282   3.572  17.102  0.00  0.00    +0.000 C 
ATOM     13  C   UNL     1       3.330   3.118  18.145  0.00  0.00    +0.000 A 
ATOM     14  N   UNL     1       2.735   1.929  18.026  0.00  0.00    +0.000 NA
ATOM     15  O   UNL     1       1.965   1.781  19.157  0.00  0.00    +0.000 OA
ATOM     16  C   UNL     1       2.093   2.879  19.950  0.00  0.00    +0.000 A 
ATOM     17  C   UNL     1       1.340   2.820  21.220  0.00  0.00    +0.000 C 
ATOM     18  C   UNL     1       2.939   3.788  19.346  0.00  0.00    +0.000 A 
ENDBRANCH  11  18
ENDBRANCH   7  11
ENDBRANCH   1   9
BRANCH   5  19
ATOM     19  C   UNL     1      -0.322  10.881  22.123  0.00  0.00    +0.000 C 
ATOM     20  O   UNL     1      -0.073  10.384  23.218  0.00  0.00    +0.000 OA
ATOM     21  N   UNL     1      -1.117  11.984  21.881  0.00  0.00    +0.000 N 
ATOM     22  H   UNL     1      -1.371  12.168  20.919  0.00  0.00    +0.000 HD
BRANCH  21  23
ATOM     23  C   UNL     1      -1.772  12.765  22.857  0.00  0.00    +0.000 A 
ATOM     24  C   UNL     1      -3.048  12.472  23.351  0.00  0.00    +0.000 A 
ATOM     25  C   UNL     1      -3.659  13.316  24.282  0.00  0.00    +0.000 A 
ATOM     26  C   UNL     1      -2.991  14.449  24.722  0.00  0.00    +0.000 A 
ATOM     27  F   UNL     1      -3.585  15.268  25.600  0.00  0.00    +0.000 F 
ATOM     28  C   UNL     1      -1.714  14.745  24.263  0.00  0.00    +0.000 A 
ATOM     29  C   UNL     1      -1.099  13.896  23.339  0.00  0.00    +0.000 A 
ENDBRANCH  21  23
ENDBRANCH   5  19
TORSDOF 5
ENDMDL
