MODEL 1
REMARK VINA RESULT:      -8.3      0.000      0.000
REMARK  Name = 
REMARK  9 active torsions:
REMARK  status: ('A' for Active; 'I' for Inactive)
REMARK    1  A    between atoms: C_1  and  N_2
REMARK    2  A    between atoms: C_6  and  C_7
REMARK    3  A    between atoms: C_7  and  C_8
REMARK    4  A    between atoms: C_8  and  C_9
REMARK    5  A    between atoms: C_9  and  C_10
REMARK    6  A    between atoms: C_14  and  N_15
REMARK    7  A    between atoms: C_20  and  C_21
REMARK    8  A    between atoms: C_21  and  N_22
REMARK    9  A    between atoms: C_24  and  C_25
REMARK                            x       y       z     vdW  Elec       q    Type
REMARK                         _______ _______ _______ _____ _____    ______ ____
ROOT
ATOM      1  N   UNL     1       6.066   5.332  15.550  0.00  0.00    +0.000 N 
ATOM      2  C   UNL     1       4.877   6.194  15.772  0.00  0.00    +0.000 C 
ATOM      3  C   UNL     1       4.113   5.412  16.796  0.00  0.00    +0.000 A 
ATOM      4  C   UNL     1       4.442   4.066  16.620  0.00  0.00    +0.000 A 
ATOM      5  C   UNL     1       4.034   3.066  17.483  0.00  0.00    +0.000 A 
ATOM      6  C   UNL     1       3.270   3.440  18.595  0.00  0.00    +0.000 A 
ATOM      7  C   UNL     1       2.948   4.808  18.789  0.00  0.00    +0.000 A 
ATOM      8  C   UNL     1       3.370   5.820  17.899  0.00  0.00    +0.000 A 
ATOM      9  C   UNL     1       5.592   4.001  15.692  0.00  0.00    +0.000 C 
ATOM     10  O   UNL     1       6.126   2.968  15.328  0.00  0.00    +0.000 OA
ENDROOT
BRANCH   1  15
ATOM     11  C   UNL     1       7.749   7.621  17.817  0.00  0.00    +0.000 A 
ATOM     12  C   UNL     1       7.851   6.778  18.929  0.00  0.00    +0.000 A 
ATOM     13  C   UNL     1       7.772   5.399  18.772  0.00  0.00    +0.000 A 
ATOM     14  C   UNL     1       7.482   4.860  17.523  0.00  0.00    +0.000 A 
ATOM     15  C   UNL     1       7.133   5.716  16.466  0.00  0.00    +0.000 A 
ATOM     16  C   UNL     1       7.429   7.077  16.570  0.00  0.00    +0.000 A 
BRANCH  11  17
ATOM     17  C   UNL     1       7.943   9.106  17.965  0.00  0.00    +0.000 C 
BRANCH  17  18
ATOM     18  C   UNL     1       9.147   9.427  18.860  0.00  0.00    +0.000 C 
BRANCH  18  19
ATOM     19  C   UNL     1       9.127  10.825  19.489  0.00  0.00    +0.000 C 
BRANCH  19  25
ATOM     20  C   UNL     1       8.735  13.934  19.625  0.00  0.00    +0.000 C 
ATOM     21  N   UNL     1       9.580  13.215  18.707  0.00  0.00    +0.000 N 
ATOM     22  C   UNL     1      10.379  13.766  17.752  0.00  0.00    +0.000 A 
ATOM     23  N   UNL     1      11.010  12.810  17.111  0.00  0.00    +0.000 NA
ATOM     24  N   UNL     1      10.626  11.615  17.648  0.00  0.00    +0.000 NA
ATOM     25  C   UNL     1       9.776  11.862  18.628  0.00  0.00    +0.000 A 
ENDBRANCH  19  25
ENDBRANCH  18  19
ENDBRANCH  17  18
ENDBRANCH  11  17
ENDBRANCH   1  15
BRANCH   8  26
ATOM     26  C   UNL     1       3.103   7.264  18.244  0.00  0.00    +0.000 C 
ATOM     27  F   UNL     1       2.765   7.473  19.546  0.00  0.00    +0.000 F 
ATOM     28  F   UNL     1       4.187   8.056  18.019  0.00  0.00    +0.000 F 
ATOM     29  F   UNL     1       2.085   7.795  17.508  0.00  0.00    +0.000 F 
ENDBRANCH   8  26
BRANCH   6  30
ATOM     30  C   UNL     1       2.842   2.404  19.606  0.00  0.00    +0.000 C 
BRANCH  30  31
ATOM     31  N   UNL     1       1.491   2.651  20.096  0.00  0.00    +0.000 NA
ATOM     32  H   UNL     1       1.147   3.527  19.698  0.00  0.00    +0.000 HD
ATOM     33  H   UNL     1       1.523   2.793  21.101  0.00  0.00    +0.000 HD
ENDBRANCH  30  31
ENDBRANCH   6  30
TORSDOF 8
ENDMDL
MODEL 2
REMARK VINA RESULT:      -8.2      1.021      1.586
REMARK  Name = 
REMARK  9 active torsions:
REMARK  status: ('A' for Active; 'I' for Inactive)
REMARK    1  A    between atoms: C_1  and  N_2
REMARK    2  A    between atoms: C_6  and  C_7
REMARK    3  A    between atoms: C_7  and  C_8
REMARK    4  A    between atoms: C_8  and  C_9
REMARK    5  A    between atoms: C_9  and  C_10
REMARK    6  A    between atoms: C_14  and  N_15
REMARK    7  A    between atoms: C_20  and  C_21
REMARK    8  A    between atoms: C_21  and  N_22
REMARK    9  A    between atoms: C_24  and  C_25
REMARK                            x       y       z     vdW  Elec       q    Type
REMARK                         _______ _______ _______ _____ _____    ______ ____
ROOT
ATOM      1  N   UNL     1       6.022   5.254  15.564  0.00  0.00    +0.000 N 
ATOM      2  C   UNL     1       4.842   6.133  15.770  0.00  0.00    +0.000 C 
ATOM      3  C   UNL     1       4.089   5.398  16.837  0.00  0.00    +0.000 A 
ATOM      4  C   UNL     1       4.407   4.043  16.709  0.00  0.00    +0.000 A 
ATOM      5  C   UNL     1       4.006   3.081  17.618  0.00  0.00    +0.000 A 
ATOM      6  C   UNL     1       3.262   3.505  18.726  0.00  0.00    +0.000 A 
ATOM      7  C   UNL     1       2.953   4.882  18.870  0.00  0.00    +0.000 A 
ATOM      8  C   UNL     1       3.368   5.855  17.934  0.00  0.00    +0.000 A 
ATOM      9  C   UNL     1       5.542   3.933  15.766  0.00  0.00    +0.000 C 
ATOM     10  O   UNL     1       6.062   2.883  15.435  0.00  0.00    +0.000 OA
ENDROOT
BRANCH   1  15
ATOM     11  C   UNL     1       7.734   7.602  17.747  0.00  0.00    +0.000 A 
ATOM     12  C   UNL     1       7.871   6.782  18.872  0.00  0.00    +0.000 A 
ATOM     13  C   UNL     1       7.802   5.399  18.743  0.00  0.00    +0.000 A 
ATOM     14  C   UNL     1       7.489   4.833  17.511  0.00  0.00    +0.000 A 
ATOM     15  C   UNL     1       7.107   5.665  16.447  0.00  0.00    +0.000 A 
ATOM     16  C   UNL     1       7.391   7.032  16.518  0.00  0.00    +0.000 A 
BRANCH  11  17
ATOM     17  C   UNL     1       7.916   9.092  17.862  0.00  0.00    +0.000 C 
BRANCH  17  18
ATOM     18  C   UNL     1       8.959   9.447  18.929  0.00  0.00    +0.000 C 
BRANCH  18  19
ATOM     19  C   UNL     1       9.676  10.784  18.708  0.00  0.00    +0.000 C 
BRANCH  19  25
ATOM     20  C   UNL     1      10.945  13.636  19.013  0.00  0.00    +0.000 C 
ATOM     21  N   UNL     1      10.258  12.890  20.035  0.00  0.00    +0.000 N 
ATOM     22  C   UNL     1      10.017  13.306  21.308  0.00  0.00    +0.000 A 
ATOM     23  N   UNL     1       9.360  12.370  21.953  0.00  0.00    +0.000 NA
ATOM     24  N   UNL     1       9.164  11.325  21.097  0.00  0.00    +0.000 NA
ATOM     25  C   UNL     1       9.690  11.648  19.930  0.00  0.00    +0.000 A 
ENDBRANCH  19  25
ENDBRANCH  18  19
ENDBRANCH  17  18
ENDBRANCH  11  17
ENDBRANCH   1  15
BRANCH   8  26
ATOM     26  C   UNL     1       3.116   7.313  18.226  0.00  0.00    +0.000 C 
ATOM     27  F   UNL     1       4.198   8.116  18.032  0.00  0.00    +0.000 F 
ATOM     28  F   UNL     1       2.133   7.833  17.442  0.00  0.00    +0.000 F 
ATOM     29  F   UNL     1       2.726   7.525  19.516  0.00  0.00    +0.000 F 
ENDBRANCH   8  26
BRANCH   6  30
ATOM     30  C   UNL     1       2.844   2.513  19.784  0.00  0.00    +0.000 C 
BRANCH  30  31
ATOM     31  N   UNL     1       1.518   2.812  20.312  0.00  0.00    +0.000 NA
ATOM     32  H   UNL     1       1.516   3.759  20.693  0.00  0.00    +0.000 HD
ATOM     33  H   UNL     1       1.324   2.193  21.094  0.00  0.00    +0.000 HD
ENDBRANCH  30  31
ENDBRANCH   6  30
TORSDOF 8
ENDMDL
MODEL 3
REMARK VINA RESULT:      -8.2      4.805      7.458
REMARK  Name = 
REMARK  9 active torsions:
REMARK  status: ('A' for Active; 'I' for Inactive)
REMARK    1  A    between atoms: C_1  and  N_2
REMARK    2  A    between atoms: C_6  and  C_7
REMARK    3  A    between atoms: C_7  and  C_8
REMARK    4  A    between atoms: C_8  and  C_9
REMARK    5  A    between atoms: C_9  and  C_10
REMARK    6  A    between atoms: C_14  and  N_15
REMARK    7  A    between atoms: C_20  and  C_21
REMARK    8  A    between atoms: C_21  and  N_22
REMARK    9  A    between atoms: C_24  and  C_25
REMARK                            x       y       z     vdW  Elec       q    Type
REMARK                         _______ _______ _______ _____ _____    ______ ____
ROOT
ATOM      1  N   UNL     1       2.616   7.375  19.413  0.00  0.00    +0.000 N 
ATOM      2  C   UNL     1       2.282   8.193  20.607  0.00  0.00    +0.000 C 
ATOM      3  C   UNL     1       1.168   9.053  20.093  0.00  0.00    +0.000 A 
ATOM      4  C   UNL     1       1.357   9.195  18.716  0.00  0.00    +0.000 A 
ATOM      5  C   UNL     1       0.438   9.808  17.884  0.00  0.00    +0.000 A 
ATOM      6  C   UNL     1      -0.744  10.286  18.462  0.00  0.00    +0.000 A 
ATOM      7  C   UNL     1      -0.948  10.128  19.857  0.00  0.00    +0.000 A 
ATOM      8  C   UNL     1      -0.001   9.502  20.697  0.00  0.00    +0.000 A 
ATOM      9  C   UNL     1       2.402   8.234  18.303  0.00  0.00    +0.000 C 
ATOM     10  O   UNL     1       2.805   8.103  17.160  0.00  0.00    +0.000 OA
ENDROOT
BRANCH   1  15
ATOM     11  C   UNL     1       1.983   3.908  18.529  0.00  0.00    +0.000 A 
ATOM     12  C   UNL     1       1.752   3.402  19.813  0.00  0.00    +0.000 A 
ATOM     13  C   UNL     1       1.386   4.257  20.847  0.00  0.00    +0.000 A 
ATOM     14  C   UNL     1       1.354   5.631  20.631  0.00  0.00    +0.000 A 
ATOM     15  C   UNL     1       1.828   6.149  19.415  0.00  0.00    +0.000 A 
ATOM     16  C   UNL     1       1.978   5.290  18.324  0.00  0.00    +0.000 A 
BRANCH  11  17
ATOM     17  C   UNL     1       2.273   2.976  17.383  0.00  0.00    +0.000 C 
BRANCH  17  18
ATOM     18  C   UNL     1       3.774   2.913  17.079  0.00  0.00    +0.000 C 
BRANCH  18  19
ATOM     19  C   UNL     1       4.370   4.205  16.506  0.00  0.00    +0.000 C 
BRANCH  19  25
ATOM     20  C   UNL     1       5.504   5.148  19.274  0.00  0.00    +0.000 C 
ATOM     21  N   UNL     1       6.270   4.823  18.099  0.00  0.00    +0.000 N 
ATOM     22  C   UNL     1       7.627   4.843  17.995  0.00  0.00    +0.000 A 
ATOM     23  N   UNL     1       7.974   4.480  16.782  0.00  0.00    +0.000 NA
ATOM     24  N   UNL     1       6.835   4.216  16.077  0.00  0.00    +0.000 NA
ATOM     25  C   UNL     1       5.805   4.404  16.881  0.00  0.00    +0.000 A 
ENDBRANCH  19  25
ENDBRANCH  18  19
ENDBRANCH  17  18
ENDBRANCH  11  17
ENDBRANCH   1  15
BRANCH   8  26
ATOM     26  C   UNL     1      -0.350   9.251  22.143  0.00  0.00    +0.000 C 
ATOM     27  F   UNL     1       0.727   9.185  22.973  0.00  0.00    +0.000 F 
ATOM     28  F   UNL     1      -1.145  10.228  22.657  0.00  0.00    +0.000 F 
ATOM     29  F   UNL     1      -1.024   8.079  22.319  0.00  0.00    +0.000 F 
ENDBRANCH   8  26
BRANCH   6  30
ATOM     30  C   UNL     1      -1.812  10.913  17.599  0.00  0.00    +0.000 C 
BRANCH  30  31
ATOM     31  N   UNL     1      -1.558  12.331  17.368  0.00  0.00    +0.000 NA
ATOM     32  H   UNL     1      -2.141  12.652  16.594  0.00  0.00    +0.000 HD
ATOM     33  H   UNL     1      -0.596  12.451  17.065  0.00  0.00    +0.000 HD
ENDBRANCH  30  31
ENDBRANCH   6  30
TORSDOF 8
ENDMDL
MODEL 4
REMARK VINA RESULT:      -8.1      0.881      1.277
REMARK  Name = 
REMARK  9 active torsions:
REMARK  status: ('A' for Active; 'I' for Inactive)
REMARK    1  A    between atoms: C_1  and  N_2
REMARK    2  A    between atoms: C_6  and  C_7
REMARK    3  A    between atoms: C_7  and  C_8
REMARK    4  A    between atoms: C_8  and  C_9
REMARK    5  A    between atoms: C_9  and  C_10
REMARK    6  A    between atoms: C_14  and  N_15
REMARK    7  A    between atoms: C_20  and  C_21
REMARK    8  A    between atoms: C_21  and  N_22
REMARK    9  A    between atoms: C_24  and  C_25
REMARK                            x       y       z     vdW  Elec       q    Type
REMARK                         _______ _______ _______ _____ _____    ______ ____
ROOT
ATOM      1  N   UNL     1       6.021   5.280  15.647  0.00  0.00    +0.000 N 
ATOM      2  C   UNL     1       4.852   6.179  15.818  0.00  0.00    +0.000 C 
ATOM      3  C   UNL     1       4.083   5.485  16.901  0.00  0.00    +0.000 A 
ATOM      4  C   UNL     1       4.384   4.124  16.816  0.00  0.00    +0.000 A 
ATOM      5  C   UNL     1       3.965   3.194  17.751  0.00  0.00    +0.000 A 
ATOM      6  C   UNL     1       3.220   3.660  18.840  0.00  0.00    +0.000 A 
ATOM      7  C   UNL     1       2.927   5.045  18.941  0.00  0.00    +0.000 A 
ATOM      8  C   UNL     1       3.360   5.984  17.979  0.00  0.00    +0.000 A 
ATOM      9  C   UNL     1       5.523   3.971  15.885  0.00  0.00    +0.000 C 
ATOM     10  O   UNL     1       6.033   2.905  15.588  0.00  0.00    +0.000 OA
ENDROOT
BRANCH   1  15
ATOM     11  C   UNL     1       7.757   7.676  17.757  0.00  0.00    +0.000 A 
ATOM     12  C   UNL     1       7.868   6.897  18.913  0.00  0.00    +0.000 A 
ATOM     13  C   UNL     1       7.775   5.511  18.835  0.00  0.00    +0.000 A 
ATOM     14  C   UNL     1       7.462   4.905  17.623  0.00  0.00    +0.000 A 
ATOM     15  C   UNL     1       7.106   5.704  16.524  0.00  0.00    +0.000 A 
ATOM     16  C   UNL     1       7.415   7.066  16.547  0.00  0.00    +0.000 A 
BRANCH  11  17
ATOM     17  C   UNL     1       7.966   9.166  17.818  0.00  0.00    +0.000 C 
BRANCH  17  18
ATOM     18  C   UNL     1       8.943   9.548  18.937  0.00  0.00    +0.000 C 
BRANCH  18  19
ATOM     19  C   UNL     1       9.889  10.707  18.598  0.00  0.00    +0.000 C 
BRANCH  19  25
ATOM     20  C   UNL     1       9.833  12.466  21.194  0.00  0.00    +0.000 C 
ATOM     21  N   UNL     1       9.240  12.793  19.923  0.00  0.00    +0.000 N 
ATOM     22  C   UNL     1       8.572  13.939  19.621  0.00  0.00    +0.000 A 
ATOM     23  N   UNL     1       8.179  13.896  18.369  0.00  0.00    +0.000 NA
ATOM     24  N   UNL     1       8.593  12.707  17.838  0.00  0.00    +0.000 NA
ATOM     25  C   UNL     1       9.253  12.050  18.773  0.00  0.00    +0.000 A 
ENDBRANCH  19  25
ENDBRANCH  18  19
ENDBRANCH  17  18
ENDBRANCH  11  17
ENDBRANCH   1  15
BRANCH   8  26
ATOM     26  C   UNL     1       3.125   7.453  18.226  0.00  0.00    +0.000 C 
ATOM     27  F   UNL     1       2.198   8.016  17.403  0.00  0.00    +0.000 F 
ATOM     28  F   UNL     1       2.684   7.698  19.490  0.00  0.00    +0.000 F 
ATOM     29  F   UNL     1       4.259   8.194  18.068  0.00  0.00    +0.000 F 
ENDBRANCH   8  26
BRANCH   6  30
ATOM     30  C   UNL     1       2.782   2.705  19.924  0.00  0.00    +0.000 C 
BRANCH  30  31
ATOM     31  N   UNL     1       2.399   3.409  21.143  0.00  0.00    +0.000 NA
ATOM     32  H   UNL     1       3.240   3.632  21.678  0.00  0.00    +0.000 HD
ATOM     33  H   UNL     1       1.849   2.786  21.728  0.00  0.00    +0.000 HD
ENDBRANCH  30  31
ENDBRANCH   6  30
TORSDOF 8
ENDMDL
MODEL 5
REMARK VINA RESULT:      -8.1      4.369      7.197
REMARK  Name = 
REMARK  9 active torsions:
REMARK  status: ('A' for Active; 'I' for Inactive)
REMARK    1  A    between atoms: C_1  and  N_2
REMARK    2  A    between atoms: C_6  and  C_7
REMARK    3  A    between atoms: C_7  and  C_8
REMARK    4  A    between atoms: C_8  and  C_9
REMARK    5  A    between atoms: C_9  and  C_10
REMARK    6  A    between atoms: C_14  and  N_15
REMARK    7  A    between atoms: C_20  and  C_21
REMARK    8  A    between atoms: C_21  and  N_22
REMARK    9  A    between atoms: C_24  and  C_25
REMARK                            x       y       z     vdW  Elec       q    Type
REMARK                         _______ _______ _______ _____ _____    ______ ____
ROOT
ATOM      1  N   UNL     1       4.177   4.510  19.088  0.00  0.00    +0.000 N 
ATOM      2  C   UNL     1       5.510   5.139  19.270  0.00  0.00    +0.000 C 
ATOM      3  C   UNL     1       6.092   5.040  17.893  0.00  0.00    +0.000 A 
ATOM      4  C   UNL     1       5.506   3.932  17.275  0.00  0.00    +0.000 A 
ATOM      5  C   UNL     1       5.697   3.619  15.942  0.00  0.00    +0.000 A 
ATOM      6  C   UNL     1       6.506   4.474  15.183  0.00  0.00    +0.000 A 
ATOM      7  C   UNL     1       7.088   5.610  15.802  0.00  0.00    +0.000 A 
ATOM      8  C   UNL     1       6.886   5.919  17.165  0.00  0.00    +0.000 A 
ATOM      9  C   UNL     1       4.377   3.488  18.122  0.00  0.00    +0.000 C 
ATOM     10  O   UNL     1       3.655   2.541  17.866  0.00  0.00    +0.000 OA
ENDROOT
BRANCH   1  15
ATOM     11  C   UNL     1       2.147   7.454  19.736  0.00  0.00    +0.000 A 
ATOM     12  C   UNL     1       2.524   8.217  18.626  0.00  0.00    +0.000 A 
ATOM     13  C   UNL     1       3.068   7.601  17.504  0.00  0.00    +0.000 A 
ATOM     14  C   UNL     1       3.340   6.237  17.527  0.00  0.00    +0.000 A 
ATOM     15  C   UNL     1       3.194   5.525  18.728  0.00  0.00    +0.000 A 
ATOM     16  C   UNL     1       2.449   6.089  19.766  0.00  0.00    +0.000 A 
BRANCH  11  17
ATOM     17  C   UNL     1       1.458   8.100  20.908  0.00  0.00    +0.000 C 
BRANCH  17  18
ATOM     18  C   UNL     1       0.426   9.136  20.448  0.00  0.00    +0.000 C 
BRANCH  18  19
ATOM     19  C   UNL     1       0.734  10.580  20.863  0.00  0.00    +0.000 C 
BRANCH  19  25
ATOM     20  C   UNL     1      -1.526  12.599  20.056  0.00  0.00    +0.000 C 
ATOM     21  N   UNL     1      -1.290  12.056  21.368  0.00  0.00    +0.000 N 
ATOM     22  C   UNL     1      -2.027  12.306  22.484  0.00  0.00    +0.000 A 
ATOM     23  N   UNL     1      -1.527  11.633  23.494  0.00  0.00    +0.000 NA
ATOM     24  N   UNL     1      -0.448  10.929  23.040  0.00  0.00    +0.000 NA
ATOM     25  C   UNL     1      -0.318  11.170  21.749  0.00  0.00    +0.000 A 
ENDBRANCH  19  25
ENDBRANCH  18  19
ENDBRANCH  17  18
ENDBRANCH  11  17
ENDBRANCH   1  15
BRANCH   8  26
ATOM     26  C   UNL     1       7.428   7.215  17.715  0.00  0.00    +0.000 C 
ATOM     27  F   UNL     1       8.168   7.074  18.849  0.00  0.00    +0.000 F 
ATOM     28  F   UNL     1       8.240   7.850  16.827  0.00  0.00    +0.000 F 
ATOM     29  F   UNL     1       6.438   8.100  18.027  0.00  0.00    +0.000 F 
ENDBRANCH   8  26
BRANCH   6  30
ATOM     30  C   UNL     1       6.708   4.218  13.709  0.00  0.00    +0.000 C 
BRANCH  30  31
ATOM     31  N   UNL     1       7.539   5.244  13.091  0.00  0.00    +0.000 NA
ATOM     32  H   UNL     1       7.721   4.986  12.120  0.00  0.00    +0.000 HD
ATOM     33  H   UNL     1       8.444   5.262  13.552  0.00  0.00    +0.000 HD
ENDBRANCH  30  31
ENDBRANCH   6  30
TORSDOF 8
ENDMDL
MODEL 6
REMARK VINA RESULT:      -8.1      4.551      7.472
REMARK  Name = 
REMARK  9 active torsions:
REMARK  status: ('A' for Active; 'I' for Inactive)
REMARK    1  A    between atoms: C_1  and  N_2
REMARK    2  A    between atoms: C_6  and  C_7
REMARK    3  A    between atoms: C_7  and  C_8
REMARK    4  A    between atoms: C_8  and  C_9
REMARK    5  A    between atoms: C_9  and  C_10
REMARK    6  A    between atoms: C_14  and  N_15
REMARK    7  A    between atoms: C_20  and  C_21
REMARK    8  A    between atoms: C_21  and  N_22
REMARK    9  A    between atoms: C_24  and  C_25
REMARK                            x       y       z     vdW  Elec       q    Type
REMARK                         _______ _______ _______ _____ _____    ______ ____
ROOT
ATOM      1  N   UNL     1       2.504   7.715  19.339  0.00  0.00    +0.000 N 
ATOM      2  C   UNL     1       2.191   8.504  20.558  0.00  0.00    +0.000 C 
ATOM      3  C   UNL     1       0.992   9.289  20.121  0.00  0.00    +0.000 A 
ATOM      4  C   UNL     1       1.084   9.449  18.736  0.00  0.00    +0.000 A 
ATOM      5  C   UNL     1       0.076  10.001  17.968  0.00  0.00    +0.000 A 
ATOM      6  C   UNL     1      -1.097  10.397  18.623  0.00  0.00    +0.000 A 
ATOM      7  C   UNL     1      -1.202  10.220  20.026  0.00  0.00    +0.000 A 
ATOM      8  C   UNL     1      -0.164   9.655  20.800  0.00  0.00    +0.000 A 
ATOM      9  C   UNL     1       2.163   8.561  18.250  0.00  0.00    +0.000 C 
ATOM     10  O   UNL     1       2.502   8.462  17.084  0.00  0.00    +0.000 OA
ENDROOT
BRANCH   1  15
ATOM     11  C   UNL     1       2.086   4.198  18.525  0.00  0.00    +0.000 A 
ATOM     12  C   UNL     1       1.922   3.700  19.822  0.00  0.00    +0.000 A 
ATOM     13  C   UNL     1       1.523   4.546  20.851  0.00  0.00    +0.000 A 
ATOM     14  C   UNL     1       1.393   5.911  20.615  0.00  0.00    +0.000 A 
ATOM     15  C   UNL     1       1.801   6.439  19.380  0.00  0.00    +0.000 A 
ATOM     16  C   UNL     1       1.982   5.573  18.298  0.00  0.00    +0.000 A 
BRANCH  11  17
ATOM     17  C   UNL     1       2.410   3.268  17.386  0.00  0.00    +0.000 C 
BRANCH  17  18
ATOM     18  C   UNL     1       3.878   2.826  17.425  0.00  0.00    +0.000 C 
BRANCH  18  19
ATOM     19  C   UNL     1       4.868   3.831  16.823  0.00  0.00    +0.000 C 
BRANCH  19  25
ATOM     20  C   UNL     1       7.096   5.987  16.352  0.00  0.00    +0.000 C 
ATOM     21  N   UNL     1       6.709   5.416  17.616  0.00  0.00    +0.000 N 
ATOM     22  C   UNL     1       7.228   5.735  18.833  0.00  0.00    +0.000 A 
ATOM     23  N   UNL     1       6.630   5.023  19.759  0.00  0.00    +0.000 NA
ATOM     24  N   UNL     1       5.705   4.226  19.148  0.00  0.00    +0.000 NA
ATOM     25  C   UNL     1       5.739   4.480  17.853  0.00  0.00    +0.000 A 
ENDBRANCH  19  25
ENDBRANCH  18  19
ENDBRANCH  17  18
ENDBRANCH  11  17
ENDBRANCH   1  15
BRANCH   8  26
ATOM     26  C   UNL     1      -0.404   9.376  22.263  0.00  0.00    +0.000 C 
ATOM     27  F   UNL     1       0.718   9.426  23.032  0.00  0.00    +0.000 F 
ATOM     28  F   UNL     1      -1.267  10.268  22.822  0.00  0.00    +0.000 F 
ATOM     29  F   UNL     1      -0.943   8.142  22.474  0.00  0.00    +0.000 F 
ENDBRANCH   8  26
BRANCH   6  30
ATOM     30  C   UNL     1      -2.256  10.954  17.833  0.00  0.00    +0.000 C 
BRANCH  30  31
ATOM     31  N   UNL     1      -1.807  11.822  16.751  0.00  0.00    +0.000 NA
ATOM     32  H   UNL     1      -1.289  11.265  16.069  0.00  0.00    +0.000 HD
ATOM     33  H   UNL     1      -1.146  12.500  17.120  0.00  0.00    +0.000 HD
ENDBRANCH  30  31
ENDBRANCH   6  30
TORSDOF 8
ENDMDL
MODEL 7
REMARK VINA RESULT:      -8.0      4.043      6.521
REMARK  Name = 
REMARK  9 active torsions:
REMARK  status: ('A' for Active; 'I' for Inactive)
REMARK    1  A    between atoms: C_1  and  N_2
REMARK    2  A    between atoms: C_6  and  C_7
REMARK    3  A    between atoms: C_7  and  C_8
REMARK    4  A    between atoms: C_8  and  C_9
REMARK    5  A    between atoms: C_9  and  C_10
REMARK    6  A    between atoms: C_14  and  N_15
REMARK    7  A    between atoms: C_20  and  C_21
REMARK    8  A    between atoms: C_21  and  N_22
REMARK    9  A    between atoms: C_24  and  C_25
REMARK                            x       y       z     vdW  Elec       q    Type
REMARK                         _______ _______ _______ _____ _____    ______ ____
ROOT
ATOM      1  N   UNL     1       4.127   4.490  19.209  0.00  0.00    +0.000 N 
ATOM      2  C   UNL     1       5.466   5.125  19.296  0.00  0.00    +0.000 C 
ATOM      3  C   UNL     1       5.965   4.993  17.889  0.00  0.00    +0.000 A 
ATOM      4  C   UNL     1       5.346   3.870  17.334  0.00  0.00    +0.000 A 
ATOM      5  C   UNL     1       5.458   3.524  16.000  0.00  0.00    +0.000 A 
ATOM      6  C   UNL     1       6.218   4.360  15.174  0.00  0.00    +0.000 A 
ATOM      7  C   UNL     1       6.834   5.512  15.729  0.00  0.00    +0.000 A 
ATOM      8  C   UNL     1       6.712   5.854  17.094  0.00  0.00    +0.000 A 
ATOM      9  C   UNL     1       4.271   3.446  18.258  0.00  0.00    +0.000 C 
ATOM     10  O   UNL     1       3.537   2.492  18.069  0.00  0.00    +0.000 OA
ENDROOT
BRANCH   1  15
ATOM     11  C   UNL     1       1.841   7.195  20.026  0.00  0.00    +0.000 A 
ATOM     12  C   UNL     1       2.283   8.134  19.088  0.00  0.00    +0.000 A 
ATOM     13  C   UNL     1       2.987   7.722  17.962  0.00  0.00    +0.000 A 
ATOM     14  C   UNL     1       3.349   6.385  17.823  0.00  0.00    +0.000 A 
ATOM     15  C   UNL     1       3.122   5.495  18.884  0.00  0.00    +0.000 A 
ATOM     16  C   UNL     1       2.231   5.859  19.897  0.00  0.00    +0.000 A 
BRANCH  11  17
ATOM     17  C   UNL     1       0.985   7.622  21.188  0.00  0.00    +0.000 C 
BRANCH  17  18
ATOM     18  C   UNL     1       1.449   8.968  21.760  0.00  0.00    +0.000 C 
BRANCH  18  19
ATOM     19  C   UNL     1       0.381  10.069  21.759  0.00  0.00    +0.000 C 
BRANCH  19  25
ATOM     20  C   UNL     1      -0.722  10.391  18.841  0.00  0.00    +0.000 C 
ATOM     21  N   UNL     1       0.186  11.280  19.517  0.00  0.00    +0.000 N 
ATOM     22  C   UNL     1       0.703  12.434  19.014  0.00  0.00    +0.000 A 
ATOM     23  N   UNL     1       1.483  12.988  19.912  0.00  0.00    +0.000 NA
ATOM     24  N   UNL     1       1.481  12.193  21.023  0.00  0.00    +0.000 NA
ATOM     25  C   UNL     1       0.679  11.170  20.790  0.00  0.00    +0.000 A 
ENDBRANCH  19  25
ENDBRANCH  18  19
ENDBRANCH  17  18
ENDBRANCH  11  17
ENDBRANCH   1  15
BRANCH   8  26
ATOM     26  C   UNL     1       7.283   7.163  17.578  0.00  0.00    +0.000 C 
ATOM     27  F   UNL     1       6.350   8.126  17.813  0.00  0.00    +0.000 F 
ATOM     28  F   UNL     1       7.965   7.026  18.748  0.00  0.00    +0.000 F 
ATOM     29  F   UNL     1       8.161   7.709  16.689  0.00  0.00    +0.000 F 
ENDBRANCH   8  26
BRANCH   6  30
ATOM     30  C   UNL     1       6.332   4.069  13.697  0.00  0.00    +0.000 C 
BRANCH  30  31
ATOM     31  N   UNL     1       7.393   4.850  13.072  0.00  0.00    +0.000 NA
ATOM     32  H   UNL     1       7.068   5.810  12.942  0.00  0.00    +0.000 HD
ATOM     33  H   UNL     1       7.570   4.485  12.141  0.00  0.00    +0.000 HD
ENDBRANCH  30  31
ENDBRANCH   6  30
TORSDOF 8
ENDMDL
MODEL 8
REMARK VINA RESULT:      -7.9      4.194      6.734
REMARK  Name = 
REMARK  9 active torsions:
REMARK  status: ('A' for Active; 'I' for Inactive)
REMARK    1  A    between atoms: C_1  and  N_2
REMARK    2  A    between atoms: C_6  and  C_7
REMARK    3  A    between atoms: C_7  and  C_8
REMARK    4  A    between atoms: C_8  and  C_9
REMARK    5  A    between atoms: C_9  and  C_10
REMARK    6  A    between atoms: C_14  and  N_15
REMARK    7  A    between atoms: C_20  and  C_21
REMARK    8  A    between atoms: C_21  and  N_22
REMARK    9  A    between atoms: C_24  and  C_25
REMARK                            x       y       z     vdW  Elec       q    Type
REMARK                         _______ _______ _______ _____ _____    ______ ____
ROOT
ATOM      1  N   UNL     1       4.112   4.559  19.136  0.00  0.00    +0.000 N 
ATOM      2  C   UNL     1       5.459   5.172  19.269  0.00  0.00    +0.000 C 
ATOM      3  C   UNL     1       6.003   5.031  17.880  0.00  0.00    +0.000 A 
ATOM      4  C   UNL     1       5.384   3.918  17.304  0.00  0.00    +0.000 A 
ATOM      5  C   UNL     1       5.537   3.570  15.974  0.00  0.00    +0.000 A 
ATOM      6  C   UNL     1       6.339   4.394  15.175  0.00  0.00    +0.000 A 
ATOM      7  C   UNL     1       6.955   5.535  15.752  0.00  0.00    +0.000 A 
ATOM      8  C   UNL     1       6.792   5.879  17.112  0.00  0.00    +0.000 A 
ATOM      9  C   UNL     1       4.271   3.513  18.190  0.00  0.00    +0.000 C 
ATOM     10  O   UNL     1       3.528   2.571  17.975  0.00  0.00    +0.000 OA
ENDROOT
BRANCH   1  15
ATOM     11  C   UNL     1       1.996   7.431  19.832  0.00  0.00    +0.000 A 
ATOM     12  C   UNL     1       2.427   8.266  18.796  0.00  0.00    +0.000 A 
ATOM     13  C   UNL     1       3.050   7.727  17.676  0.00  0.00    +0.000 A 
ATOM     14  C   UNL     1       3.344   6.368  17.633  0.00  0.00    +0.000 A 
ATOM     15  C   UNL     1       3.136   5.581  18.777  0.00  0.00    +0.000 A 
ATOM     16  C   UNL     1       2.318   6.071  19.798  0.00  0.00    +0.000 A 
BRANCH  11  17
ATOM     17  C   UNL     1       1.224   7.994  20.995  0.00  0.00    +0.000 C 
BRANCH  17  18
ATOM     18  C   UNL     1       1.036   9.510  20.860  0.00  0.00    +0.000 C 
BRANCH  18  19
ATOM     19  C   UNL     1      -0.270   9.938  20.178  0.00  0.00    +0.000 C 
BRANCH  19  25
ATOM     20  C   UNL     1      -2.535  11.505  18.677  0.00  0.00    +0.000 C 
ATOM     21  N   UNL     1      -1.150  11.887  18.779  0.00  0.00    +0.000 N 
ATOM     22  C   UNL     1      -0.589  13.014  18.262  0.00  0.00    +0.000 A 
ATOM     23  N   UNL     1       0.690  13.037  18.558  0.00  0.00    +0.000 NA
ATOM     24  N   UNL     1       0.977  11.913  19.280  0.00  0.00    +0.000 NA
ATOM     25  C   UNL     1      -0.142  11.229  19.431  0.00  0.00    +0.000 A 
ENDBRANCH  19  25
ENDBRANCH  18  19
ENDBRANCH  17  18
ENDBRANCH  11  17
ENDBRANCH   1  15
BRANCH   8  26
ATOM     26  C   UNL     1       7.368   7.178  17.616  0.00  0.00    +0.000 C 
ATOM     27  F   UNL     1       8.223   7.785  16.748  0.00  0.00    +0.000 F 
ATOM     28  F   UNL     1       6.403   8.101  17.879  0.00  0.00    +0.000 F 
ATOM     29  F   UNL     1       8.068   7.020  18.776  0.00  0.00    +0.000 F 
ENDBRANCH   8  26
BRANCH   6  30
ATOM     30  C   UNL     1       6.499   4.100  13.703  0.00  0.00    +0.000 C 
BRANCH  30  31
ATOM     31  N   UNL     1       5.231   3.727  13.085  0.00  0.00    +0.000 NA
ATOM     32  H   UNL     1       4.579   4.509  13.163  0.00  0.00    +0.000 HD
ATOM     33  H   UNL     1       4.817   2.963  13.611  0.00  0.00    +0.000 HD
ENDBRANCH  30  31
ENDBRANCH   6  30
TORSDOF 8
ENDMDL
MODEL 9
REMARK VINA RESULT:      -7.9      4.348      6.962
REMARK  Name = 
REMARK  9 active torsions:
REMARK  status: ('A' for Active; 'I' for Inactive)
REMARK    1  A    between atoms: C_1  and  N_2
REMARK    2  A    between atoms: C_6  and  C_7
REMARK    3  A    between atoms: C_7  and  C_8
REMARK    4  A    between atoms: C_8  and  C_9
REMARK    5  A    between atoms: C_9  and  C_10
REMARK    6  A    between atoms: C_14  and  N_15
REMARK    7  A    between atoms: C_20  and  C_21
REMARK    8  A    between atoms: C_21  and  N_22
REMARK    9  A    between atoms: C_24  and  C_25
REMARK                            x       y       z     vdW  Elec       q    Type
REMARK                         _______ _______ _______ _____ _____    ______ ____
ROOT
ATOM      1  N   UNL     1       4.226   4.431  18.987  0.00  0.00    +0.000 N 
ATOM      2  C   UNL     1       5.550   5.074  19.182  0.00  0.00    +0.000 C 
ATOM      3  C   UNL     1       6.123   5.032  17.798  0.00  0.00    +0.000 A 
ATOM      4  C   UNL     1       5.548   3.939  17.146  0.00  0.00    +0.000 A 
ATOM      5  C   UNL     1       5.734   3.675  15.801  0.00  0.00    +0.000 A 
ATOM      6  C   UNL     1       6.524   4.569  15.067  0.00  0.00    +0.000 A 
ATOM      7  C   UNL     1       7.095   5.691  15.722  0.00  0.00    +0.000 A 
ATOM      8  C   UNL     1       6.899   5.948  17.097  0.00  0.00    +0.000 A 
ATOM      9  C   UNL     1       4.433   3.448  17.984  0.00  0.00    +0.000 C 
ATOM     10  O   UNL     1       3.723   2.500  17.700  0.00  0.00    +0.000 OA
ENDROOT
BRANCH   1  15
ATOM     11  C   UNL     1       2.095   7.266  19.783  0.00  0.00    +0.000 A 
ATOM     12  C   UNL     1       2.482   8.118  18.743  0.00  0.00    +0.000 A 
ATOM     13  C   UNL     1       3.076   7.600  17.598  0.00  0.00    +0.000 A 
ATOM     14  C   UNL     1       3.386   6.245  17.530  0.00  0.00    +0.000 A 
ATOM     15  C   UNL     1       3.226   5.444  18.671  0.00  0.00    +0.000 A 
ATOM     16  C   UNL     1       2.434   5.911  19.724  0.00  0.00    +0.000 A 
BRANCH  11  17
ATOM     17  C   UNL     1       1.353   7.806  20.976  0.00  0.00    +0.000 C 
BRANCH  17  18
ATOM     18  C   UNL     1       1.096   9.312  20.841  0.00  0.00    +0.000 C 
BRANCH  18  19
ATOM     19  C   UNL     1      -0.295   9.771  21.292  0.00  0.00    +0.000 C 
BRANCH  19  25
ATOM     20  C   UNL     1      -0.849  12.625  22.468  0.00  0.00    +0.000 C 
ATOM     21  N   UNL     1      -1.018  12.215  21.098  0.00  0.00    +0.000 N 
ATOM     22  C   UNL     1      -1.423  13.005  20.067  0.00  0.00    +0.000 A 
ATOM     23  N   UNL     1      -1.453  12.296  18.963  0.00  0.00    +0.000 NA
ATOM     24  N   UNL     1      -1.061  11.024  19.267  0.00  0.00    +0.000 NA
ATOM     25  C   UNL     1      -0.779  10.980  20.555  0.00  0.00    +0.000 A 
ENDBRANCH  19  25
ENDBRANCH  18  19
ENDBRANCH  17  18
ENDBRANCH  11  17
ENDBRANCH   1  15
BRANCH   8  26
ATOM     26  C   UNL     1       7.426   7.231  17.689  0.00  0.00    +0.000 C 
ATOM     27  F   UNL     1       8.131   7.066  18.841  0.00  0.00    +0.000 F 
ATOM     28  F   UNL     1       8.266   7.882  16.839  0.00  0.00    +0.000 F 
ATOM     29  F   UNL     1       6.429   8.113  17.988  0.00  0.00    +0.000 F 
ENDBRANCH   8  26
BRANCH   6  30
ATOM     30  C   UNL     1       6.719   4.368  13.584  0.00  0.00    +0.000 C 
BRANCH  30  31
ATOM     31  N   UNL     1       6.024   3.180  13.103  0.00  0.00    +0.000 NA
ATOM     32  H   UNL     1       6.677   2.606  12.566  0.00  0.00    +0.000 HD
ATOM     33  H   UNL     1       5.296   3.460  12.452  0.00  0.00    +0.000 HD
ENDBRANCH  30  31
ENDBRANCH   6  30
TORSDOF 8
ENDMDL
