MODEL 1
REMARK VINA RESULT:      -8.6      0.000      0.000
REMARK  Name = 
REMARK  6 active torsions:
REMARK  status: ('A' for Active; 'I' for Inactive)
REMARK    1  A    between atoms: C_1  and  C_2
REMARK    2  A    between atoms: C_5  and  C_6
REMARK    3  A    between atoms: C_7  and  N_8
REMARK    4  A    between atoms: C_12  and  S_13
REMARK    5  A    between atoms: S_13  and  C_14
REMARK    6  A    between atoms: C_14  and  C_15
REMARK                            x       y       z     vdW  Elec       q    Type
REMARK                         _______ _______ _______ _____ _____    ______ ____
ROOT
ATOM      1  C   UNL     1       3.130   6.876  18.271  0.00  0.00    +0.000 C 
ENDROOT
BRANCH   1   2
ATOM      2  C   UNL     1       2.121   7.908  18.754  0.00  0.00    +0.000 A 
ATOM      3  N   UNL     1       1.624   8.753  17.899  0.00  0.00    +0.000 NA
ATOM      4  C   UNL     1       1.071   9.824  18.516  0.00  0.00    +0.000 A 
ATOM      5  S   UNL     1       1.937  11.352  18.376  0.00  0.00    +0.000 S 
ATOM      6  C   UNL     1       1.319  11.829  19.925  0.00  0.00    +0.000 A 
ATOM      7  C   UNL     1       0.084  11.227  19.994  0.00  0.00    +0.000 A 
ATOM      8  C   UNL     1       0.425   9.862  19.744  0.00  0.00    +0.000 A 
ATOM      9  C   UNL     1       0.953   8.857  20.681  0.00  0.00    +0.000 A 
ATOM     10  O   UNL     1       0.736   8.867  21.894  0.00  0.00    +0.000 OA
ATOM     11  N   UNL     1       1.836   7.953  20.110  0.00  0.00    +0.000 N 
ATOM     12  C   UNL     1      -1.087  12.101  19.639  0.00  0.00    +0.000 C 
ATOM     13  C   UNL     1      -0.791  13.623  19.817  0.00  0.00    +0.000 C 
ATOM     14  C   UNL     1       0.521  14.081  20.506  0.00  0.00    +0.000 C 
ATOM     15  C   UNL     1       1.671  13.081  20.605  0.00  0.00    +0.000 C 
ATOM     16  H   UNL     1       2.340   7.377  20.770  0.00  0.00    +0.000 HD
ENDBRANCH   1   2
BRANCH   1  17
ATOM     17  S   UNL     1       2.223   5.283  18.192  0.00  0.00    +0.000 S 
BRANCH  17  22
ATOM     18  N   UNL     1       4.501   3.729  18.655  0.00  0.00    +0.000 N 
ATOM     19  N   UNL     1       4.844   2.725  19.507  0.00  0.00    +0.000 NA
ATOM     20  N   UNL     1       3.882   2.646  20.412  0.00  0.00    +0.000 NA
ATOM     21  N   UNL     1       2.874   3.528  20.144  0.00  0.00    +0.000 NA
ATOM     22  C   UNL     1       3.236   4.174  19.057  0.00  0.00    +0.000 A 
BRANCH  18  29
ATOM     23  C   UNL     1       5.696   3.896  13.844  0.00  0.00    +0.000 C 
ATOM     24  C   UNL     1       6.015   4.264  15.263  0.00  0.00    +0.000 A 
ATOM     25  C   UNL     1       7.089   5.099  15.557  0.00  0.00    +0.000 A 
ATOM     26  C   UNL     1       7.318   5.497  16.872  0.00  0.00    +0.000 A 
ATOM     27  C   UNL     1       6.485   5.069  17.931  0.00  0.00    +0.000 A 
ATOM     28  C   UNL     1       6.829   5.594  19.303  0.00  0.00    +0.000 C 
ATOM     29  C   UNL     1       5.411   4.183  17.643  0.00  0.00    +0.000 A 
ATOM     30  C   UNL     1       5.187   3.814  16.306  0.00  0.00    +0.000 A 
ENDBRANCH  18  29
ENDBRANCH  17  22
ENDBRANCH   1  17
TORSDOF 4
ENDMDL
MODEL 2
REMARK VINA RESULT:      -8.6      1.414      2.289
REMARK  Name = 
REMARK  6 active torsions:
REMARK  status: ('A' for Active; 'I' for Inactive)
REMARK    1  A    between atoms: C_1  and  C_2
REMARK    2  A    between atoms: C_5  and  C_6
REMARK    3  A    between atoms: C_7  and  N_8
REMARK    4  A    between atoms: C_12  and  S_13
REMARK    5  A    between atoms: S_13  and  C_14
REMARK    6  A    between atoms: C_14  and  C_15
REMARK                            x       y       z     vdW  Elec       q    Type
REMARK                         _______ _______ _______ _____ _____    ______ ____
ROOT
ATOM      1  C   UNL     1       2.415   6.845  20.215  0.00  0.00    +0.000 C 
ENDROOT
BRANCH   1   2
ATOM      2  C   UNL     1       1.516   8.033  20.526  0.00  0.00    +0.000 A 
ATOM      3  N   UNL     1       0.935   8.658  19.543  0.00  0.00    +0.000 NA
ATOM      4  C   UNL     1       0.507   9.888  19.914  0.00  0.00    +0.000 A 
ATOM      5  S   UNL     1       1.395  11.264  19.265  0.00  0.00    +0.000 S 
ATOM      6  C   UNL     1       1.010  12.169  20.695  0.00  0.00    +0.000 A 
ATOM      7  C   UNL     1      -0.224  11.691  21.073  0.00  0.00    +0.000 A 
ATOM      8  C   UNL     1       0.036  10.289  21.157  0.00  0.00    +0.000 A 
ATOM      9  C   UNL     1       0.653   9.528  22.256  0.00  0.00    +0.000 A 
ATOM     10  O   UNL     1       0.603   9.869  23.440  0.00  0.00    +0.000 OA
ATOM     11  N   UNL     1       1.420   8.450  21.844  0.00  0.00    +0.000 N 
ATOM     12  C   UNL     1      -1.402  12.520  20.644  0.00  0.00    +0.000 C 
ATOM     13  C   UNL     1      -1.034  14.012  20.371  0.00  0.00    +0.000 C 
ATOM     14  C   UNL     1       0.373  14.544  20.746  0.00  0.00    +0.000 C 
ATOM     15  C   UNL     1       1.492  13.528  20.967  0.00  0.00    +0.000 C 
ATOM     16  H   UNL     1       1.990   8.032  22.567  0.00  0.00    +0.000 HD
ENDBRANCH   1   2
BRANCH   1  17
ATOM     17  S   UNL     1       1.319   5.373  20.208  0.00  0.00    +0.000 S 
BRANCH  17  22
ATOM     18  N   UNL     1       3.442   3.555  20.101  0.00  0.00    +0.000 N 
ATOM     19  N   UNL     1       3.812   2.443  20.789  0.00  0.00    +0.000 NA
ATOM     20  N   UNL     1       3.029   2.373  21.854  0.00  0.00    +0.000 NA
ATOM     21  N   UNL     1       2.101   3.376  21.854  0.00  0.00    +0.000 NA
ATOM     22  C   UNL     1       2.334   4.086  20.772  0.00  0.00    +0.000 A 
BRANCH  18  29
ATOM     23  C   UNL     1       7.567   5.723  18.400  0.00  0.00    +0.000 C 
ATOM     24  C   UNL     1       6.235   5.092  18.120  0.00  0.00    +0.000 A 
ATOM     25  C   UNL     1       5.814   4.870  16.812  0.00  0.00    +0.000 A 
ATOM     26  C   UNL     1       4.612   4.207  16.573  0.00  0.00    +0.000 A 
ATOM     27  C   UNL     1       3.795   3.753  17.632  0.00  0.00    +0.000 A 
ATOM     28  C   UNL     1       2.533   3.027  17.235  0.00  0.00    +0.000 C 
ATOM     29  C   UNL     1       4.199   4.012  18.971  0.00  0.00    +0.000 A 
ATOM     30  C   UNL     1       5.425   4.662  19.185  0.00  0.00    +0.000 A 
ENDBRANCH  18  29
ENDBRANCH  17  22
ENDBRANCH   1  17
TORSDOF 4
ENDMDL
MODEL 3
REMARK VINA RESULT:      -8.3      1.461      1.532
REMARK  Name = 
REMARK  6 active torsions:
REMARK  status: ('A' for Active; 'I' for Inactive)
REMARK    1  A    between atoms: C_1  and  C_2
REMARK    2  A    between atoms: C_5  and  C_6
REMARK    3  A    between atoms: C_7  and  N_8
REMARK    4  A    between atoms: C_12  and  S_13
REMARK    5  A    between atoms: S_13  and  C_14
REMARK    6  A    between atoms: C_14  and  C_15
REMARK                            x       y       z     vdW  Elec       q    Type
REMARK                         _______ _______ _______ _____ _____    ______ ____
ROOT
ATOM      1  C   UNL     1       2.317   7.033  20.013  0.00  0.00    +0.000 C 
ENDROOT
BRANCH   1   2
ATOM      2  C   UNL     1       1.523   8.330  20.076  0.00  0.00    +0.000 A 
ATOM      3  N   UNL     1       1.160   8.901  18.965  0.00  0.00    +0.000 NA
ATOM      4  C   UNL     1       0.826  10.200  19.155  0.00  0.00    +0.000 A 
ATOM      5  S   UNL     1       1.946  11.406  18.526  0.00  0.00    +0.000 S 
ATOM      6  C   UNL     1       1.469  12.490  19.794  0.00  0.00    +0.000 A 
ATOM      7  C   UNL     1       0.149  12.179  20.025  0.00  0.00    +0.000 A 
ATOM      8  C   UNL     1       0.234  10.774  20.273  0.00  0.00    +0.000 A 
ATOM      9  C   UNL     1       0.602  10.077  21.516  0.00  0.00    +0.000 A 
ATOM     10  O   UNL     1       0.427  10.545  22.643  0.00  0.00    +0.000 OA
ATOM     11  N   UNL     1       1.292   8.891  21.322  0.00  0.00    +0.000 N 
ATOM     12  C   UNL     1      -0.856  13.070  19.350  0.00  0.00    +0.000 C 
ATOM     13  C   UNL     1      -0.288  14.482  19.002  0.00  0.00    +0.000 C 
ATOM     14  C   UNL     1       1.104  14.908  19.535  0.00  0.00    +0.000 C 
ATOM     15  C   UNL     1       2.060  13.816  20.012  0.00  0.00    +0.000 C 
ATOM     16  H   UNL     1       1.705   8.498  22.157  0.00  0.00    +0.000 HD
ENDBRANCH   1   2
BRANCH   1  17
ATOM     17  S   UNL     1       2.658   6.738  18.234  0.00  0.00    +0.000 S 
BRANCH  17  22
ATOM     18  N   UNL     1       3.324   4.150  17.410  0.00  0.00    +0.000 N 
ATOM     19  N   UNL     1       2.671   2.962  17.292  0.00  0.00    +0.000 NA
ATOM     20  N   UNL     1       1.503   3.107  17.895  0.00  0.00    +0.000 NA
ATOM     21  N   UNL     1       1.334   4.383  18.353  0.00  0.00    +0.000 NA
ATOM     22  C   UNL     1       2.434   5.030  18.036  0.00  0.00    +0.000 A 
BRANCH  18  29
ATOM     23  C   UNL     1       6.595   4.339  13.686  0.00  0.00    +0.000 C 
ATOM     24  C   UNL     1       6.320   4.373  15.160  0.00  0.00    +0.000 A 
ATOM     25  C   UNL     1       7.342   4.633  16.068  0.00  0.00    +0.000 A 
ATOM     26  C   UNL     1       7.050   4.744  17.426  0.00  0.00    +0.000 A 
ATOM     27  C   UNL     1       5.734   4.592  17.916  0.00  0.00    +0.000 A 
ATOM     28  C   UNL     1       5.553   4.763  19.404  0.00  0.00    +0.000 C 
ATOM     29  C   UNL     1       4.691   4.286  16.997  0.00  0.00    +0.000 A 
ATOM     30  C   UNL     1       5.007   4.202  15.631  0.00  0.00    +0.000 A 
ENDBRANCH  18  29
ENDBRANCH  17  22
ENDBRANCH   1  17
TORSDOF 4
ENDMDL
MODEL 4
REMARK VINA RESULT:      -8.2      1.712      2.748
REMARK  Name = 
REMARK  6 active torsions:
REMARK  status: ('A' for Active; 'I' for Inactive)
REMARK    1  A    between atoms: C_1  and  C_2
REMARK    2  A    between atoms: C_5  and  C_6
REMARK    3  A    between atoms: C_7  and  N_8
REMARK    4  A    between atoms: C_12  and  S_13
REMARK    5  A    between atoms: S_13  and  C_14
REMARK    6  A    between atoms: C_14  and  C_15
REMARK                            x       y       z     vdW  Elec       q    Type
REMARK                         _______ _______ _______ _____ _____    ______ ____
ROOT
ATOM      1  C   UNL     1       1.661   5.818  20.916  0.00  0.00    +0.000 C 
ENDROOT
BRANCH   1   2
ATOM      2  C   UNL     1       1.719   7.235  20.364  0.00  0.00    +0.000 A 
ATOM      3  N   UNL     1       1.426   8.230  21.151  0.00  0.00    +0.000 NA
ATOM      4  C   UNL     1       1.138   9.354  20.452  0.00  0.00    +0.000 A 
ATOM      5  S   UNL     1      -0.548   9.862  20.429  0.00  0.00    +0.000 S 
ATOM      6  C   UNL     1      -0.303  10.557  18.859  0.00  0.00    +0.000 A 
ATOM      7  C   UNL     1       1.007  10.975  18.876  0.00  0.00    +0.000 A 
ATOM      8  C   UNL     1       1.679   9.768  19.242  0.00  0.00    +0.000 A 
ATOM      9  C   UNL     1       2.066   8.633  18.389  0.00  0.00    +0.000 A 
ATOM     10  O   UNL     1       2.315   8.731  17.186  0.00  0.00    +0.000 OA
ATOM     11  N   UNL     1       2.004   7.399  19.018  0.00  0.00    +0.000 N 
ATOM     12  C   UNL     1       1.221  12.433  19.179  0.00  0.00    +0.000 C 
ATOM     13  C   UNL     1      -0.025  13.315  18.854  0.00  0.00    +0.000 C 
ATOM     14  C   UNL     1      -1.229  12.703  18.093  0.00  0.00    +0.000 C 
ATOM     15  C   UNL     1      -1.363  11.182  18.058  0.00  0.00    +0.000 C 
ATOM     16  H   UNL     1       2.090   6.603  18.402  0.00  0.00    +0.000 HD
ENDBRANCH   1   2
BRANCH   1  17
ATOM     17  S   UNL     1       1.952   4.708  19.483  0.00  0.00    +0.000 S 
BRANCH  17  22
ATOM     18  N   UNL     1       4.504   3.565  19.459  0.00  0.00    +0.000 N 
ATOM     19  N   UNL     1       5.097   2.484  20.033  0.00  0.00    +0.000 NA
ATOM     20  N   UNL     1       4.252   2.021  20.939  0.00  0.00    +0.000 NA
ATOM     21  N   UNL     1       3.082   2.727  20.935  0.00  0.00    +0.000 NA
ATOM     22  C   UNL     1       3.222   3.655  20.014  0.00  0.00    +0.000 A 
BRANCH  18  29
ATOM     23  C   UNL     1       8.131   6.869  18.728  0.00  0.00    +0.000 C 
ATOM     24  C   UNL     1       7.010   6.043  18.169  0.00  0.00    +0.000 A 
ATOM     25  C   UNL     1       6.759   6.019  16.800  0.00  0.00    +0.000 A 
ATOM     26  C   UNL     1       5.768   5.181  16.292  0.00  0.00    +0.000 A 
ATOM     27  C   UNL     1       4.997   4.350  17.135  0.00  0.00    +0.000 A 
ATOM     28  C   UNL     1       3.976   3.473  16.453  0.00  0.00    +0.000 C 
ATOM     29  C   UNL     1       5.221   4.400  18.539  0.00  0.00    +0.000 A 
ATOM     30  C   UNL     1       6.241   5.236  19.024  0.00  0.00    +0.000 A 
ENDBRANCH  18  29
ENDBRANCH  17  22
ENDBRANCH   1  17
TORSDOF 4
ENDMDL
MODEL 5
REMARK VINA RESULT:      -8.0      1.806      2.519
REMARK  Name = 
REMARK  6 active torsions:
REMARK  status: ('A' for Active; 'I' for Inactive)
REMARK    1  A    between atoms: C_1  and  C_2
REMARK    2  A    between atoms: C_5  and  C_6
REMARK    3  A    between atoms: C_7  and  N_8
REMARK    4  A    between atoms: C_12  and  S_13
REMARK    5  A    between atoms: S_13  and  C_14
REMARK    6  A    between atoms: C_14  and  C_15
REMARK                            x       y       z     vdW  Elec       q    Type
REMARK                         _______ _______ _______ _____ _____    ______ ____
ROOT
ATOM      1  C   UNL     1       2.392   6.936  20.129  0.00  0.00    +0.000 C 
ENDROOT
BRANCH   1   2
ATOM      2  C   UNL     1       1.464   8.072  20.534  0.00  0.00    +0.000 A 
ATOM      3  N   UNL     1       0.787   8.692  19.612  0.00  0.00    +0.000 NA
ATOM      4  C   UNL     1       0.330   9.891  20.046  0.00  0.00    +0.000 A 
ATOM      5  S   UNL     1       1.107  11.324  19.375  0.00  0.00    +0.000 S 
ATOM      6  C   UNL     1       0.782  12.174  20.853  0.00  0.00    +0.000 A 
ATOM      7  C   UNL     1      -0.398  11.629  21.303  0.00  0.00    +0.000 A 
ATOM      8  C   UNL     1      -0.070  10.238  21.330  0.00  0.00    +0.000 A 
ATOM      9  C   UNL     1       0.658   9.482  22.361  0.00  0.00    +0.000 A 
ATOM     10  O   UNL     1       0.677   9.791  23.555  0.00  0.00    +0.000 OA
ATOM     11  N   UNL     1       1.443   8.451  21.867  0.00  0.00    +0.000 N 
ATOM     12  C   UNL     1      -1.640  12.411  20.979  0.00  0.00    +0.000 C 
ATOM     13  C   UNL     1      -1.361  13.925  20.723  0.00  0.00    +0.000 C 
ATOM     14  C   UNL     1       0.043  14.513  21.014  0.00  0.00    +0.000 C 
ATOM     15  C   UNL     1       1.220  13.547  21.128  0.00  0.00    +0.000 C 
ATOM     16  H   UNL     1       2.081   8.044  22.537  0.00  0.00    +0.000 HD
ENDBRANCH   1   2
BRANCH   1  17
ATOM     17  S   UNL     1       2.243   6.790  18.306  0.00  0.00    +0.000 S 
BRANCH  17  22
ATOM     18  N   UNL     1       4.132   4.821  17.694  0.00  0.00    +0.000 N 
ATOM     19  N   UNL     1       4.097   3.527  17.278  0.00  0.00    +0.000 NA
ATOM     20  N   UNL     1       2.840   3.126  17.382  0.00  0.00    +0.000 NA
ATOM     21  N   UNL     1       2.027   4.144  17.794  0.00  0.00    +0.000 NA
ATOM     22  C   UNL     1       2.809   5.188  17.961  0.00  0.00    +0.000 A 
BRANCH  18  29
ATOM     23  C   UNL     1       8.309   5.404  20.306  0.00  0.00    +0.000 C 
ATOM     24  C   UNL     1       7.448   5.813  19.148  0.00  0.00    +0.000 A 
ATOM     25  C   UNL     1       7.900   6.747  18.221  0.00  0.00    +0.000 A 
ATOM     26  C   UNL     1       7.119   7.051  17.107  0.00  0.00    +0.000 A 
ATOM     27  C   UNL     1       5.865   6.437  16.892  0.00  0.00    +0.000 A 
ATOM     28  C   UNL     1       5.135   6.837  15.633  0.00  0.00    +0.000 C 
ATOM     29  C   UNL     1       5.380   5.512  17.856  0.00  0.00    +0.000 A 
ATOM     30  C   UNL     1       6.195   5.205  18.959  0.00  0.00    +0.000 A 
ENDBRANCH  18  29
ENDBRANCH  17  22
ENDBRANCH   1  17
TORSDOF 4
ENDMDL
MODEL 6
REMARK VINA RESULT:      -8.0      1.509      2.008
REMARK  Name = 
REMARK  6 active torsions:
REMARK  status: ('A' for Active; 'I' for Inactive)
REMARK    1  A    between atoms: C_1  and  C_2
REMARK    2  A    between atoms: C_5  and  C_6
REMARK    3  A    between atoms: C_7  and  N_8
REMARK    4  A    between atoms: C_12  and  S_13
REMARK    5  A    between atoms: S_13  and  C_14
REMARK    6  A    between atoms: C_14  and  C_15
REMARK                            x       y       z     vdW  Elec       q    Type
REMARK                         _______ _______ _______ _____ _____    ______ ____
ROOT
ATOM      1  C   UNL     1       1.894   5.910  20.539  0.00  0.00    +0.000 C 
ENDROOT
BRANCH   1   2
ATOM      2  C   UNL     1       1.833   7.377  20.138  0.00  0.00    +0.000 A 
ATOM      3  N   UNL     1       1.490   8.260  21.030  0.00  0.00    +0.000 NA
ATOM      4  C   UNL     1       1.102   9.425  20.458  0.00  0.00    +0.000 A 
ATOM      5  S   UNL     1      -0.617   9.804  20.522  0.00  0.00    +0.000 S 
ATOM      6  C   UNL     1      -0.468  10.673  19.028  0.00  0.00    +0.000 A 
ATOM      7  C   UNL     1       0.809  11.185  19.063  0.00  0.00    +0.000 A 
ATOM      8  C   UNL     1       1.577  10.001  19.287  0.00  0.00    +0.000 A 
ATOM      9  C   UNL     1       2.023   8.992  18.313  0.00  0.00    +0.000 A 
ATOM     10  O   UNL     1       2.230   9.232  17.121  0.00  0.00    +0.000 OA
ATOM     11  N   UNL     1       2.068   7.699  18.811  0.00  0.00    +0.000 N 
ATOM     12  C   UNL     1       0.924  12.616  19.511  0.00  0.00    +0.000 C 
ATOM     13  C   UNL     1      -0.392  13.430  19.306  0.00  0.00    +0.000 C 
ATOM     14  C   UNL     1      -1.569  12.810  18.509  0.00  0.00    +0.000 C 
ATOM     15  C   UNL     1      -1.592  11.295  18.318  0.00  0.00    +0.000 C 
ATOM     16  H   UNL     1       2.195   6.979  18.113  0.00  0.00    +0.000 HD
ENDBRANCH   1   2
BRANCH   1  17
ATOM     17  S   UNL     1       2.343   4.990  19.016  0.00  0.00    +0.000 S 
BRANCH  17  22
ATOM     18  N   UNL     1       4.677   3.452  18.934  0.00  0.00    +0.000 N 
ATOM     19  N   UNL     1       5.140   2.342  19.569  0.00  0.00    +0.000 NA
ATOM     20  N   UNL     1       4.307   2.097  20.568  0.00  0.00    +0.000 NA
ATOM     21  N   UNL     1       3.264   2.980  20.572  0.00  0.00    +0.000 NA
ATOM     22  C   UNL     1       3.473   3.793  19.560  0.00  0.00    +0.000 A 
BRANCH  18  29
ATOM     23  C   UNL     1       5.408   4.127  14.075  0.00  0.00    +0.000 C 
ATOM     24  C   UNL     1       5.815   4.415  15.490  0.00  0.00    +0.000 A 
ATOM     25  C   UNL     1       6.820   5.337  15.767  0.00  0.00    +0.000 A 
ATOM     26  C   UNL     1       7.125   5.654  17.089  0.00  0.00    +0.000 A 
ATOM     27  C   UNL     1       6.440   5.054  18.170  0.00  0.00    +0.000 A 
ATOM     28  C   UNL     1       6.851   5.505  19.551  0.00  0.00    +0.000 C 
ATOM     29  C   UNL     1       5.440   4.081  17.894  0.00  0.00    +0.000 A 
ATOM     30  C   UNL     1       5.136   3.797  16.553  0.00  0.00    +0.000 A 
ENDBRANCH  18  29
ENDBRANCH  17  22
ENDBRANCH   1  17
TORSDOF 4
ENDMDL
MODEL 7
REMARK VINA RESULT:      -8.0      3.430      8.910
REMARK  Name = 
REMARK  6 active torsions:
REMARK  status: ('A' for Active; 'I' for Inactive)
REMARK    1  A    between atoms: C_1  and  C_2
REMARK    2  A    between atoms: C_5  and  C_6
REMARK    3  A    between atoms: C_7  and  N_8
REMARK    4  A    between atoms: C_12  and  S_13
REMARK    5  A    between atoms: S_13  and  C_14
REMARK    6  A    between atoms: C_14  and  C_15
REMARK                            x       y       z     vdW  Elec       q    Type
REMARK                         _______ _______ _______ _____ _____    ______ ____
ROOT
ATOM      1  C   UNL     1       1.394   8.788  21.808  0.00  0.00    +0.000 C 
ENDROOT
BRANCH   1   2
ATOM      2  C   UNL     1       1.532   7.660  20.794  0.00  0.00    +0.000 A 
ATOM      3  N   UNL     1       0.899   6.543  21.005  0.00  0.00    +0.000 NA
ATOM      4  C   UNL     1       1.410   5.530  20.265  0.00  0.00    +0.000 A 
ATOM      5  S   UNL     1       2.324   4.299  21.131  0.00  0.00    +0.000 S 
ATOM      6  C   UNL     1       3.288   4.036  19.713  0.00  0.00    +0.000 A 
ATOM      7  C   UNL     1       2.428   4.285  18.670  0.00  0.00    +0.000 A 
ATOM      8  C   UNL     1       1.969   5.599  18.995  0.00  0.00    +0.000 A 
ATOM      9  C   UNL     1       2.624   6.893  18.746  0.00  0.00    +0.000 A 
ATOM     10  O   UNL     1       3.408   7.099  17.817  0.00  0.00    +0.000 OA
ATOM     11  N   UNL     1       2.394   7.847  19.726  0.00  0.00    +0.000 N 
ATOM     12  C   UNL     1       1.793   3.073  18.046  0.00  0.00    +0.000 C 
ATOM     13  C   UNL     1       2.617   1.767  18.271  0.00  0.00    +0.000 C 
ATOM     14  C   UNL     1       4.037   1.844  18.888  0.00  0.00    +0.000 C 
ATOM     15  C   UNL     1       4.425   3.111  19.648  0.00  0.00    +0.000 C 
ATOM     16  H   UNL     1       2.977   8.671  19.662  0.00  0.00    +0.000 HD
ENDBRANCH   1   2
BRANCH   1  17
ATOM     17  S   UNL     1      -0.326   9.405  21.644  0.00  0.00    +0.000 S 
BRANCH  17  22
ATOM     18  N   UNL     1      -0.596  11.625  19.965  0.00  0.00    +0.000 N 
ATOM     19  N   UNL     1      -0.063  12.874  19.902  0.00  0.00    +0.000 NA
ATOM     20  N   UNL     1       0.593  13.068  21.034  0.00  0.00    +0.000 NA
ATOM     21  N   UNL     1       0.564  11.951  21.822  0.00  0.00    +0.000 NA
ATOM     22  C   UNL     1      -0.140  11.059  21.161  0.00  0.00    +0.000 A 
BRANCH  18  29
ATOM     23  C   UNL     1      -5.095  11.914  17.895  0.00  0.00    +0.000 C 
ATOM     24  C   UNL     1      -3.732  11.287  17.931  0.00  0.00    +0.000 A 
ATOM     25  C   UNL     1      -3.346  10.370  16.958  0.00  0.00    +0.000 A 
ATOM     26  C   UNL     1      -2.048   9.862  16.960  0.00  0.00    +0.000 A 
ATOM     27  C   UNL     1      -1.104  10.251  17.937  0.00  0.00    +0.000 A 
ATOM     28  C   UNL     1       0.273   9.646  17.809  0.00  0.00    +0.000 C 
ATOM     29  C   UNL     1      -1.505  11.156  18.958  0.00  0.00    +0.000 A 
ATOM     30  C   UNL     1      -2.811  11.671  18.920  0.00  0.00    +0.000 A 
ENDBRANCH  18  29
ENDBRANCH  17  22
ENDBRANCH   1  17
TORSDOF 4
ENDMDL
MODEL 8
REMARK VINA RESULT:      -8.0      1.597      2.070
REMARK  Name = 
REMARK  6 active torsions:
REMARK  status: ('A' for Active; 'I' for Inactive)
REMARK    1  A    between atoms: C_1  and  C_2
REMARK    2  A    between atoms: C_5  and  C_6
REMARK    3  A    between atoms: C_7  and  N_8
REMARK    4  A    between atoms: C_12  and  S_13
REMARK    5  A    between atoms: S_13  and  C_14
REMARK    6  A    between atoms: C_14  and  C_15
REMARK                            x       y       z     vdW  Elec       q    Type
REMARK                         _______ _______ _______ _____ _____    ______ ____
ROOT
ATOM      1  C   UNL     1       2.161   6.058  19.991  0.00  0.00    +0.000 C 
ENDROOT
BRANCH   1   2
ATOM      2  C   UNL     1       1.936   7.562  19.927  0.00  0.00    +0.000 A 
ATOM      3  N   UNL     1       1.591   8.194  21.011  0.00  0.00    +0.000 NA
ATOM      4  C   UNL     1       1.055   9.407  20.735  0.00  0.00    +0.000 A 
ATOM      5  S   UNL     1      -0.681   9.580  20.986  0.00  0.00    +0.000 S 
ATOM      6  C   UNL     1      -0.733  10.759  19.714  0.00  0.00    +0.000 A 
ATOM      7  C   UNL     1       0.491  11.383  19.782  0.00  0.00    +0.000 A 
ATOM      8  C   UNL     1       1.378  10.266  19.693  0.00  0.00    +0.000 A 
ATOM      9  C   UNL     1       1.830   9.540  18.495  0.00  0.00    +0.000 A 
ATOM     10  O   UNL     1       1.916  10.049  17.375  0.00  0.00    +0.000 OA
ATOM     11  N   UNL     1       2.031   8.182  18.692  0.00  0.00    +0.000 N 
ATOM     12  C   UNL     1       0.515  12.689  20.527  0.00  0.00    +0.000 C 
ATOM     13  C   UNL     1      -0.880  13.385  20.586  0.00  0.00    +0.000 C 
ATOM     14  C   UNL     1      -2.059  12.829  19.746  0.00  0.00    +0.000 C 
ATOM     15  C   UNL     1      -1.962  11.396  19.228  0.00  0.00    +0.000 C 
ATOM     16  H   UNL     1       2.164   7.645  17.846  0.00  0.00    +0.000 HD
ENDBRANCH   1   2
BRANCH   1  17
ATOM     17  S   UNL     1       2.323   5.499  18.251  0.00  0.00    +0.000 S 
BRANCH  17  22
ATOM     18  N   UNL     1       3.903   3.249  17.740  0.00  0.00    +0.000 N 
ATOM     19  N   UNL     1       3.795   1.910  17.950  0.00  0.00    +0.000 NA
ATOM     20  N   UNL     1       2.753   1.730  18.744  0.00  0.00    +0.000 NA
ATOM     21  N   UNL     1       2.124   2.913  19.014  0.00  0.00    +0.000 NA
ATOM     22  C   UNL     1       2.809   3.840  18.382  0.00  0.00    +0.000 A 
BRANCH  18  29
ATOM     23  C   UNL     1       6.263   3.930  13.431  0.00  0.00    +0.000 C 
ATOM     24  C   UNL     1       6.211   4.135  14.916  0.00  0.00    +0.000 A 
ATOM     25  C   UNL     1       7.165   4.918  15.560  0.00  0.00    +0.000 A 
ATOM     26  C   UNL     1       7.051   5.165  16.926  0.00  0.00    +0.000 A 
ATOM     27  C   UNL     1       5.986   4.633  17.688  0.00  0.00    +0.000 A 
ATOM     28  C   UNL     1       5.967   5.000  19.152  0.00  0.00    +0.000 C 
ATOM     29  C   UNL     1       5.031   3.800  17.044  0.00  0.00    +0.000 A 
ATOM     30  C   UNL     1       5.155   3.584  15.662  0.00  0.00    +0.000 A 
ENDBRANCH  18  29
ENDBRANCH  17  22
ENDBRANCH   1  17
TORSDOF 4
ENDMDL
MODEL 9
REMARK VINA RESULT:      -8.0      5.936      9.413
REMARK  Name = 
REMARK  6 active torsions:
REMARK  status: ('A' for Active; 'I' for Inactive)
REMARK    1  A    between atoms: C_1  and  C_2
REMARK    2  A    between atoms: C_5  and  C_6
REMARK    3  A    between atoms: C_7  and  N_8
REMARK    4  A    between atoms: C_12  and  S_13
REMARK    5  A    between atoms: S_13  and  C_14
REMARK    6  A    between atoms: C_14  and  C_15
REMARK                            x       y       z     vdW  Elec       q    Type
REMARK                         _______ _______ _______ _____ _____    ______ ____
ROOT
ATOM      1  C   UNL     1       8.445   9.324  17.545  0.00  0.00    +0.000 C 
ENDROOT
BRANCH   1   2
ATOM      2  C   UNL     1       7.815   7.947  17.695  0.00  0.00    +0.000 A 
ATOM      3  N   UNL     1       6.969   7.539  16.794  0.00  0.00    +0.000 NA
ATOM      4  C   UNL     1       6.214   6.509  17.244  0.00  0.00    +0.000 A 
ATOM      5  S   UNL     1       4.522   6.858  17.586  0.00  0.00    +0.000 S 
ATOM      6  C   UNL     1       4.531   5.633  18.814  0.00  0.00    +0.000 A 
ATOM      7  C   UNL     1       5.424   4.696  18.349  0.00  0.00    +0.000 A 
ATOM      8  C   UNL     1       6.583   5.503  18.128  0.00  0.00    +0.000 A 
ATOM      9  C   UNL     1       7.589   5.959  19.100  0.00  0.00    +0.000 A 
ATOM     10  O   UNL     1       7.873   5.348  20.133  0.00  0.00    +0.000 OA
ATOM     11  N   UNL     1       8.111   7.216  18.834  0.00  0.00    +0.000 N 
ATOM     12  C   UNL     1       4.819   3.510  17.651  0.00  0.00    +0.000 C 
ATOM     13  C   UNL     1       3.337   3.247  18.066  0.00  0.00    +0.000 C 
ATOM     14  C   UNL     1       2.712   4.036  19.244  0.00  0.00    +0.000 C 
ATOM     15  C   UNL     1       3.391   5.330  19.687  0.00  0.00    +0.000 C 
ATOM     16  H   UNL     1       8.662   7.615  19.583  0.00  0.00    +0.000 HD
ENDBRANCH   1   2
BRANCH   1  17
ATOM     17  S   UNL     1       9.025   9.797  19.221  0.00  0.00    +0.000 S 
BRANCH  17  22
ATOM     18  N   UNL     1       9.761  12.477  19.532  0.00  0.00    +0.000 N 
ATOM     19  N   UNL     1      10.598  13.341  18.898  0.00  0.00    +0.000 NA
ATOM     20  N   UNL     1      11.329  12.622  18.062  0.00  0.00    +0.000 NA
ATOM     21  N   UNL     1      10.952  11.309  18.076  0.00  0.00    +0.000 NA
ATOM     22  C   UNL     1       9.977  11.221  18.954  0.00  0.00    +0.000 A 
BRANCH  18  29
ATOM     23  C   UNL     1       8.534  12.023  24.317  0.00  0.00    +0.000 C 
ATOM     24  C   UNL     1       8.317  12.688  22.990  0.00  0.00    +0.000 A 
ATOM     25  C   UNL     1       7.427  13.751  22.864  0.00  0.00    +0.000 A 
ATOM     26  C   UNL     1       7.302  14.410  21.643  0.00  0.00    +0.000 A 
ATOM     27  C   UNL     1       8.056  14.023  20.513  0.00  0.00    +0.000 A 
ATOM     28  C   UNL     1       7.844  14.837  19.260  0.00  0.00    +0.000 C 
ATOM     29  C   UNL     1       8.937  12.912  20.623  0.00  0.00    +0.000 A 
ATOM     30  C   UNL     1       9.062  12.279  21.871  0.00  0.00    +0.000 A 
ENDBRANCH  18  29
ENDBRANCH  17  22
ENDBRANCH   1  17
TORSDOF 4
ENDMDL
