MODEL 1
REMARK VINA RESULT:      -9.1      0.000      0.000
REMARK  Name = 
REMARK  3 active torsions:
REMARK  status: ('A' for Active; 'I' for Inactive)
REMARK    1  A    between atoms: C_5  and  C_6
REMARK    2  A    between atoms: C_6  and  C_7
REMARK    3  A    between atoms: C_10  and  C_11
REMARK                            x       y       z     vdW  Elec       q    Type
REMARK                         _______ _______ _______ _____ _____    ______ ____
ROOT
ATOM      1  C   UNL     1       3.817   4.796  19.245  0.00  0.00    +0.000 A 
ATOM      2  N   UNL     1       4.915   4.532  19.926  0.00  0.00    +0.000 NA
ATOM      3  N   UNL     1       5.930   4.421  19.007  0.00  0.00    +0.000 NA
ATOM      4  C   UNL     1       5.395   4.639  17.819  0.00  0.00    +0.000 A 
ATOM      5  O   UNL     1       4.045   4.883  17.893  0.00  0.00    +0.000 OA
ENDROOT
BRANCH   4   6
ATOM      6  C   UNL     1       6.039   4.667  16.512  0.00  0.00    +0.000 A 
ATOM      7  C   UNL     1       7.180   5.437  16.318  0.00  0.00    +0.000 A 
ATOM      8  C   UNL     1       7.742   5.490  15.048  0.00  0.00    +0.000 A 
ATOM      9  C   UNL     1       7.148   4.782  14.000  0.00  0.00    +0.000 A 
ATOM     10  C   UNL     1       7.667   4.836  12.695  0.00  0.00    +0.000 A 
ATOM     11  C   UNL     1       7.048   4.134  11.664  0.00  0.00    +0.000 A 
ATOM     12  C   UNL     1       5.918   3.372  11.936  0.00  0.00    +0.000 A 
ATOM     13  C   UNL     1       5.408   3.317  13.238  0.00  0.00    +0.000 A 
ATOM     14  C   UNL     1       5.997   4.015  14.284  0.00  0.00    +0.000 A 
ATOM     15  N   UNL     1       5.456   3.951  15.516  0.00  0.00    +0.000 NA
ENDBRANCH   4   6
BRANCH   1  16
ATOM     16  C   UNL     1       2.407   5.019  19.766  0.00  0.00    +0.000 C 
ATOM     17  C   UNL     1       1.399   4.199  18.911  0.00  0.00    +0.000 C 
ATOM     18  C   UNL     1       1.592   2.697  19.094  0.00  0.00    +0.000 C 
ATOM     19  O   UNL     1       1.482   2.348  20.472  0.00  0.00    +0.000 OA
ATOM     20  C   UNL     1       2.492   2.959  21.271  0.00  0.00    +0.000 C 
ATOM     21  C   UNL     1       2.352   4.479  21.226  0.00  0.00    +0.000 C 
BRANCH  16  26
ATOM     22 BR   UNL     1       0.835  11.091  19.655  0.00  0.00    +0.000 Br
ATOM     23  C   UNL     1       1.306   9.262  19.693  0.00  0.00    +0.000 A 
ATOM     24  C   UNL     1       1.103   8.518  20.849  0.00  0.00    +0.000 A 
ATOM     25  C   UNL     1       1.453   7.163  20.878  0.00  0.00    +0.000 A 
ATOM     26  C   UNL     1       2.014   6.521  19.757  0.00  0.00    +0.000 A 
ATOM     27  C   UNL     1       2.201   7.306  18.598  0.00  0.00    +0.000 A 
ATOM     28  C   UNL     1       1.853   8.662  18.565  0.00  0.00    +0.000 A 
ENDBRANCH  16  26
ENDBRANCH   1  16
TORSDOF 3
ENDMDL
MODEL 2
REMARK VINA RESULT:      -8.6      3.328      8.205
REMARK  Name = 
REMARK  3 active torsions:
REMARK  status: ('A' for Active; 'I' for Inactive)
REMARK    1  A    between atoms: C_5  and  C_6
REMARK    2  A    between atoms: C_6  and  C_7
REMARK    3  A    between atoms: C_10  and  C_11
REMARK                            x       y       z     vdW  Elec       q    Type
REMARK                         _______ _______ _______ _____ _____    ______ ____
ROOT
ATOM      1  C   UNL     1       5.223   5.798  17.814  0.00  0.00    +0.000 A 
ATOM      2  N   UNL     1       4.604   4.854  18.496  0.00  0.00    +0.000 NA
ATOM      3  N   UNL     1       3.460   5.421  19.001  0.00  0.00    +0.000 NA
ATOM      4  C   UNL     1       3.440   6.675  18.586  0.00  0.00    +0.000 A 
ATOM      5  O   UNL     1       4.538   6.988  17.822  0.00  0.00    +0.000 OA
ENDROOT
BRANCH   4   6
ATOM      6  C   UNL     1       2.433   7.704  18.815  0.00  0.00    +0.000 A 
ATOM      7  C   UNL     1       2.019   8.515  17.764  0.00  0.00    +0.000 A 
ATOM      8  C   UNL     1       1.100   9.524  18.021  0.00  0.00    +0.000 A 
ATOM      9  C   UNL     1       0.621   9.706  19.321  0.00  0.00    +0.000 A 
ATOM     10  C   UNL     1      -0.286  10.736  19.628  0.00  0.00    +0.000 A 
ATOM     11  C   UNL     1      -0.738  10.907  20.934  0.00  0.00    +0.000 A 
ATOM     12  C   UNL     1      -0.292  10.048  21.931  0.00  0.00    +0.000 A 
ATOM     13  C   UNL     1       0.606   9.021  21.620  0.00  0.00    +0.000 A 
ATOM     14  C   UNL     1       1.082   8.832  20.329  0.00  0.00    +0.000 A 
ATOM     15  N   UNL     1       1.964   7.845  20.082  0.00  0.00    +0.000 NA
ENDBRANCH   4   6
BRANCH   1  16
ATOM     16  C   UNL     1       6.533   5.712  17.047  0.00  0.00    +0.000 C 
ATOM     17  C   UNL     1       7.103   7.141  16.825  0.00  0.00    +0.000 C 
ATOM     18  C   UNL     1       7.524   7.793  18.138  0.00  0.00    +0.000 C 
ATOM     19  O   UNL     1       8.474   6.973  18.815  0.00  0.00    +0.000 OA
ATOM     20  C   UNL     1       7.937   5.703  19.179  0.00  0.00    +0.000 C 
ATOM     21  C   UNL     1       7.545   4.920  17.928  0.00  0.00    +0.000 C 
BRANCH  16  26
ATOM     22 BR   UNL     1       5.773   2.768  11.559  0.00  0.00    +0.000 Br
ATOM     23  C   UNL     1       6.006   3.657  13.210  0.00  0.00    +0.000 A 
ATOM     24  C   UNL     1       7.118   4.465  13.411  0.00  0.00    +0.000 A 
ATOM     25  C   UNL     1       7.292   5.124  14.634  0.00  0.00    +0.000 A 
ATOM     26  C   UNL     1       6.362   4.989  15.683  0.00  0.00    +0.000 A 
ATOM     27  C   UNL     1       5.240   4.165  15.442  0.00  0.00    +0.000 A 
ATOM     28  C   UNL     1       5.064   3.505  14.220  0.00  0.00    +0.000 A 
ENDBRANCH  16  26
ENDBRANCH   1  16
TORSDOF 3
ENDMDL
MODEL 3
REMARK VINA RESULT:      -8.3      4.704      7.753
REMARK  Name = 
REMARK  3 active torsions:
REMARK  status: ('A' for Active; 'I' for Inactive)
REMARK    1  A    between atoms: C_5  and  C_6
REMARK    2  A    between atoms: C_6  and  C_7
REMARK    3  A    between atoms: C_10  and  C_11
REMARK                            x       y       z     vdW  Elec       q    Type
REMARK                         _______ _______ _______ _____ _____    ______ ____
ROOT
ATOM      1  C   UNL     1       0.691  10.812  20.903  0.00  0.00    +0.000 A 
ATOM      2  N   UNL     1       1.004  10.429  22.125  0.00  0.00    +0.000 NA
ATOM      3  N   UNL     1       1.431   9.127  22.032  0.00  0.00    +0.000 NA
ATOM      4  C   UNL     1       1.367   8.795  20.755  0.00  0.00    +0.000 A 
ATOM      5  O   UNL     1       0.900   9.824  19.973  0.00  0.00    +0.000 OA
ENDROOT
BRANCH   4   6
ATOM      6  C   UNL     1       1.733   7.539  20.112  0.00  0.00    +0.000 A 
ATOM      7  C   UNL     1       2.325   7.552  18.854  0.00  0.00    +0.000 A 
ATOM      8  C   UNL     1       2.613   6.340  18.239  0.00  0.00    +0.000 A 
ATOM      9  C   UNL     1       2.296   5.144  18.888  0.00  0.00    +0.000 A 
ATOM     10  C   UNL     1       2.542   3.898  18.287  0.00  0.00    +0.000 A 
ATOM     11  C   UNL     1       2.203   2.720  18.947  0.00  0.00    +0.000 A 
ATOM     12  C   UNL     1       1.627   2.785  20.210  0.00  0.00    +0.000 A 
ATOM     13  C   UNL     1       1.389   4.027  20.808  0.00  0.00    +0.000 A 
ATOM     14  C   UNL     1       1.707   5.218  20.169  0.00  0.00    +0.000 A 
ATOM     15  N   UNL     1       1.437   6.391  20.774  0.00  0.00    +0.000 NA
ENDBRANCH   4   6
BRANCH   1  16
ATOM     16  C   UNL     1       0.169  12.160  20.434  0.00  0.00    +0.000 C 
ATOM     17  C   UNL     1       0.969  13.299  21.126  0.00  0.00    +0.000 C 
ATOM     18  C   UNL     1       2.425  13.326  20.670  0.00  0.00    +0.000 C 
ATOM     19  O   UNL     1       2.497  13.451  19.252  0.00  0.00    +0.000 OA
ATOM     20  C   UNL     1       1.909  12.341  18.576  0.00  0.00    +0.000 C 
ATOM     21  C   UNL     1       0.420  12.257  18.900  0.00  0.00    +0.000 C 
BRANCH  16  26
ATOM     22 BR   UNL     1      -5.945  12.846  21.661  0.00  0.00    +0.000 Br
ATOM     23  C   UNL     1      -4.105  12.640  21.287  0.00  0.00    +0.000 A 
ATOM     24  C   UNL     1      -3.674  12.530  19.970  0.00  0.00    +0.000 A 
ATOM     25  C   UNL     1      -2.311  12.377  19.692  0.00  0.00    +0.000 A 
ATOM     26  C   UNL     1      -1.349  12.327  20.720  0.00  0.00    +0.000 A 
ATOM     27  C   UNL     1      -1.822  12.447  22.045  0.00  0.00    +0.000 A 
ATOM     28  C   UNL     1      -3.185  12.601  22.327  0.00  0.00    +0.000 A 
ENDBRANCH  16  26
ENDBRANCH   1  16
TORSDOF 3
ENDMDL
MODEL 4
REMARK VINA RESULT:      -8.2      4.614      7.412
REMARK  Name = 
REMARK  3 active torsions:
REMARK  status: ('A' for Active; 'I' for Inactive)
REMARK    1  A    between atoms: C_5  and  C_6
REMARK    2  A    between atoms: C_6  and  C_7
REMARK    3  A    between atoms: C_10  and  C_11
REMARK                            x       y       z     vdW  Elec       q    Type
REMARK                         _______ _______ _______ _____ _____    ______ ____
ROOT
ATOM      1  C   UNL     1       0.895  10.727  20.701  0.00  0.00    +0.000 A 
ATOM      2  N   UNL     1       1.050  10.335  21.951  0.00  0.00    +0.000 NA
ATOM      3  N   UNL     1       1.403   9.009  21.905  0.00  0.00    +0.000 NA
ATOM      4  C   UNL     1       1.458   8.672  20.629  0.00  0.00    +0.000 A 
ATOM      5  O   UNL     1       1.143   9.721  19.800  0.00  0.00    +0.000 OA
ENDROOT
BRANCH   4   6
ATOM      6  C   UNL     1       1.813   7.392  20.030  0.00  0.00    +0.000 A 
ATOM      7  C   UNL     1       2.438   7.357  18.788  0.00  0.00    +0.000 A 
ATOM      8  C   UNL     1       2.716   6.123  18.214  0.00  0.00    +0.000 A 
ATOM      9  C   UNL     1       2.355   4.952  18.887  0.00  0.00    +0.000 A 
ATOM     10  C   UNL     1       2.590   3.685  18.326  0.00  0.00    +0.000 A 
ATOM     11  C   UNL     1       2.208   2.533  19.009  0.00  0.00    +0.000 A 
ATOM     12  C   UNL     1       1.601   2.645  20.253  0.00  0.00    +0.000 A 
ATOM     13  C   UNL     1       1.375   3.908  20.811  0.00  0.00    +0.000 A 
ATOM     14  C   UNL     1       1.735   5.074  20.149  0.00  0.00    +0.000 A 
ATOM     15  N   UNL     1       1.475   6.269  20.714  0.00  0.00    +0.000 NA
ENDBRANCH   4   6
BRANCH   1  16
ATOM     16  C   UNL     1       0.511  12.101  20.179  0.00  0.00    +0.000 C 
ATOM     17  C   UNL     1      -0.369  11.949  18.906  0.00  0.00    +0.000 C 
ATOM     18  C   UNL     1      -1.721  11.319  19.224  0.00  0.00    +0.000 C 
ATOM     19  O   UNL     1      -2.402  12.084  20.216  0.00  0.00    +0.000 OA
ATOM     20  C   UNL     1      -1.699  12.118  21.456  0.00  0.00    +0.000 C 
ATOM     21  C   UNL     1      -0.346  12.802  21.276  0.00  0.00    +0.000 C 
BRANCH  16  26
ATOM     22 BR   UNL     1       5.532  15.612  18.829  0.00  0.00    +0.000 Br
ATOM     23  C   UNL     1       4.020  14.557  19.240  0.00  0.00    +0.000 A 
ATOM     24  C   UNL     1       3.565  14.479  20.551  0.00  0.00    +0.000 A 
ATOM     25  C   UNL     1       2.445  13.697  20.857  0.00  0.00    +0.000 A 
ATOM     26  C   UNL     1       1.757  12.974  19.863  0.00  0.00    +0.000 A 
ATOM     27  C   UNL     1       2.243  13.080  18.541  0.00  0.00    +0.000 A 
ATOM     28  C   UNL     1       3.363  13.862  18.232  0.00  0.00    +0.000 A 
ENDBRANCH  16  26
ENDBRANCH   1  16
TORSDOF 3
ENDMDL
MODEL 5
REMARK VINA RESULT:      -8.2      4.655      7.692
REMARK  Name = 
REMARK  3 active torsions:
REMARK  status: ('A' for Active; 'I' for Inactive)
REMARK    1  A    between atoms: C_5  and  C_6
REMARK    2  A    between atoms: C_6  and  C_7
REMARK    3  A    between atoms: C_10  and  C_11
REMARK                            x       y       z     vdW  Elec       q    Type
REMARK                         _______ _______ _______ _____ _____    ______ ____
ROOT
ATOM      1  C   UNL     1       0.640  10.880  20.541  0.00  0.00    +0.000 A 
ATOM      2  N   UNL     1       0.858  10.556  21.801  0.00  0.00    +0.000 NA
ATOM      3  N   UNL     1       1.300   9.257  21.802  0.00  0.00    +0.000 NA
ATOM      4  C   UNL     1       1.341   8.866  20.540  0.00  0.00    +0.000 A 
ATOM      5  O   UNL     1       0.930   9.853  19.677  0.00  0.00    +0.000 OA
ENDROOT
BRANCH   4   6
ATOM      6  C   UNL     1       1.766   7.587  19.986  0.00  0.00    +0.000 A 
ATOM      7  C   UNL     1       2.410   7.544  18.755  0.00  0.00    +0.000 A 
ATOM      8  C   UNL     1       2.755   6.308  18.224  0.00  0.00    +0.000 A 
ATOM      9  C   UNL     1       2.441   5.142  18.928  0.00  0.00    +0.000 A 
ATOM     10  C   UNL     1       2.745   3.871  18.410  0.00  0.00    +0.000 A 
ATOM     11  C   UNL     1       2.409   2.724  19.124  0.00  0.00    +0.000 A 
ATOM     12  C   UNL     1       1.778   2.844  20.356  0.00  0.00    +0.000 A 
ATOM     13  C   UNL     1       1.484   4.112  20.871  0.00  0.00    +0.000 A 
ATOM     14  C   UNL     1       1.797   5.273  20.177  0.00  0.00    +0.000 A 
ATOM     15  N   UNL     1       1.471   6.470  20.701  0.00  0.00    +0.000 NA
ENDBRANCH   4   6
BRANCH   1  16
ATOM     16  C   UNL     1       0.146  12.200  19.972  0.00  0.00    +0.000 C 
ATOM     17  C   UNL     1       0.618  13.370  20.880  0.00  0.00    +0.000 C 
ATOM     18  C   UNL     1       2.134  13.536  20.849  0.00  0.00    +0.000 C 
ATOM     19  O   UNL     1       2.583  13.728  19.510  0.00  0.00    +0.000 OA
ATOM     20  C   UNL     1       2.308  12.604  18.676  0.00  0.00    +0.000 C 
ATOM     21  C   UNL     1       0.801  12.384  18.570  0.00  0.00    +0.000 C 
BRANCH  16  26
ATOM     22 BR   UNL     1      -6.093  12.273  19.321  0.00  0.00    +0.000 Br
ATOM     23  C   UNL     1      -4.214  12.253  19.522  0.00  0.00    +0.000 A 
ATOM     24  C   UNL     1      -3.632  12.826  20.645  0.00  0.00    +0.000 A 
ATOM     25  C   UNL     1      -2.240  12.812  20.795  0.00  0.00    +0.000 A 
ATOM     26  C   UNL     1      -1.400  12.229  19.826  0.00  0.00    +0.000 A 
ATOM     27  C   UNL     1      -2.026  11.650  18.700  0.00  0.00    +0.000 A 
ATOM     28  C   UNL     1      -3.418  11.663  18.548  0.00  0.00    +0.000 A 
ENDBRANCH  16  26
ENDBRANCH   1  16
TORSDOF 3
ENDMDL
MODEL 6
REMARK VINA RESULT:      -8.1      4.053      6.645
REMARK  Name = 
REMARK  3 active torsions:
REMARK  status: ('A' for Active; 'I' for Inactive)
REMARK    1  A    between atoms: C_5  and  C_6
REMARK    2  A    between atoms: C_6  and  C_7
REMARK    3  A    between atoms: C_10  and  C_11
REMARK                            x       y       z     vdW  Elec       q    Type
REMARK                         _______ _______ _______ _____ _____    ______ ____
ROOT
ATOM      1  C   UNL     1       0.780  10.221  19.838  0.00  0.00    +0.000 A 
ATOM      2  N   UNL     1       0.846   9.729  21.060  0.00  0.00    +0.000 NA
ATOM      3  N   UNL     1       1.451   8.501  20.957  0.00  0.00    +0.000 NA
ATOM      4  C   UNL     1       1.733   8.320  19.679  0.00  0.00    +0.000 A 
ATOM      5  O   UNL     1       1.331   9.380  18.903  0.00  0.00    +0.000 OA
ENDROOT
BRANCH   4   6
ATOM      6  C   UNL     1       2.403   7.198  19.034  0.00  0.00    +0.000 A 
ATOM      7  C   UNL     1       2.209   5.907  19.513  0.00  0.00    +0.000 A 
ATOM      8  C   UNL     1       2.902   4.861  18.916  0.00  0.00    +0.000 A 
ATOM      9  C   UNL     1       3.779   5.128  17.862  0.00  0.00    +0.000 A 
ATOM     10  C   UNL     1       4.522   4.103  17.252  0.00  0.00    +0.000 A 
ATOM     11  C   UNL     1       5.402   4.396  16.213  0.00  0.00    +0.000 A 
ATOM     12  C   UNL     1       5.533   5.708  15.776  0.00  0.00    +0.000 A 
ATOM     13  C   UNL     1       4.786   6.725  16.382  0.00  0.00    +0.000 A 
ATOM     14  C   UNL     1       3.910   6.465  17.427  0.00  0.00    +0.000 A 
ATOM     15  N   UNL     1       3.231   7.480  17.996  0.00  0.00    +0.000 NA
ENDBRANCH   4   6
BRANCH   1  16
ATOM     16  C   UNL     1       0.209  11.553  19.381  0.00  0.00    +0.000 C 
ATOM     17  C   UNL     1       0.422  12.622  20.490  0.00  0.00    +0.000 C 
ATOM     18  C   UNL     1       1.900  12.941  20.691  0.00  0.00    +0.000 C 
ATOM     19  O   UNL     1       2.486  13.368  19.463  0.00  0.00    +0.000 OA
ATOM     20  C   UNL     1       2.451  12.354  18.461  0.00  0.00    +0.000 C 
ATOM     21  C   UNL     1       1.006  12.001  18.119  0.00  0.00    +0.000 C 
BRANCH  16  26
ATOM     22 BR   UNL     1      -5.899  11.188  17.995  0.00  0.00    +0.000 Br
ATOM     23  C   UNL     1      -4.059  11.295  18.408  0.00  0.00    +0.000 A 
ATOM     24  C   UNL     1      -3.152  10.472  17.751  0.00  0.00    +0.000 A 
ATOM     25  C   UNL     1      -1.788  10.550  18.057  0.00  0.00    +0.000 A 
ATOM     26  C   UNL     1      -1.300  11.448  19.026  0.00  0.00    +0.000 A 
ATOM     27  C   UNL     1      -2.249  12.272  19.671  0.00  0.00    +0.000 A 
ATOM     28  C   UNL     1      -3.613  12.197  19.367  0.00  0.00    +0.000 A 
ENDBRANCH  16  26
ENDBRANCH   1  16
TORSDOF 3
ENDMDL
MODEL 7
REMARK VINA RESULT:      -8.0      4.344      7.330
REMARK  Name = 
REMARK  3 active torsions:
REMARK  status: ('A' for Active; 'I' for Inactive)
REMARK    1  A    between atoms: C_5  and  C_6
REMARK    2  A    between atoms: C_6  and  C_7
REMARK    3  A    between atoms: C_10  and  C_11
REMARK                            x       y       z     vdW  Elec       q    Type
REMARK                         _______ _______ _______ _____ _____    ______ ____
ROOT
ATOM      1  C   UNL     1       0.495  10.714  20.407  0.00  0.00    +0.000 A 
ATOM      2  N   UNL     1       0.671  10.451  21.688  0.00  0.00    +0.000 NA
ATOM      3  N   UNL     1       1.184   9.179  21.760  0.00  0.00    +0.000 NA
ATOM      4  C   UNL     1       1.305   8.745  20.519  0.00  0.00    +0.000 A 
ATOM      5  O   UNL     1       0.881   9.674  19.599  0.00  0.00    +0.000 OA
ENDROOT
BRANCH   4   6
ATOM      6  C   UNL     1       1.825   7.472  20.036  0.00  0.00    +0.000 A 
ATOM      7  C   UNL     1       1.547   6.301  20.733  0.00  0.00    +0.000 A 
ATOM      8  C   UNL     1       2.101   5.109  20.284  0.00  0.00    +0.000 A 
ATOM      9  C   UNL     1       2.926   5.113  19.156  0.00  0.00    +0.000 A 
ATOM     10  C   UNL     1       3.531   3.933  18.688  0.00  0.00    +0.000 A 
ATOM     11  C   UNL     1       4.362   3.966  17.571  0.00  0.00    +0.000 A 
ATOM     12  C   UNL     1       4.582   5.172  16.916  0.00  0.00    +0.000 A 
ATOM     13  C   UNL     1       3.973   6.342  17.381  0.00  0.00    +0.000 A 
ATOM     14  C   UNL     1       3.149   6.343  18.499  0.00  0.00    +0.000 A 
ATOM     15  N   UNL     1       2.604   7.499  18.924  0.00  0.00    +0.000 NA
ENDBRANCH   4   6
BRANCH   1  16
ATOM     16  C   UNL     1      -0.043  11.981  19.763  0.00  0.00    +0.000 C 
ATOM     17  C   UNL     1       0.095  13.171  20.756  0.00  0.00    +0.000 C 
ATOM     18  C   UNL     1       1.555  13.521  21.020  0.00  0.00    +0.000 C 
ATOM     19  O   UNL     1       2.225  13.810  19.794  0.00  0.00    +0.000 OA
ATOM     20  C   UNL     1       2.258  12.689  18.914  0.00  0.00    +0.000 C 
ATOM     21  C   UNL     1       0.839  12.289  18.516  0.00  0.00    +0.000 C 
BRANCH  16  26
ATOM     22 BR   UNL     1      -6.045  11.404  18.031  0.00  0.00    +0.000 Br
ATOM     23  C   UNL     1      -4.236  11.575  18.549  0.00  0.00    +0.000 A 
ATOM     24  C   UNL     1      -3.241  10.957  17.803  0.00  0.00    +0.000 A 
ATOM     25  C   UNL     1      -1.900  11.083  18.185  0.00  0.00    +0.000 A 
ATOM     26  C   UNL     1      -1.524  11.826  19.321  0.00  0.00    +0.000 A 
ATOM     27  C   UNL     1      -2.561  12.446  20.053  0.00  0.00    +0.000 A 
ATOM     28  C   UNL     1      -3.903  12.322  19.673  0.00  0.00    +0.000 A 
ENDBRANCH  16  26
ENDBRANCH   1  16
TORSDOF 3
ENDMDL
MODEL 8
REMARK VINA RESULT:      -8.0      4.806      7.764
REMARK  Name = 
REMARK  3 active torsions:
REMARK  status: ('A' for Active; 'I' for Inactive)
REMARK    1  A    between atoms: C_5  and  C_6
REMARK    2  A    between atoms: C_6  and  C_7
REMARK    3  A    between atoms: C_10  and  C_11
REMARK                            x       y       z     vdW  Elec       q    Type
REMARK                         _______ _______ _______ _____ _____    ______ ____
ROOT
ATOM      1  C   UNL     1      -0.114  11.083  20.252  0.00  0.00    +0.000 A 
ATOM      2  N   UNL     1      -0.107  10.496  21.433  0.00  0.00    +0.000 NA
ATOM      3  N   UNL     1       0.621   9.341  21.293  0.00  0.00    +0.000 NA
ATOM      4  C   UNL     1       1.031   9.297  20.038  0.00  0.00    +0.000 A 
ATOM      5  O   UNL     1       0.596  10.379  19.311  0.00  0.00    +0.000 OA
ENDROOT
BRANCH   4   6
ATOM      6  C   UNL     1       1.860   8.298  19.375  0.00  0.00    +0.000 A 
ATOM      7  C   UNL     1       2.379   8.556  18.111  0.00  0.00    +0.000 A 
ATOM      8  C   UNL     1       3.119   7.566  17.478  0.00  0.00    +0.000 A 
ATOM      9  C   UNL     1       3.319   6.339  18.117  0.00  0.00    +0.000 A 
ATOM     10  C   UNL     1       4.036   5.301  17.497  0.00  0.00    +0.000 A 
ATOM     11  C   UNL     1       4.208   4.081  18.147  0.00  0.00    +0.000 A 
ATOM     12  C   UNL     1       3.674   3.901  19.417  0.00  0.00    +0.000 A 
ATOM     13  C   UNL     1       2.967   4.939  20.033  0.00  0.00    +0.000 A 
ATOM     14  C   UNL     1       2.769   6.162  19.405  0.00  0.00    +0.000 A 
ATOM     15  N   UNL     1       2.060   7.123  20.027  0.00  0.00    +0.000 NA
ENDBRANCH   4   6
BRANCH   1  16
ATOM     16  C   UNL     1      -0.770  12.392  19.845  0.00  0.00    +0.000 C 
ATOM     17  C   UNL     1      -0.688  13.405  21.022  0.00  0.00    +0.000 C 
ATOM     18  C   UNL     1       0.750  13.825  21.308  0.00  0.00    +0.000 C 
ATOM     19  O   UNL     1       1.350  14.369  20.135  0.00  0.00    +0.000 OA
ATOM     20  C   UNL     1       1.437  13.418  19.076  0.00  0.00    +0.000 C 
ATOM     21  C   UNL     1       0.039  12.976  18.649  0.00  0.00    +0.000 C 
BRANCH  16  26
ATOM     22 BR   UNL     1      -6.769  11.631  18.175  0.00  0.00    +0.000 Br
ATOM     23  C   UNL     1      -4.961  11.858  18.673  0.00  0.00    +0.000 A 
ATOM     24  C   UNL     1      -3.951  11.345  17.869  0.00  0.00    +0.000 A 
ATOM     25  C   UNL     1      -2.611  11.512  18.238  0.00  0.00    +0.000 A 
ATOM     26  C   UNL     1      -2.250  12.193  19.417  0.00  0.00    +0.000 A 
ATOM     27  C   UNL     1      -3.302  12.706  20.208  0.00  0.00    +0.000 A 
ATOM     28  C   UNL     1      -4.643  12.540  19.842  0.00  0.00    +0.000 A 
ENDBRANCH  16  26
ENDBRANCH   1  16
TORSDOF 3
ENDMDL
MODEL 9
REMARK VINA RESULT:      -8.0      5.010      8.216
REMARK  Name = 
REMARK  3 active torsions:
REMARK  status: ('A' for Active; 'I' for Inactive)
REMARK    1  A    between atoms: C_5  and  C_6
REMARK    2  A    between atoms: C_6  and  C_7
REMARK    3  A    between atoms: C_10  and  C_11
REMARK                            x       y       z     vdW  Elec       q    Type
REMARK                         _______ _______ _______ _____ _____    ______ ____
ROOT
ATOM      1  C   UNL     1      -0.063  11.585  20.479  0.00  0.00    +0.000 A 
ATOM      2  N   UNL     1       0.297  11.312  21.719  0.00  0.00    +0.000 NA
ATOM      3  N   UNL     1       0.953  10.106  21.680  0.00  0.00    +0.000 NA
ATOM      4  C   UNL     1       0.969   9.720  20.417  0.00  0.00    +0.000 A 
ATOM      5  O   UNL     1       0.335  10.616  19.591  0.00  0.00    +0.000 OA
ENDROOT
BRANCH   4   6
ATOM      6  C   UNL     1       1.566   8.528  19.827  0.00  0.00    +0.000 A 
ATOM      7  C   UNL     1       2.035   8.563  18.519  0.00  0.00    +0.000 A 
ATOM      8  C   UNL     1       2.548   7.399  17.961  0.00  0.00    +0.000 A 
ATOM      9  C   UNL     1       2.573   6.224  18.718  0.00  0.00    +0.000 A 
ATOM     10  C   UNL     1       3.055   5.018  18.180  0.00  0.00    +0.000 A 
ATOM     11  C   UNL     1       3.055   3.857  18.950  0.00  0.00    +0.000 A 
ATOM     12  C   UNL     1       2.583   3.901  20.256  0.00  0.00    +0.000 A 
ATOM     13  C   UNL     1       2.111   5.105  20.789  0.00  0.00    +0.000 A 
ATOM     14  C   UNL     1       2.088   6.276  20.043  0.00  0.00    +0.000 A 
ATOM     15  N   UNL     1       1.601   7.406  20.591  0.00  0.00    +0.000 NA
ENDBRANCH   4   6
BRANCH   1  16
ATOM     16  C   UNL     1      -0.814  12.797  19.954  0.00  0.00    +0.000 C 
ATOM     17  C   UNL     1      -0.795  13.927  21.022  0.00  0.00    +0.000 C 
ATOM     18  C   UNL     1       0.611  14.472  21.245  0.00  0.00    +0.000 C 
ATOM     19  O   UNL     1       1.163  14.936  20.015  0.00  0.00    +0.000 OA
ATOM     20  C   UNL     1       1.310  13.892  19.055  0.00  0.00    +0.000 C 
ATOM     21  C   UNL     1      -0.056  13.313  18.694  0.00  0.00    +0.000 C 
BRANCH  16  26
ATOM     22 BR   UNL     1      -6.704  11.364  18.341  0.00  0.00    +0.000 Br
ATOM     23  C   UNL     1      -4.932  11.797  18.831  0.00  0.00    +0.000 A 
ATOM     24  C   UNL     1      -4.691  12.503  20.003  0.00  0.00    +0.000 A 
ATOM     25  C   UNL     1      -3.378  12.826  20.367  0.00  0.00    +0.000 A 
ATOM     26  C   UNL     1      -2.279  12.452  19.569  0.00  0.00    +0.000 A 
ATOM     27  C   UNL     1      -2.560  11.731  18.388  0.00  0.00    +0.000 A 
ATOM     28  C   UNL     1      -3.872  11.407  18.021  0.00  0.00    +0.000 A 
ENDBRANCH  16  26
ENDBRANCH   1  16
TORSDOF 3
ENDMDL
