MODEL 1
REMARK VINA RESULT:      -9.3      0.000      0.000
REMARK  Name = 
REMARK  6 active torsions:
REMARK  status: ('A' for Active; 'I' for Inactive)
REMARK    1  A    between atoms: C_2  and  C_11
REMARK    2  A    between atoms: N_3  and  C_4
REMARK    3  A    between atoms: C_11  and  N_12
REMARK    4  A    between atoms: C_11  and  C_25
REMARK    5  A    between atoms: N_12  and  C_13
REMARK    6  A    between atoms: C_16  and  N_17
REMARK                            x       y       z     vdW  Elec       q    Type
REMARK                         _______ _______ _______ _____ _____    ______ ____
ROOT
ATOM      1  C   UNL     1       2.536   6.293  19.008  0.00  0.00    +0.000 C 
ENDROOT
BRANCH   1   2
ATOM      2  C   UNL     1       2.043   5.029  19.708  0.00  0.00    +0.000 A 
ATOM      3  C   UNL     1       1.271   4.105  18.981  0.00  0.00    +0.000 A 
ATOM      4  C   UNL     1       0.860   2.902  19.557  0.00  0.00    +0.000 A 
ATOM      5  C   UNL     1       1.213   2.604  20.870  0.00  0.00    +0.000 A 
ATOM      6  C   UNL     1       1.963   3.514  21.611  0.00  0.00    +0.000 A 
ATOM      7  C   UNL     1       2.381   4.717  21.035  0.00  0.00    +0.000 A 
ENDBRANCH   1   2
BRANCH   1   9
ATOM      8  O   UNL     1       1.776   7.669  20.861  0.00  0.00    +0.000 OA
ATOM      9  C   UNL     1       1.989   7.605  19.650  0.00  0.00    +0.000 C 
ATOM     10  N   UNL     1       1.749   8.623  18.737  0.00  0.00    +0.000 N 
ATOM     11  H   UNL     1       1.993   8.386  17.777  0.00  0.00    +0.000 HD
BRANCH  10  12
ATOM     12  C   UNL     1       1.112   9.862  18.973  0.00  0.00    +0.000 A 
ATOM     13  C   UNL     1      -0.121   9.988  19.625  0.00  0.00    +0.000 A 
ATOM     14  C   UNL     1      -0.720  11.240  19.789  0.00  0.00    +0.000 A 
ATOM     15  C   UNL     1      -0.085  12.377  19.305  0.00  0.00    +0.000 A 
ATOM     16  F   UNL     1      -0.669  13.574  19.449  0.00  0.00    +0.000 F 
ATOM     17  C   UNL     1       1.141  12.281  18.663  0.00  0.00    +0.000 A 
ATOM     18  C   UNL     1       1.740  11.024  18.498  0.00  0.00    +0.000 A 
ENDBRANCH  10  12
ENDBRANCH   1   9
BRANCH   1  19
ATOM     19  N   UNL     1       4.029   6.252  18.957  0.00  0.00    +0.000 N 
ATOM     20  H   UNL     1       4.388   5.725  19.754  0.00  0.00    +0.000 HD
BRANCH  19  21
ATOM     21  C   UNL     1       4.635   5.810  17.767  0.00  0.00    +0.000 A 
ATOM     22  C   UNL     1       4.980   4.477  17.546  0.00  0.00    +0.000 A 
ATOM     23  C   UNL     1       5.465   4.041  16.309  0.00  0.00    +0.000 A 
ATOM     24  C   UNL     1       5.630   4.915  15.233  0.00  0.00    +0.000 A 
ATOM     25  C   UNL     1       5.271   6.253  15.442  0.00  0.00    +0.000 A 
ATOM     26  C   UNL     1       4.755   6.684  16.680  0.00  0.00    +0.000 A 
BRANCH  24  27
ATOM     27  N   UNL     1       6.149   4.458  13.990  0.00  0.00    +0.000 N 
ATOM     28  C   UNL     1       5.406   3.597  13.100  0.00  0.00    +0.000 C 
ATOM     29  C   UNL     1       6.405   3.191  12.034  0.00  0.00    +0.000 C 
ATOM     30  C   UNL     1       7.367   4.359  11.974  0.00  0.00    +0.000 C 
ATOM     31  C   UNL     1       7.321   4.922  13.371  0.00  0.00    +0.000 C 
ATOM     32  O   UNL     1       8.183   5.674  13.802  0.00  0.00    +0.000 OA
ENDBRANCH  24  27
ENDBRANCH  19  21
ENDBRANCH   1  19
TORSDOF 6
ENDMDL
MODEL 2
REMARK VINA RESULT:      -9.2      0.491      1.279
REMARK  Name = 
REMARK  6 active torsions:
REMARK  status: ('A' for Active; 'I' for Inactive)
REMARK    1  A    between atoms: C_2  and  C_11
REMARK    2  A    between atoms: N_3  and  C_4
REMARK    3  A    between atoms: C_11  and  N_12
REMARK    4  A    between atoms: C_11  and  C_25
REMARK    5  A    between atoms: N_12  and  C_13
REMARK    6  A    between atoms: C_16  and  N_17
REMARK                            x       y       z     vdW  Elec       q    Type
REMARK                         _______ _______ _______ _____ _____    ______ ____
ROOT
ATOM      1  C   UNL     1       2.619   6.195  18.731  0.00  0.00    +0.000 C 
ENDROOT
BRANCH   1   2
ATOM      2  C   UNL     1       2.149   4.981  19.528  0.00  0.00    +0.000 A 
ATOM      3  C   UNL     1       2.632   4.798  20.837  0.00  0.00    +0.000 A 
ATOM      4  C   UNL     1       2.175   3.743  21.630  0.00  0.00    +0.000 A 
ATOM      5  C   UNL     1       1.229   2.855  21.126  0.00  0.00    +0.000 A 
ATOM      6  C   UNL     1       0.752   3.011  19.827  0.00  0.00    +0.000 A 
ATOM      7  C   UNL     1       1.203   4.068  19.033  0.00  0.00    +0.000 A 
ENDBRANCH   1   2
BRANCH   1   9
ATOM      8  O   UNL     1       1.757   7.680  20.450  0.00  0.00    +0.000 OA
ATOM      9  C   UNL     1       2.036   7.542  19.259  0.00  0.00    +0.000 C 
ATOM     10  N   UNL     1       1.844   8.499  18.272  0.00  0.00    +0.000 N 
ATOM     11  H   UNL     1       2.141   8.203  17.343  0.00  0.00    +0.000 HD
BRANCH  10  12
ATOM     12  C   UNL     1       1.194   9.747  18.394  0.00  0.00    +0.000 A 
ATOM     13  C   UNL     1       1.868  10.953  18.625  0.00  0.00    +0.000 A 
ATOM     14  C   UNL     1       1.162  12.150  18.780  0.00  0.00    +0.000 A 
ATOM     15  C   UNL     1      -0.226  12.148  18.701  0.00  0.00    +0.000 A 
ATOM     16  F   UNL     1      -0.900  13.292  18.865  0.00  0.00    +0.000 F 
ATOM     17  C   UNL     1      -0.916  10.968  18.464  0.00  0.00    +0.000 A 
ATOM     18  C   UNL     1      -0.207   9.768  18.310  0.00  0.00    +0.000 A 
ENDBRANCH  10  12
ENDBRANCH   1   9
BRANCH   1  19
ATOM     19  N   UNL     1       4.113   6.185  18.694  0.00  0.00    +0.000 N 
ATOM     20  H   UNL     1       4.475   5.673  19.500  0.00  0.00    +0.000 HD
BRANCH  19  21
ATOM     21  C   UNL     1       4.740   5.743  17.515  0.00  0.00    +0.000 A 
ATOM     22  C   UNL     1       5.093   4.411  17.302  0.00  0.00    +0.000 A 
ATOM     23  C   UNL     1       5.600   3.975  16.073  0.00  0.00    +0.000 A 
ATOM     24  C   UNL     1       5.779   4.848  14.999  0.00  0.00    +0.000 A 
ATOM     25  C   UNL     1       5.411   6.185  15.199  0.00  0.00    +0.000 A 
ATOM     26  C   UNL     1       4.873   6.616  16.429  0.00  0.00    +0.000 A 
BRANCH  24  27
ATOM     27  N   UNL     1       6.319   4.391  13.765  0.00  0.00    +0.000 N 
ATOM     28  C   UNL     1       5.627   3.463  12.902  0.00  0.00    +0.000 C 
ATOM     29  C   UNL     1       6.645   3.092  11.841  0.00  0.00    +0.000 C 
ATOM     30  C   UNL     1       7.533   4.314  11.745  0.00  0.00    +0.000 C 
ATOM     31  C   UNL     1       7.459   4.909  13.127  0.00  0.00    +0.000 C 
ATOM     32  O   UNL     1       8.274   5.724  13.534  0.00  0.00    +0.000 OA
ENDBRANCH  24  27
ENDBRANCH  19  21
ENDBRANCH   1  19
TORSDOF 6
ENDMDL
MODEL 3
REMARK VINA RESULT:      -9.1      0.241      1.257
REMARK  Name = 
REMARK  6 active torsions:
REMARK  status: ('A' for Active; 'I' for Inactive)
REMARK    1  A    between atoms: C_2  and  C_11
REMARK    2  A    between atoms: N_3  and  C_4
REMARK    3  A    between atoms: C_11  and  N_12
REMARK    4  A    between atoms: C_11  and  C_25
REMARK    5  A    between atoms: N_12  and  C_13
REMARK    6  A    between atoms: C_16  and  N_17
REMARK                            x       y       z     vdW  Elec       q    Type
REMARK                         _______ _______ _______ _____ _____    ______ ____
ROOT
ATOM      1  C   UNL     1       2.462   6.174  18.951  0.00  0.00    +0.000 C 
ENDROOT
BRANCH   1   2
ATOM      2  C   UNL     1       2.036   4.969  19.785  0.00  0.00    +0.000 A 
ATOM      3  C   UNL     1       1.140   4.038  19.230  0.00  0.00    +0.000 A 
ATOM      4  C   UNL     1       0.779   2.884  19.928  0.00  0.00    +0.000 A 
ATOM      5  C   UNL     1       1.308   2.643  21.192  0.00  0.00    +0.000 A 
ATOM      6  C   UNL     1       2.184   3.562  21.765  0.00  0.00    +0.000 A 
ATOM      7  C   UNL     1       2.551   4.716  21.067  0.00  0.00    +0.000 A 
ENDBRANCH   1   2
BRANCH   1   9
ATOM      8  O   UNL     1       1.737   7.640  20.748  0.00  0.00    +0.000 OA
ATOM      9  C   UNL     1       1.987   7.535  19.547  0.00  0.00    +0.000 C 
ATOM     10  N   UNL     1       1.851   8.547  18.606  0.00  0.00    +0.000 N 
ATOM     11  H   UNL     1       2.112   8.272  17.660  0.00  0.00    +0.000 HD
BRANCH  10  12
ATOM     12  C   UNL     1       1.296   9.832  18.795  0.00  0.00    +0.000 A 
ATOM     13  C   UNL     1       1.957  11.019  18.457  0.00  0.00    +0.000 A 
ATOM     14  C   UNL     1       1.370  12.263  18.709  0.00  0.00    +0.000 A 
ATOM     15  C   UNL     1       0.112  12.326  19.298  0.00  0.00    +0.000 A 
ATOM     16  F   UNL     1      -0.441  13.518  19.552  0.00  0.00    +0.000 F 
ATOM     17  C   UNL     1      -0.567  11.164  19.634  0.00  0.00    +0.000 A 
ATOM     18  C   UNL     1       0.023   9.918  19.381  0.00  0.00    +0.000 A 
ENDBRANCH  10  12
ENDBRANCH   1   9
BRANCH   1  19
ATOM     19  N   UNL     1       3.942   6.113  18.755  0.00  0.00    +0.000 N 
ATOM     20  H   UNL     1       4.367   5.558  19.499  0.00  0.00    +0.000 HD
BRANCH  19  21
ATOM     21  C   UNL     1       4.424   5.695  17.501  0.00  0.00    +0.000 A 
ATOM     22  C   UNL     1       4.772   6.591  16.490  0.00  0.00    +0.000 A 
ATOM     23  C   UNL     1       5.367   6.157  15.300  0.00  0.00    +0.000 A 
ATOM     24  C   UNL     1       5.640   4.809  15.062  0.00  0.00    +0.000 A 
ATOM     25  C   UNL     1       5.309   3.905  16.079  0.00  0.00    +0.000 A 
ATOM     26  C   UNL     1       4.737   4.348  17.289  0.00  0.00    +0.000 A 
BRANCH  24  27
ATOM     27  N   UNL     1       6.222   4.385  13.835  0.00  0.00    +0.000 N 
ATOM     28  C   UNL     1       5.553   3.494  12.918  0.00  0.00    +0.000 C 
ATOM     29  C   UNL     1       6.606   3.143  11.885  0.00  0.00    +0.000 C 
ATOM     30  C   UNL     1       7.511   4.356  11.862  0.00  0.00    +0.000 C 
ATOM     31  C   UNL     1       7.391   4.909  13.258  0.00  0.00    +0.000 C 
ATOM     32  O   UNL     1       8.200   5.700  13.721  0.00  0.00    +0.000 OA
ENDBRANCH  24  27
ENDBRANCH  19  21
ENDBRANCH   1  19
TORSDOF 6
ENDMDL
MODEL 4
REMARK VINA RESULT:      -9.0      1.484      1.704
REMARK  Name = 
REMARK  6 active torsions:
REMARK  status: ('A' for Active; 'I' for Inactive)
REMARK    1  A    between atoms: C_2  and  C_11
REMARK    2  A    between atoms: N_3  and  C_4
REMARK    3  A    between atoms: C_11  and  N_12
REMARK    4  A    between atoms: C_11  and  C_25
REMARK    5  A    between atoms: N_12  and  C_13
REMARK    6  A    between atoms: C_16  and  N_17
REMARK                            x       y       z     vdW  Elec       q    Type
REMARK                         _______ _______ _______ _____ _____    ______ ____
ROOT
ATOM      1  C   UNL     1       2.613   6.174  18.838  0.00  0.00    +0.000 C 
ENDROOT
BRANCH   1   2
ATOM      2  C   UNL     1       2.117   5.026  19.714  0.00  0.00    +0.000 A 
ATOM      3  C   UNL     1       1.190   4.113  19.179  0.00  0.00    +0.000 A 
ATOM      4  C   UNL     1       0.762   3.008  19.917  0.00  0.00    +0.000 A 
ATOM      5  C   UNL     1       1.255   2.798  21.201  0.00  0.00    +0.000 A 
ATOM      6  C   UNL     1       2.161   3.700  21.754  0.00  0.00    +0.000 A 
ATOM      7  C   UNL     1       2.594   4.805  21.016  0.00  0.00    +0.000 A 
ENDBRANCH   1   2
BRANCH   1   9
ATOM      8  O   UNL     1       2.384   8.587  18.670  0.00  0.00    +0.000 OA
ATOM      9  C   UNL     1       2.061   7.566  19.276  0.00  0.00    +0.000 C 
ATOM     10  N   UNL     1       1.238   7.520  20.393  0.00  0.00    +0.000 N 
ATOM     11  H   UNL     1       1.080   6.581  20.755  0.00  0.00    +0.000 HD
BRANCH  10  12
ATOM     12  C   UNL     1       0.715   8.609  21.125  0.00  0.00    +0.000 A 
ATOM     13  C   UNL     1       0.404   8.549  22.489  0.00  0.00    +0.000 A 
ATOM     14  C   UNL     1      -0.152   9.650  23.147  0.00  0.00    +0.000 A 
ATOM     15  C   UNL     1      -0.396  10.823  22.443  0.00  0.00    +0.000 A 
ATOM     16  F   UNL     1      -0.943  11.870  23.072  0.00  0.00    +0.000 F 
ATOM     17  C   UNL     1      -0.089  10.911  21.093  0.00  0.00    +0.000 A 
ATOM     18  C   UNL     1       0.467   9.806  20.435  0.00  0.00    +0.000 A 
ENDBRANCH  10  12
ENDBRANCH   1   9
BRANCH   1  19
ATOM     19  N   UNL     1       4.106   6.128  18.804  0.00  0.00    +0.000 N 
ATOM     20  H   UNL     1       4.455   5.587  19.596  0.00  0.00    +0.000 HD
BRANCH  19  21
ATOM     21  C   UNL     1       4.725   5.702  17.614  0.00  0.00    +0.000 A 
ATOM     22  C   UNL     1       5.090   4.376  17.387  0.00  0.00    +0.000 A 
ATOM     23  C   UNL     1       5.587   3.954  16.149  0.00  0.00    +0.000 A 
ATOM     24  C   UNL     1       5.745   4.837  15.080  0.00  0.00    +0.000 A 
ATOM     25  C   UNL     1       5.365   6.168  15.294  0.00  0.00    +0.000 A 
ATOM     26  C   UNL     1       4.837   6.584  16.533  0.00  0.00    +0.000 A 
BRANCH  24  27
ATOM     27  N   UNL     1       6.276   4.395  13.836  0.00  0.00    +0.000 N 
ATOM     28  C   UNL     1       5.567   3.495  12.957  0.00  0.00    +0.000 C 
ATOM     29  C   UNL     1       6.577   3.127  11.888  0.00  0.00    +0.000 C 
ATOM     30  C   UNL     1       7.485   4.337  11.813  0.00  0.00    +0.000 C 
ATOM     31  C   UNL     1       7.422   4.907  13.206  0.00  0.00    +0.000 C 
ATOM     32  O   UNL     1       8.251   5.700  13.627  0.00  0.00    +0.000 OA
ENDBRANCH  24  27
ENDBRANCH  19  21
ENDBRANCH   1  19
TORSDOF 6
ENDMDL
MODEL 5
REMARK VINA RESULT:      -8.8      0.654      1.166
REMARK  Name = 
REMARK  6 active torsions:
REMARK  status: ('A' for Active; 'I' for Inactive)
REMARK    1  A    between atoms: C_2  and  C_11
REMARK    2  A    between atoms: N_3  and  C_4
REMARK    3  A    between atoms: C_11  and  N_12
REMARK    4  A    between atoms: C_11  and  C_25
REMARK    5  A    between atoms: N_12  and  C_13
REMARK    6  A    between atoms: C_16  and  N_17
REMARK                            x       y       z     vdW  Elec       q    Type
REMARK                         _______ _______ _______ _____ _____    ______ ____
ROOT
ATOM      1  C   UNL     1       2.381   6.282  19.137  0.00  0.00    +0.000 C 
ENDROOT
BRANCH   1   2
ATOM      2  C   UNL     1       2.031   4.937  19.769  0.00  0.00    +0.000 A 
ATOM      3  C   UNL     1       2.483   4.660  21.073  0.00  0.00    +0.000 A 
ATOM      4  C   UNL     1       2.128   3.474  21.719  0.00  0.00    +0.000 A 
ATOM      5  C   UNL     1       1.316   2.547  21.072  0.00  0.00    +0.000 A 
ATOM      6  C   UNL     1       0.873   2.797  19.775  0.00  0.00    +0.000 A 
ATOM      7  C   UNL     1       1.223   3.985  19.127  0.00  0.00    +0.000 A 
ENDBRANCH   1   2
BRANCH   1   9
ATOM      8  O   UNL     1       1.449   7.420  21.071  0.00  0.00    +0.000 OA
ATOM      9  C   UNL     1       1.739   7.496  19.877  0.00  0.00    +0.000 C 
ATOM     10  N   UNL     1       1.513   8.597  19.062  0.00  0.00    +0.000 N 
ATOM     11  H   UNL     1       1.826   8.475  18.101  0.00  0.00    +0.000 HD
BRANCH  10  12
ATOM     12  C   UNL     1       0.809   9.779  19.385  0.00  0.00    +0.000 A 
ATOM     13  C   UNL     1      -0.119  10.387  18.531  0.00  0.00    +0.000 A 
ATOM     14  C   UNL     1      -0.750  11.581  18.891  0.00  0.00    +0.000 A 
ATOM     15  C   UNL     1      -0.459  12.173  20.114  0.00  0.00    +0.000 A 
ATOM     16  F   UNL     1      -1.053  13.325  20.450  0.00  0.00    +0.000 F 
ATOM     17  C   UNL     1       0.450  11.587  20.983  0.00  0.00    +0.000 A 
ATOM     18  C   UNL     1       1.083  10.390  20.619  0.00  0.00    +0.000 A 
ENDBRANCH  10  12
ENDBRANCH   1   9
BRANCH   1  19
ATOM     19  N   UNL     1       3.869   6.384  19.039  0.00  0.00    +0.000 N 
ATOM     20  H   UNL     1       4.300   5.958  19.861  0.00  0.00    +0.000 HD
BRANCH  19  21
ATOM     21  C   UNL     1       4.486   5.912  17.867  0.00  0.00    +0.000 A 
ATOM     22  C   UNL     1       4.710   4.557  17.625  0.00  0.00    +0.000 A 
ATOM     23  C   UNL     1       5.209   4.104  16.400  0.00  0.00    +0.000 A 
ATOM     24  C   UNL     1       5.510   4.981  15.357  0.00  0.00    +0.000 A 
ATOM     25  C   UNL     1       5.273   6.343  15.586  0.00  0.00    +0.000 A 
ATOM     26  C   UNL     1       4.742   6.794  16.811  0.00  0.00    +0.000 A 
BRANCH  24  27
ATOM     27  N   UNL     1       6.041   4.504  14.127  0.00  0.00    +0.000 N 
ATOM     28  C   UNL     1       5.283   3.685  13.211  0.00  0.00    +0.000 C 
ATOM     29  C   UNL     1       6.291   3.234  12.172  0.00  0.00    +0.000 C 
ATOM     30  C   UNL     1       7.312   4.352  12.146  0.00  0.00    +0.000 C 
ATOM     31  C   UNL     1       7.253   4.911  13.544  0.00  0.00    +0.000 C 
ATOM     32  O   UNL     1       8.138   5.617  14.005  0.00  0.00    +0.000 OA
ENDBRANCH  24  27
ENDBRANCH  19  21
ENDBRANCH   1  19
TORSDOF 6
ENDMDL
MODEL 6
REMARK VINA RESULT:      -8.7      1.516      2.054
REMARK  Name = 
REMARK  6 active torsions:
REMARK  status: ('A' for Active; 'I' for Inactive)
REMARK    1  A    between atoms: C_2  and  C_11
REMARK    2  A    between atoms: N_3  and  C_4
REMARK    3  A    between atoms: C_11  and  N_12
REMARK    4  A    between atoms: C_11  and  C_25
REMARK    5  A    between atoms: N_12  and  C_13
REMARK    6  A    between atoms: C_16  and  N_17
REMARK                            x       y       z     vdW  Elec       q    Type
REMARK                         _______ _______ _______ _____ _____    ______ ____
ROOT
ATOM      1  C   UNL     1       2.662   6.211  18.640  0.00  0.00    +0.000 C 
ENDROOT
BRANCH   1   2
ATOM      2  C   UNL     1       2.186   5.035  19.490  0.00  0.00    +0.000 A 
ATOM      3  C   UNL     1       2.658   4.913  20.809  0.00  0.00    +0.000 A 
ATOM      4  C   UNL     1       2.196   3.895  21.646  0.00  0.00    +0.000 A 
ATOM      5  C   UNL     1       1.254   2.984  21.177  0.00  0.00    +0.000 A 
ATOM      6  C   UNL     1       0.787   3.080  19.868  0.00  0.00    +0.000 A 
ATOM      7  C   UNL     1       1.245   4.100  19.029  0.00  0.00    +0.000 A 
ENDBRANCH   1   2
BRANCH   1   9
ATOM      8  O   UNL     1       2.462   8.632  18.586  0.00  0.00    +0.000 OA
ATOM      9  C   UNL     1       2.090   7.583  19.113  0.00  0.00    +0.000 C 
ATOM     10  N   UNL     1       1.191   7.487  20.166  0.00  0.00    +0.000 N 
ATOM     11  H   UNL     1       1.002   6.531  20.465  0.00  0.00    +0.000 HD
BRANCH  10  12
ATOM     12  C   UNL     1       0.626   8.541  20.918  0.00  0.00    +0.000 A 
ATOM     13  C   UNL     1      -0.061   9.619  20.346  0.00  0.00    +0.000 A 
ATOM     14  C   UNL     1      -0.559  10.655  21.142  0.00  0.00    +0.000 A 
ATOM     15  C   UNL     1      -0.378  10.615  22.519  0.00  0.00    +0.000 A 
ATOM     16  F   UNL     1      -0.843  11.615  23.277  0.00  0.00    +0.000 F 
ATOM     17  C   UNL     1       0.291   9.554  23.111  0.00  0.00    +0.000 A 
ATOM     18  C   UNL     1       0.791   8.517  22.311  0.00  0.00    +0.000 A 
ENDBRANCH  10  12
ENDBRANCH   1   9
BRANCH   1  19
ATOM     19  N   UNL     1       4.156   6.189  18.600  0.00  0.00    +0.000 N 
ATOM     20  H   UNL     1       4.516   5.678  19.407  0.00  0.00    +0.000 HD
BRANCH  19  21
ATOM     21  C   UNL     1       4.776   5.737  17.421  0.00  0.00    +0.000 A 
ATOM     22  C   UNL     1       5.113   4.400  17.211  0.00  0.00    +0.000 A 
ATOM     23  C   UNL     1       5.613   3.955  15.982  0.00  0.00    +0.000 A 
ATOM     24  C   UNL     1       5.801   4.823  14.906  0.00  0.00    +0.000 A 
ATOM     25  C   UNL     1       5.450   6.165  15.104  0.00  0.00    +0.000 A 
ATOM     26  C   UNL     1       4.919   6.605  16.333  0.00  0.00    +0.000 A 
BRANCH  24  27
ATOM     27  N   UNL     1       6.335   4.356  13.672  0.00  0.00    +0.000 N 
ATOM     28  C   UNL     1       5.646   3.408  12.830  0.00  0.00    +0.000 C 
ATOM     29  C   UNL     1       6.657   3.035  11.763  0.00  0.00    +0.000 C 
ATOM     30  C   UNL     1       7.527   4.268  11.641  0.00  0.00    +0.000 C 
ATOM     31  C   UNL     1       7.460   4.882  13.015  0.00  0.00    +0.000 C 
ATOM     32  O   UNL     1       8.268   5.712  13.402  0.00  0.00    +0.000 OA
ENDBRANCH  24  27
ENDBRANCH  19  21
ENDBRANCH   1  19
TORSDOF 6
ENDMDL
MODEL 7
REMARK VINA RESULT:      -8.6      0.574      1.380
REMARK  Name = 
REMARK  6 active torsions:
REMARK  status: ('A' for Active; 'I' for Inactive)
REMARK    1  A    between atoms: C_2  and  C_11
REMARK    2  A    between atoms: N_3  and  C_4
REMARK    3  A    between atoms: C_11  and  N_12
REMARK    4  A    between atoms: C_11  and  C_25
REMARK    5  A    between atoms: N_12  and  C_13
REMARK    6  A    between atoms: C_16  and  N_17
REMARK                            x       y       z     vdW  Elec       q    Type
REMARK                         _______ _______ _______ _____ _____    ______ ____
ROOT
ATOM      1  C   UNL     1       2.444   6.189  19.117  0.00  0.00    +0.000 C 
ENDROOT
BRANCH   1   2
ATOM      2  C   UNL     1       2.057   4.868  19.779  0.00  0.00    +0.000 A 
ATOM      3  C   UNL     1       2.507   4.604  21.085  0.00  0.00    +0.000 A 
ATOM      4  C   UNL     1       2.119   3.444  21.757  0.00  0.00    +0.000 A 
ATOM      5  C   UNL     1       1.277   2.528  21.133  0.00  0.00    +0.000 A 
ATOM      6  C   UNL     1       0.835   2.765  19.834  0.00  0.00    +0.000 A 
ATOM      7  C   UNL     1       1.217   3.928  19.160  0.00  0.00    +0.000 A 
ENDBRANCH   1   2
BRANCH   1   9
ATOM      8  O   UNL     1       1.789   7.391  21.124  0.00  0.00    +0.000 OA
ATOM      9  C   UNL     1       1.948   7.441  19.904  0.00  0.00    +0.000 C 
ATOM     10  N   UNL     1       1.688   8.544  19.103  0.00  0.00    +0.000 N 
ATOM     11  H   UNL     1       1.887   8.396  18.115  0.00  0.00    +0.000 HD
BRANCH  10  12
ATOM     12  C   UNL     1       1.084   9.763  19.484  0.00  0.00    +0.000 A 
ATOM     13  C   UNL     1       0.897  10.153  20.816  0.00  0.00    +0.000 A 
ATOM     14  C   UNL     1       0.252  11.354  21.127  0.00  0.00    +0.000 A 
ATOM     15  C   UNL     1      -0.206  12.176  20.105  0.00  0.00    +0.000 A 
ATOM     16  F   UNL     1      -0.836  13.318  20.406  0.00  0.00    +0.000 F 
ATOM     17  C   UNL     1      -0.025  11.817  18.777  0.00  0.00    +0.000 A 
ATOM     18  C   UNL     1       0.621  10.612  18.467  0.00  0.00    +0.000 A 
ENDBRANCH  10  12
ENDBRANCH   1   9
BRANCH   1  19
ATOM     19  N   UNL     1       3.922   6.190  18.897  0.00  0.00    +0.000 N 
ATOM     20  H   UNL     1       4.384   5.673  19.647  0.00  0.00    +0.000 HD
BRANCH  19  21
ATOM     21  C   UNL     1       4.403   5.765  17.645  0.00  0.00    +0.000 A 
ATOM     22  C   UNL     1       4.624   6.643  16.585  0.00  0.00    +0.000 A 
ATOM     23  C   UNL     1       5.220   6.217  15.393  0.00  0.00    +0.000 A 
ATOM     24  C   UNL     1       5.622   4.894  15.203  0.00  0.00    +0.000 A 
ATOM     25  C   UNL     1       5.418   4.009  16.269  0.00  0.00    +0.000 A 
ATOM     26  C   UNL     1       4.844   4.448  17.480  0.00  0.00    +0.000 A 
BRANCH  24  27
ATOM     27  N   UNL     1       6.203   4.474  13.974  0.00  0.00    +0.000 N 
ATOM     28  C   UNL     1       5.509   3.638  13.024  0.00  0.00    +0.000 C 
ATOM     29  C   UNL     1       6.561   3.265  11.998  0.00  0.00    +0.000 C 
ATOM     30  C   UNL     1       7.521   4.435  12.019  0.00  0.00    +0.000 C 
ATOM     31  C   UNL     1       7.404   4.958  13.428  0.00  0.00    +0.000 C 
ATOM     32  O   UNL     1       8.240   5.699  13.923  0.00  0.00    +0.000 OA
ENDBRANCH  24  27
ENDBRANCH  19  21
ENDBRANCH   1  19
TORSDOF 6
ENDMDL
MODEL 8
REMARK VINA RESULT:      -8.6      1.333      1.878
REMARK  Name = 
REMARK  6 active torsions:
REMARK  status: ('A' for Active; 'I' for Inactive)
REMARK    1  A    between atoms: C_2  and  C_11
REMARK    2  A    between atoms: N_3  and  C_4
REMARK    3  A    between atoms: C_11  and  N_12
REMARK    4  A    between atoms: C_11  and  C_25
REMARK    5  A    between atoms: N_12  and  C_13
REMARK    6  A    between atoms: C_16  and  N_17
REMARK                            x       y       z     vdW  Elec       q    Type
REMARK                         _______ _______ _______ _____ _____    ______ ____
ROOT
ATOM      1  C   UNL     1       2.440   6.043  19.099  0.00  0.00    +0.000 C 
ENDROOT
BRANCH   1   2
ATOM      2  C   UNL     1       2.125   4.555  19.236  0.00  0.00    +0.000 A 
ATOM      3  C   UNL     1       2.598   3.860  20.363  0.00  0.00    +0.000 A 
ATOM      4  C   UNL     1       2.275   2.517  20.567  0.00  0.00    +0.000 A 
ATOM      5  C   UNL     1       1.474   1.848  19.646  0.00  0.00    +0.000 A 
ATOM      6  C   UNL     1       1.010   2.516  18.515  0.00  0.00    +0.000 A 
ATOM      7  C   UNL     1       1.328   3.861  18.310  0.00  0.00    +0.000 A 
ENDBRANCH   1   2
BRANCH   1   9
ATOM      8  O   UNL     1       1.484   6.405  21.303  0.00  0.00    +0.000 OA
ATOM      9  C   UNL     1       1.808   6.912  20.230  0.00  0.00    +0.000 C 
ATOM     10  N   UNL     1       1.632   8.245  19.884  0.00  0.00    +0.000 N 
ATOM     11  H   UNL     1       1.968   8.481  18.952  0.00  0.00    +0.000 HD
BRANCH  10  12
ATOM     12  C   UNL     1       0.949   9.243  20.615  0.00  0.00    +0.000 A 
ATOM     13  C   UNL     1       0.600  10.490  20.083  0.00  0.00    +0.000 A 
ATOM     14  C   UNL     1      -0.037  11.452  20.873  0.00  0.00    +0.000 A 
ATOM     15  C   UNL     1      -0.334  11.169  22.200  0.00  0.00    +0.000 A 
ATOM     16  F   UNL     1      -0.930  12.098  22.958  0.00  0.00    +0.000 F 
ATOM     17  C   UNL     1      -0.006   9.938  22.749  0.00  0.00    +0.000 A 
ATOM     18  C   UNL     1       0.634   8.974  21.956  0.00  0.00    +0.000 A 
ENDBRANCH  10  12
ENDBRANCH   1   9
BRANCH   1  19
ATOM     19  N   UNL     1       3.923   6.204  19.005  0.00  0.00    +0.000 N 
ATOM     20  H   UNL     1       4.370   5.775  19.817  0.00  0.00    +0.000 HD
BRANCH  19  21
ATOM     21  C   UNL     1       4.558   5.783  17.822  0.00  0.00    +0.000 A 
ATOM     22  C   UNL     1       4.941   4.461  17.600  0.00  0.00    +0.000 A 
ATOM     23  C   UNL     1       5.455   4.044  16.368  0.00  0.00    +0.000 A 
ATOM     24  C   UNL     1       5.611   4.927  15.298  0.00  0.00    +0.000 A 
ATOM     25  C   UNL     1       5.213   6.254  15.507  0.00  0.00    +0.000 A 
ATOM     26  C   UNL     1       4.668   6.665  16.740  0.00  0.00    +0.000 A 
BRANCH  24  27
ATOM     27  N   UNL     1       6.159   4.489  14.060  0.00  0.00    +0.000 N 
ATOM     28  C   UNL     1       5.433   3.653  13.134  0.00  0.00    +0.000 C 
ATOM     29  C   UNL     1       6.457   3.259  12.088  0.00  0.00    +0.000 C 
ATOM     30  C   UNL     1       7.430   4.419  12.076  0.00  0.00    +0.000 C 
ATOM     31  C   UNL     1       7.351   4.956  13.481  0.00  0.00    +0.000 C 
ATOM     32  O   UNL     1       8.207   5.691  13.950  0.00  0.00    +0.000 OA
ENDBRANCH  24  27
ENDBRANCH  19  21
ENDBRANCH   1  19
TORSDOF 6
ENDMDL
MODEL 9
REMARK VINA RESULT:      -8.4      3.646      9.252
REMARK  Name = 
REMARK  6 active torsions:
REMARK  status: ('A' for Active; 'I' for Inactive)
REMARK    1  A    between atoms: C_2  and  C_11
REMARK    2  A    between atoms: N_3  and  C_4
REMARK    3  A    between atoms: C_11  and  N_12
REMARK    4  A    between atoms: C_11  and  C_25
REMARK    5  A    between atoms: N_12  and  C_13
REMARK    6  A    between atoms: C_16  and  N_17
REMARK                            x       y       z     vdW  Elec       q    Type
REMARK                         _______ _______ _______ _____ _____    ______ ____
ROOT
ATOM      1  C   UNL     1       4.676   5.625  16.983  0.00  0.00    +0.000 C 
ENDROOT
BRANCH   1   2
ATOM      2  C   UNL     1       5.940   6.176  17.639  0.00  0.00    +0.000 A 
ATOM      3  C   UNL     1       6.530   5.456  18.693  0.00  0.00    +0.000 A 
ATOM      4  C   UNL     1       7.724   5.884  19.275  0.00  0.00    +0.000 A 
ATOM      5  C   UNL     1       8.348   7.039  18.812  0.00  0.00    +0.000 A 
ATOM      6  C   UNL     1       7.770   7.774  17.780  0.00  0.00    +0.000 A 
ATOM      7  C   UNL     1       6.576   7.346  17.192  0.00  0.00    +0.000 A 
ENDBRANCH   1   2
BRANCH   1   9
ATOM      8  O   UNL     1       4.943   3.305  16.310  0.00  0.00    +0.000 OA
ATOM      9  C   UNL     1       4.962   4.484  15.958  0.00  0.00    +0.000 C 
ATOM     10  N   UNL     1       5.262   4.937  14.680  0.00  0.00    +0.000 N 
ATOM     11  H   UNL     1       5.222   5.949  14.578  0.00  0.00    +0.000 HD
BRANCH  10  12
ATOM     12  C   UNL     1       5.717   4.176  13.580  0.00  0.00    +0.000 A 
ATOM     13  C   UNL     1       4.904   3.293  12.858  0.00  0.00    +0.000 A 
ATOM     14  C   UNL     1       5.427   2.536  11.806  0.00  0.00    +0.000 A 
ATOM     15  C   UNL     1       6.768   2.662  11.465  0.00  0.00    +0.000 A 
ATOM     16  F   UNL     1       7.270   1.924  10.467  0.00  0.00    +0.000 F 
ATOM     17  C   UNL     1       7.593   3.536  12.159  0.00  0.00    +0.000 A 
ATOM     18  C   UNL     1       7.067   4.294  13.215  0.00  0.00    +0.000 A 
ENDBRANCH  10  12
ENDBRANCH   1   9
BRANCH   1  19
ATOM     19  N   UNL     1       3.728   5.209  18.061  0.00  0.00    +0.000 N 
ATOM     20  H   UNL     1       4.233   4.699  18.787  0.00  0.00    +0.000 HD
BRANCH  19  21
ATOM     21  C   UNL     1       2.914   6.200  18.639  0.00  0.00    +0.000 A 
ATOM     22  C   UNL     1       2.367   6.077  19.916  0.00  0.00    +0.000 A 
ATOM     23  C   UNL     1       1.665   7.127  20.517  0.00  0.00    +0.000 A 
ATOM     24  C   UNL     1       1.476   8.350  19.873  0.00  0.00    +0.000 A 
ATOM     25  C   UNL     1       2.036   8.488  18.596  0.00  0.00    +0.000 A 
ATOM     26  C   UNL     1       2.767   7.439  18.004  0.00  0.00    +0.000 A 
BRANCH  24  27
ATOM     27  N   UNL     1       0.738   9.398  20.490  0.00  0.00    +0.000 N 
ATOM     28  C   UNL     1      -0.412  10.016  19.874  0.00  0.00    +0.000 C 
ATOM     29  C   UNL     1      -0.733  11.202  20.761  0.00  0.00    +0.000 C 
ATOM     30  C   UNL     1      -0.249  10.775  22.130  0.00  0.00    +0.000 C 
ATOM     31  C   UNL     1       0.880   9.826  21.821  0.00  0.00    +0.000 C 
ATOM     32  O   UNL     1       1.718   9.511  22.654  0.00  0.00    +0.000 OA
ENDBRANCH  24  27
ENDBRANCH  19  21
ENDBRANCH   1  19
TORSDOF 6
ENDMDL
