MODEL 1
REMARK VINA RESULT:      -7.8      0.000      0.000
REMARK  Name = 
REMARK  5 active torsions:
REMARK  status: ('A' for Active; 'I' for Inactive)
REMARK    1  A    between atoms: C_2  and  C_3
REMARK    2  A    between atoms: N_12  and  C_13
REMARK    3  A    between atoms: N_12  and  C_26
REMARK    4  A    between atoms: C_13  and  C_14
REMARK    5  A    between atoms: C_18  and  C_19
REMARK                            x       y       z     vdW  Elec       q    Type
REMARK                         _______ _______ _______ _____ _____    ______ ____
ROOT
ATOM      1  O   UNL     1       4.910   3.687  16.371  0.00  0.00    +0.000 OA
ATOM      2  C   UNL     1       4.080   4.313  17.028  0.00  0.00    +0.000 C 
ATOM      3  N   UNL     1       4.084   5.731  17.096  0.00  0.00    +0.000 N 
ENDROOT
BRANCH   2   4
ATOM      4  C   UNL     1       3.008   3.596  17.760  0.00  0.00    +0.000 A 
ATOM      5  N   UNL     1       2.134   2.783  17.134  0.00  0.00    +0.000 NA
ATOM      6  N   UNL     1       1.371   2.293  18.121  0.00  0.00    +0.000 N 
ATOM      7  C   UNL     1       1.694   2.743  19.364  0.00  0.00    +0.000 A 
ATOM      8  C   UNL     1       1.162   2.436  20.624  0.00  0.00    +0.000 A 
ATOM      9  C   UNL     1       1.723   3.087  21.726  0.00  0.00    +0.000 A 
ATOM     10  C   UNL     1       2.757   4.006  21.569  0.00  0.00    +0.000 A 
ATOM     11  C   UNL     1       3.279   4.294  20.296  0.00  0.00    +0.000 A 
ATOM     12  C   UNL     1       2.738   3.639  19.172  0.00  0.00    +0.000 A 
ATOM     13  H   UNL     1       0.639   1.635  17.876  0.00  0.00    +0.000 HD
ENDBRANCH   2   4
BRANCH   3  14
ATOM     14  C   UNL     1       2.893   6.477  17.487  0.00  0.00    +0.000 C 
ATOM     15  C   UNL     1       2.735   7.971  17.479  0.00  0.00    +0.000 C 
ATOM     16  C   UNL     1       2.819   7.236  18.785  0.00  0.00    +0.000 C 
ENDBRANCH   3  14
BRANCH   3  17
ATOM     17  C   UNL     1       5.202   6.441  16.457  0.00  0.00    +0.000 C 
BRANCH  17  18
ATOM     18  C   UNL     1       6.354   6.737  17.401  0.00  0.00    +0.000 A 
ATOM     19  C   UNL     1       6.915   5.723  18.188  0.00  0.00    +0.000 A 
ATOM     20  C   UNL     1       8.019   5.984  18.995  0.00  0.00    +0.000 A 
ATOM     21  C   UNL     1       8.557   7.270  19.054  0.00  0.00    +0.000 A 
ATOM     22  C   UNL     1       7.995   8.330  18.320  0.00  0.00    +0.000 A 
ATOM     23  C   UNL     1       6.888   8.035  17.497  0.00  0.00    +0.000 A 
BRANCH  22  24
ATOM     24  C   UNL     1       8.550   9.696  18.404  0.00  0.00    +0.000 A 
ATOM     25  C   UNL     1       9.531  10.048  19.342  0.00  0.00    +0.000 A 
ATOM     26  C   UNL     1      10.029  11.349  19.401  0.00  0.00    +0.000 A 
ATOM     27  C   UNL     1       9.537  12.282  18.506  0.00  0.00    +0.000 A 
ATOM     28  N   UNL     1       8.602  12.001  17.578  0.00  0.00    +0.000 NA
ATOM     29  C   UNL     1       8.134  10.726  17.556  0.00  0.00    +0.000 A 
ENDBRANCH  22  24
ENDBRANCH  17  18
ENDBRANCH   3  17
TORSDOF 5
ENDMDL
MODEL 2
REMARK VINA RESULT:      -7.7      6.057      8.812
REMARK  Name = 
REMARK  5 active torsions:
REMARK  status: ('A' for Active; 'I' for Inactive)
REMARK    1  A    between atoms: C_2  and  C_3
REMARK    2  A    between atoms: N_12  and  C_13
REMARK    3  A    between atoms: N_12  and  C_26
REMARK    4  A    between atoms: C_13  and  C_14
REMARK    5  A    between atoms: C_18  and  C_19
REMARK                            x       y       z     vdW  Elec       q    Type
REMARK                         _______ _______ _______ _____ _____    ______ ____
ROOT
ATOM      1  O   UNL     1       1.589  12.473  20.208  0.00  0.00    +0.000 OA
ATOM      2  C   UNL     1       0.459  12.288  19.759  0.00  0.00    +0.000 C 
ATOM      3  N   UNL     1       0.186  11.293  18.784  0.00  0.00    +0.000 N 
ENDROOT
BRANCH   2   4
ATOM      4  C   UNL     1      -0.684  13.091  20.255  0.00  0.00    +0.000 A 
ATOM      5  N   UNL     1      -1.094  14.217  19.635  0.00  0.00    +0.000 NA
ATOM      6  N   UNL     1      -2.160  14.616  20.340  0.00  0.00    +0.000 N 
ATOM      7  C   UNL     1      -2.475  13.815  21.395  0.00  0.00    +0.000 A 
ATOM      8  C   UNL     1      -3.523  13.882  22.323  0.00  0.00    +0.000 A 
ATOM      9  C   UNL     1      -3.562  12.891  23.308  0.00  0.00    +0.000 A 
ATOM     10  C   UNL     1      -2.594  11.891  23.362  0.00  0.00    +0.000 A 
ATOM     11  C   UNL     1      -1.556  11.841  22.416  0.00  0.00    +0.000 A 
ATOM     12  C   UNL     1      -1.504  12.822  21.406  0.00  0.00    +0.000 A 
ATOM     13  H   UNL     1      -2.646  15.453  20.037  0.00  0.00    +0.000 HD
ENDBRANCH   2   4
BRANCH   3  14
ATOM     14  C   UNL     1      -1.163  10.779  18.579  0.00  0.00    +0.000 C 
ATOM     15  C   UNL     1      -1.631   9.941  17.423  0.00  0.00    +0.000 C 
ATOM     16  C   UNL     1      -2.091  11.364  17.548  0.00  0.00    +0.000 C 
ENDBRANCH   3  14
BRANCH   3  17
ATOM     17  C   UNL     1       1.330  10.565  18.216  0.00  0.00    +0.000 C 
BRANCH  17  18
ATOM     18  C   UNL     1       1.603   9.235  18.894  0.00  0.00    +0.000 A 
ATOM     19  C   UNL     1       1.210   9.012  20.220  0.00  0.00    +0.000 A 
ATOM     20  C   UNL     1       1.395   7.766  20.813  0.00  0.00    +0.000 A 
ATOM     21  C   UNL     1       2.010   6.735  20.100  0.00  0.00    +0.000 A 
ATOM     22  C   UNL     1       2.467   6.930  18.785  0.00  0.00    +0.000 A 
ATOM     23  C   UNL     1       2.251   8.195  18.202  0.00  0.00    +0.000 A 
BRANCH  22  24
ATOM     24  C   UNL     1       3.141   5.844  18.042  0.00  0.00    +0.000 A 
ATOM     25  C   UNL     1       2.567   4.573  17.893  0.00  0.00    +0.000 A 
ATOM     26  C   UNL     1       3.234   3.567  17.193  0.00  0.00    +0.000 A 
ATOM     27  C   UNL     1       4.469   3.857  16.642  0.00  0.00    +0.000 A 
ATOM     28  N   UNL     1       5.066   5.061  16.746  0.00  0.00    +0.000 NA
ATOM     29  C   UNL     1       4.392   6.013  17.442  0.00  0.00    +0.000 A 
ENDBRANCH  22  24
ENDBRANCH  17  18
ENDBRANCH   3  17
TORSDOF 5
ENDMDL
MODEL 3
REMARK VINA RESULT:      -7.6      4.958      7.925
REMARK  Name = 
REMARK  5 active torsions:
REMARK  status: ('A' for Active; 'I' for Inactive)
REMARK    1  A    between atoms: C_2  and  C_3
REMARK    2  A    between atoms: N_12  and  C_13
REMARK    3  A    between atoms: N_12  and  C_26
REMARK    4  A    between atoms: C_13  and  C_14
REMARK    5  A    between atoms: C_18  and  C_19
REMARK                            x       y       z     vdW  Elec       q    Type
REMARK                         _______ _______ _______ _____ _____    ______ ____
ROOT
ATOM      1  O   UNL     1       1.455  10.691  18.821  0.00  0.00    +0.000 OA
ATOM      2  C   UNL     1       0.458  10.433  19.495  0.00  0.00    +0.000 C 
ATOM      3  N   UNL     1       0.518   9.604  20.646  0.00  0.00    +0.000 N 
ENDROOT
BRANCH   2   4
ATOM      4  C   UNL     1      -0.857  11.017  19.141  0.00  0.00    +0.000 A 
ATOM      5  N   UNL     1      -1.407  12.028  19.844  0.00  0.00    +0.000 NA
ATOM      6  N   UNL     1      -2.546  12.304  19.196  0.00  0.00    +0.000 N 
ATOM      7  C   UNL     1      -2.779  11.526  18.103  0.00  0.00    +0.000 A 
ATOM      8  C   UNL     1      -3.822  11.539  17.167  0.00  0.00    +0.000 A 
ATOM      9  C   UNL     1      -3.771  10.586  16.146  0.00  0.00    +0.000 A 
ATOM     10  C   UNL     1      -2.731   9.663  16.076  0.00  0.00    +0.000 A 
ATOM     11  C   UNL     1      -1.692   9.673  17.022  0.00  0.00    +0.000 A 
ATOM     12  C   UNL     1      -1.716  10.634  18.052  0.00  0.00    +0.000 A 
ATOM     13  H   UNL     1      -3.126  13.057  19.550  0.00  0.00    +0.000 HD
ENDBRANCH   2   4
BRANCH   3  14
ATOM     14  C   UNL     1      -0.519   9.649  21.670  0.00  0.00    +0.000 C 
ATOM     15  C   UNL     1      -0.664  10.689  22.746  0.00  0.00    +0.000 C 
ATOM     16  C   UNL     1      -0.237   9.296  23.106  0.00  0.00    +0.000 C 
ENDBRANCH   3  14
BRANCH   3  17
ATOM     17  C   UNL     1       1.797   8.942  20.943  0.00  0.00    +0.000 C 
BRANCH  17  18
ATOM     18  C   UNL     1       1.898   7.533  20.387  0.00  0.00    +0.000 A 
ATOM     19  C   UNL     1       1.124   6.494  20.921  0.00  0.00    +0.000 A 
ATOM     20  C   UNL     1       1.165   5.221  20.358  0.00  0.00    +0.000 A 
ATOM     21  C   UNL     1       2.006   4.960  19.275  0.00  0.00    +0.000 A 
ATOM     22  C   UNL     1       2.837   5.959  18.740  0.00  0.00    +0.000 A 
ATOM     23  C   UNL     1       2.764   7.244  19.317  0.00  0.00    +0.000 A 
BRANCH  22  24
ATOM     24  C   UNL     1       3.746   5.672  17.610  0.00  0.00    +0.000 A 
ATOM     25  C   UNL     1       4.355   6.691  16.864  0.00  0.00    +0.000 A 
ATOM     26  C   UNL     1       5.201   6.386  15.798  0.00  0.00    +0.000 A 
ATOM     27  C   UNL     1       5.431   5.055  15.501  0.00  0.00    +0.000 A 
ATOM     28  N   UNL     1       4.880   4.034  16.187  0.00  0.00    +0.000 NA
ATOM     29  C   UNL     1       4.055   4.369  17.212  0.00  0.00    +0.000 A 
ENDBRANCH  22  24
ENDBRANCH  17  18
ENDBRANCH   3  17
TORSDOF 5
ENDMDL
MODEL 4
REMARK VINA RESULT:      -7.6      5.267      8.784
REMARK  Name = 
REMARK  5 active torsions:
REMARK  status: ('A' for Active; 'I' for Inactive)
REMARK    1  A    between atoms: C_2  and  C_3
REMARK    2  A    between atoms: N_12  and  C_13
REMARK    3  A    between atoms: N_12  and  C_26
REMARK    4  A    between atoms: C_13  and  C_14
REMARK    5  A    between atoms: C_18  and  C_19
REMARK                            x       y       z     vdW  Elec       q    Type
REMARK                         _______ _______ _______ _____ _____    ______ ____
ROOT
ATOM      1  O   UNL     1       0.959  11.634  18.607  0.00  0.00    +0.000 OA
ATOM      2  C   UNL     1       0.034  11.105  19.221  0.00  0.00    +0.000 C 
ATOM      3  N   UNL     1       0.257  10.135  20.234  0.00  0.00    +0.000 N 
ENDROOT
BRANCH   2   4
ATOM      4  C   UNL     1      -1.370  11.492  18.942  0.00  0.00    +0.000 A 
ATOM      5  N   UNL     1      -2.033  12.385  19.704  0.00  0.00    +0.000 NA
ATOM      6  N   UNL     1      -3.229  12.504  19.113  0.00  0.00    +0.000 N 
ATOM      7  C   UNL     1      -3.391  11.735  18.002  0.00  0.00    +0.000 A 
ATOM      8  C   UNL     1      -4.466  11.617  17.110  0.00  0.00    +0.000 A 
ATOM      9  C   UNL     1      -4.318  10.715  16.053  0.00  0.00    +0.000 A 
ATOM     10  C   UNL     1      -3.155   9.964  15.906  0.00  0.00    +0.000 A 
ATOM     11  C   UNL     1      -2.088  10.103  16.809  0.00  0.00    +0.000 A 
ATOM     12  C   UNL     1      -2.209  11.017  17.875  0.00  0.00    +0.000 A 
ATOM     13  H   UNL     1      -3.899  13.148  19.519  0.00  0.00    +0.000 HD
ENDBRANCH   2   4
BRANCH   3  14
ATOM     14  C   UNL     1      -0.757   9.839  21.239  0.00  0.00    +0.000 C 
ATOM     15  C   UNL     1      -0.807  10.381  22.640  0.00  0.00    +0.000 C 
ATOM     16  C   UNL     1      -0.478   8.935  22.410  0.00  0.00    +0.000 C 
ENDBRANCH   3  14
BRANCH   3  17
ATOM     17  C   UNL     1       1.637   9.673  20.444  0.00  0.00    +0.000 C 
BRANCH  17  18
ATOM     18  C   UNL     1       2.010   8.466  19.603  0.00  0.00    +0.000 A 
ATOM     19  C   UNL     1       2.376   8.613  18.259  0.00  0.00    +0.000 A 
ATOM     20  C   UNL     1       2.790   7.512  17.514  0.00  0.00    +0.000 A 
ATOM     21  C   UNL     1       2.809   6.241  18.092  0.00  0.00    +0.000 A 
ATOM     22  C   UNL     1       2.400   6.040  19.422  0.00  0.00    +0.000 A 
ATOM     23  C   UNL     1       2.003   7.174  20.160  0.00  0.00    +0.000 A 
BRANCH  22  24
ATOM     24  C   UNL     1       2.397   4.689  20.023  0.00  0.00    +0.000 A 
ATOM     25  C   UNL     1       1.305   4.200  20.754  0.00  0.00    +0.000 A 
ATOM     26  C   UNL     1       1.337   2.923  21.316  0.00  0.00    +0.000 A 
ATOM     27  C   UNL     1       2.468   2.150  21.126  0.00  0.00    +0.000 A 
ATOM     28  N   UNL     1       3.543   2.563  20.427  0.00  0.00    +0.000 NA
ATOM     29  C   UNL     1       3.480   3.815  19.903  0.00  0.00    +0.000 A 
ENDBRANCH  22  24
ENDBRANCH  17  18
ENDBRANCH   3  17
TORSDOF 5
ENDMDL
MODEL 5
REMARK VINA RESULT:      -7.6      3.826      6.176
REMARK  Name = 
REMARK  5 active torsions:
REMARK  status: ('A' for Active; 'I' for Inactive)
REMARK    1  A    between atoms: C_2  and  C_3
REMARK    2  A    between atoms: N_12  and  C_13
REMARK    3  A    between atoms: N_12  and  C_26
REMARK    4  A    between atoms: C_13  and  C_14
REMARK    5  A    between atoms: C_18  and  C_19
REMARK                            x       y       z     vdW  Elec       q    Type
REMARK                         _______ _______ _______ _____ _____    ______ ____
ROOT
ATOM      1  O   UNL     1       3.112   6.869  17.736  0.00  0.00    +0.000 OA
ATOM      2  C   UNL     1       2.581   6.453  18.765  0.00  0.00    +0.000 C 
ATOM      3  N   UNL     1       2.521   5.070  19.078  0.00  0.00    +0.000 N 
ENDROOT
BRANCH   2   4
ATOM      4  C   UNL     1       2.005   7.402  19.747  0.00  0.00    +0.000 A 
ATOM      5  N   UNL     1       1.973   7.136  21.069  0.00  0.00    +0.000 NA
ATOM      6  N   UNL     1       1.435   8.234  21.617  0.00  0.00    +0.000 N 
ATOM      7  C   UNL     1       1.107   9.210  20.725  0.00  0.00    +0.000 A 
ATOM      8  C   UNL     1       0.570  10.490  20.916  0.00  0.00    +0.000 A 
ATOM      9  C   UNL     1       0.339  11.258  19.771  0.00  0.00    +0.000 A 
ATOM     10  C   UNL     1       0.624  10.761  18.502  0.00  0.00    +0.000 A 
ATOM     11  C   UNL     1       1.169   9.477  18.336  0.00  0.00    +0.000 A 
ATOM     12  C   UNL     1       1.423   8.689  19.477  0.00  0.00    +0.000 A 
ATOM     13  H   UNL     1       1.327   8.260  22.624  0.00  0.00    +0.000 HD
ENDBRANCH   2   4
BRANCH   3  14
ATOM     14  C   UNL     1       2.306   4.608  20.445  0.00  0.00    +0.000 C 
ATOM     15  C   UNL     1       2.609   3.237  20.979  0.00  0.00    +0.000 C 
ATOM     16  C   UNL     1       1.183   3.671  20.802  0.00  0.00    +0.000 C 
ENDBRANCH   3  14
BRANCH   3  17
ATOM     17  C   UNL     1       2.999   4.120  18.063  0.00  0.00    +0.000 C 
BRANCH  17  18
ATOM     18  C   UNL     1       4.452   4.323  17.675  0.00  0.00    +0.000 A 
ATOM     19  C   UNL     1       5.439   4.495  18.655  0.00  0.00    +0.000 A 
ATOM     20  C   UNL     1       6.780   4.606  18.297  0.00  0.00    +0.000 A 
ATOM     21  C   UNL     1       7.150   4.582  16.951  0.00  0.00    +0.000 A 
ATOM     22  C   UNL     1       6.189   4.462  15.932  0.00  0.00    +0.000 A 
ATOM     23  C   UNL     1       4.840   4.334  16.322  0.00  0.00    +0.000 A 
BRANCH  22  24
ATOM     24  C   UNL     1       6.582   4.463  14.507  0.00  0.00    +0.000 A 
ATOM     25  C   UNL     1       6.016   3.582  13.575  0.00  0.00    +0.000 A 
ATOM     26  C   UNL     1       6.416   3.603  12.239  0.00  0.00    +0.000 A 
ATOM     27  C   UNL     1       7.378   4.520  11.855  0.00  0.00    +0.000 A 
ATOM     28  N   UNL     1       7.951   5.396  12.704  0.00  0.00    +0.000 NA
ATOM     29  C   UNL     1       7.544   5.340  13.998  0.00  0.00    +0.000 A 
ENDBRANCH  22  24
ENDBRANCH  17  18
ENDBRANCH   3  17
TORSDOF 5
ENDMDL
MODEL 6
REMARK VINA RESULT:      -7.6      5.544      8.140
REMARK  Name = 
REMARK  5 active torsions:
REMARK  status: ('A' for Active; 'I' for Inactive)
REMARK    1  A    between atoms: C_2  and  C_3
REMARK    2  A    between atoms: N_12  and  C_13
REMARK    3  A    between atoms: N_12  and  C_26
REMARK    4  A    between atoms: C_13  and  C_14
REMARK    5  A    between atoms: C_18  and  C_19
REMARK                            x       y       z     vdW  Elec       q    Type
REMARK                         _______ _______ _______ _____ _____    ______ ____
ROOT
ATOM      1  O   UNL     1      -1.248   9.887  17.752  0.00  0.00    +0.000 OA
ATOM      2  C   UNL     1      -0.821  10.805  18.451  0.00  0.00    +0.000 C 
ATOM      3  N   UNL     1       0.553  11.164  18.470  0.00  0.00    +0.000 N 
ENDROOT
BRANCH   2   4
ATOM      4  C   UNL     1      -1.748  11.604  19.287  0.00  0.00    +0.000 A 
ATOM      5  N   UNL     1      -2.712  12.379  18.750  0.00  0.00    +0.000 NA
ATOM      6  N   UNL     1      -3.359  12.887  19.807  0.00  0.00    +0.000 N 
ATOM      7  C   UNL     1      -2.870  12.491  21.015  0.00  0.00    +0.000 A 
ATOM      8  C   UNL     1      -3.295  12.774  22.320  0.00  0.00    +0.000 A 
ATOM      9  C   UNL     1      -2.559  12.206  23.364  0.00  0.00    +0.000 A 
ATOM     10  C   UNL     1      -1.450  11.405  23.110  0.00  0.00    +0.000 A 
ATOM     11  C   UNL     1      -1.046  11.130  21.792  0.00  0.00    +0.000 A 
ATOM     12  C   UNL     1      -1.780  11.680  20.723  0.00  0.00    +0.000 A 
ATOM     13  H   UNL     1      -4.147  13.501  19.634  0.00  0.00    +0.000 HD
ENDBRANCH   2   4
BRANCH   3  14
ATOM     14  C   UNL     1       0.988  12.479  18.926  0.00  0.00    +0.000 C 
ATOM     15  C   UNL     1       2.383  13.032  18.846  0.00  0.00    +0.000 C 
ATOM     16  C   UNL     1       1.804  12.657  20.179  0.00  0.00    +0.000 C 
ENDBRANCH   3  14
BRANCH   3  17
ATOM     17  C   UNL     1       1.490  10.313  17.722  0.00  0.00    +0.000 C 
BRANCH  17  18
ATOM     18  C   UNL     1       1.865   9.034  18.450  0.00  0.00    +0.000 A 
ATOM     19  C   UNL     1       1.467   8.821  19.777  0.00  0.00    +0.000 A 
ATOM     20  C   UNL     1       1.749   7.616  20.414  0.00  0.00    +0.000 A 
ATOM     21  C   UNL     1       2.463   6.620  19.747  0.00  0.00    +0.000 A 
ATOM     22  C   UNL     1       2.926   6.811  18.433  0.00  0.00    +0.000 A 
ATOM     23  C   UNL     1       2.612   8.033  17.804  0.00  0.00    +0.000 A 
BRANCH  22  24
ATOM     24  C   UNL     1       3.705   5.764  17.738  0.00  0.00    +0.000 A 
ATOM     25  C   UNL     1       4.655   6.070  16.753  0.00  0.00    +0.000 A 
ATOM     26  C   UNL     1       5.367   5.058  16.110  0.00  0.00    +0.000 A 
ATOM     27  C   UNL     1       5.120   3.746  16.475  0.00  0.00    +0.000 A 
ATOM     28  N   UNL     1       4.226   3.393  17.419  0.00  0.00    +0.000 NA
ATOM     29  C   UNL     1       3.544   4.404  18.017  0.00  0.00    +0.000 A 
ENDBRANCH  22  24
ENDBRANCH  17  18
ENDBRANCH   3  17
TORSDOF 5
ENDMDL
MODEL 7
REMARK VINA RESULT:      -7.5      3.061      6.837
REMARK  Name = 
REMARK  5 active torsions:
REMARK  status: ('A' for Active; 'I' for Inactive)
REMARK    1  A    between atoms: C_2  and  C_3
REMARK    2  A    between atoms: N_12  and  C_13
REMARK    3  A    between atoms: N_12  and  C_26
REMARK    4  A    between atoms: C_13  and  C_14
REMARK    5  A    between atoms: C_18  and  C_19
REMARK                            x       y       z     vdW  Elec       q    Type
REMARK                         _______ _______ _______ _____ _____    ______ ____
ROOT
ATOM      1  O   UNL     1       5.125   3.110  16.651  0.00  0.00    +0.000 OA
ATOM      2  C   UNL     1       5.964   4.005  16.742  0.00  0.00    +0.000 C 
ATOM      3  N   UNL     1       6.361   4.544  17.994  0.00  0.00    +0.000 N 
ENDROOT
BRANCH   2   4
ATOM      4  C   UNL     1       6.624   4.540  15.527  0.00  0.00    +0.000 A 
ATOM      5  N   UNL     1       7.567   5.502  15.588  0.00  0.00    +0.000 NA
ATOM      6  N   UNL     1       7.948   5.674  14.315  0.00  0.00    +0.000 N 
ATOM      7  C   UNL     1       7.305   4.878  13.418  0.00  0.00    +0.000 A 
ATOM      8  C   UNL     1       7.454   4.744  12.030  0.00  0.00    +0.000 A 
ATOM      9  C   UNL     1       6.618   3.825  11.388  0.00  0.00    +0.000 A 
ATOM     10  C   UNL     1       5.677   3.088  12.102  0.00  0.00    +0.000 A 
ATOM     11  C   UNL     1       5.550   3.235  13.493  0.00  0.00    +0.000 A 
ATOM     12  C   UNL     1       6.391   4.145  14.164  0.00  0.00    +0.000 A 
ATOM     13  H   UNL     1       8.675   6.355  14.123  0.00  0.00    +0.000 HD
ENDBRANCH   2   4
BRANCH   3  14
ATOM     14  C   UNL     1       7.622   5.258  18.148  0.00  0.00    +0.000 C 
ATOM     15  C   UNL     1       8.199   5.779  19.434  0.00  0.00    +0.000 C 
ATOM     16  C   UNL     1       7.672   6.740  18.410  0.00  0.00    +0.000 C 
ENDBRANCH   3  14
BRANCH   3  17
ATOM     17  C   UNL     1       5.637   4.090  19.191  0.00  0.00    +0.000 C 
BRANCH  17  18
ATOM     18  C   UNL     1       4.170   4.480  19.201  0.00  0.00    +0.000 A 
ATOM     19  C   UNL     1       3.170   3.505  19.310  0.00  0.00    +0.000 A 
ATOM     20  C   UNL     1       1.830   3.873  19.395  0.00  0.00    +0.000 A 
ATOM     21  C   UNL     1       1.467   5.220  19.335  0.00  0.00    +0.000 A 
ATOM     22  C   UNL     1       2.434   6.228  19.174  0.00  0.00    +0.000 A 
ATOM     23  C   UNL     1       3.785   5.830  19.109  0.00  0.00    +0.000 A 
BRANCH  22  24
ATOM     24  C   UNL     1       2.045   7.651  19.085  0.00  0.00    +0.000 A 
ATOM     25  C   UNL     1       2.223   8.403  17.914  0.00  0.00    +0.000 A 
ATOM     26  C   UNL     1       1.853   9.746  17.866  0.00  0.00    +0.000 A 
ATOM     27  C   UNL     1       1.298  10.317  18.998  0.00  0.00    +0.000 A 
ATOM     28  N   UNL     1       1.096   9.643  20.147  0.00  0.00    +0.000 NA
ATOM     29  C   UNL     1       1.476   8.339  20.160  0.00  0.00    +0.000 A 
ENDBRANCH  22  24
ENDBRANCH  17  18
ENDBRANCH   3  17
TORSDOF 5
ENDMDL
MODEL 8
REMARK VINA RESULT:      -7.4      5.231      7.593
REMARK  Name = 
REMARK  5 active torsions:
REMARK  status: ('A' for Active; 'I' for Inactive)
REMARK    1  A    between atoms: C_2  and  C_3
REMARK    2  A    between atoms: N_12  and  C_13
REMARK    3  A    between atoms: N_12  and  C_26
REMARK    4  A    between atoms: C_13  and  C_14
REMARK    5  A    between atoms: C_18  and  C_19
REMARK                            x       y       z     vdW  Elec       q    Type
REMARK                         _______ _______ _______ _____ _____    ______ ____
ROOT
ATOM      1  O   UNL     1      -1.054   9.789  17.556  0.00  0.00    +0.000 OA
ATOM      2  C   UNL     1      -0.489  10.555  18.334  0.00  0.00    +0.000 C 
ATOM      3  N   UNL     1       0.925  10.685  18.373  0.00  0.00    +0.000 N 
ENDROOT
BRANCH   2   4
ATOM      4  C   UNL     1      -1.280  11.410  19.250  0.00  0.00    +0.000 A 
ATOM      5  N   UNL     1      -2.102  12.379  18.798  0.00  0.00    +0.000 NA
ATOM      6  N   UNL     1      -2.664  12.882  19.905  0.00  0.00    +0.000 N 
ATOM      7  C   UNL     1      -2.254  12.298  21.064  0.00  0.00    +0.000 A 
ATOM      8  C   UNL     1      -2.637  12.521  22.394  0.00  0.00    +0.000 A 
ATOM      9  C   UNL     1      -2.010  11.744  23.373  0.00  0.00    +0.000 A 
ATOM     10  C   UNL     1      -1.044  10.802  23.034  0.00  0.00    +0.000 A 
ATOM     11  C   UNL     1      -0.681  10.592  21.693  0.00  0.00    +0.000 A 
ATOM     12  C   UNL     1      -1.309  11.353  20.687  0.00  0.00    +0.000 A 
ATOM     13  H   UNL     1      -3.341  13.630  19.798  0.00  0.00    +0.000 HD
ENDBRANCH   2   4
BRANCH   3  14
ATOM     14  C   UNL     1       1.564  11.863  18.948  0.00  0.00    +0.000 C 
ATOM     15  C   UNL     1       1.345  13.289  18.527  0.00  0.00    +0.000 C 
ATOM     16  C   UNL     1       2.650  12.613  18.223  0.00  0.00    +0.000 C 
ENDBRANCH   3  14
BRANCH   3  17
ATOM     17  C   UNL     1       1.716   9.768  17.540  0.00  0.00    +0.000 C 
BRANCH  17  18
ATOM     18  C   UNL     1       2.212   8.541  18.285  0.00  0.00    +0.000 A 
ATOM     19  C   UNL     1       1.614   8.143  19.488  0.00  0.00    +0.000 A 
ATOM     20  C   UNL     1       2.022   6.975  20.127  0.00  0.00    +0.000 A 
ATOM     21  C   UNL     1       3.059   6.209  19.593  0.00  0.00    +0.000 A 
ATOM     22  C   UNL     1       3.722   6.599  18.416  0.00  0.00    +0.000 A 
ATOM     23  C   UNL     1       3.277   7.775  17.778  0.00  0.00    +0.000 A 
BRANCH  22  24
ATOM     24  C   UNL     1       4.837   5.799  17.867  0.00  0.00    +0.000 A 
ATOM     25  C   UNL     1       4.904   5.442  16.512  0.00  0.00    +0.000 A 
ATOM     26  C   UNL     1       5.966   4.679  16.028  0.00  0.00    +0.000 A 
ATOM     27  C   UNL     1       6.954   4.289  16.914  0.00  0.00    +0.000 A 
ATOM     28  N   UNL     1       6.947   4.608  18.223  0.00  0.00    +0.000 NA
ATOM     29  C   UNL     1       5.893   5.345  18.661  0.00  0.00    +0.000 A 
ENDBRANCH  22  24
ENDBRANCH  17  18
ENDBRANCH   3  17
TORSDOF 5
ENDMDL
MODEL 9
REMARK VINA RESULT:      -7.2      5.871      9.627
REMARK  Name = 
REMARK  5 active torsions:
REMARK  status: ('A' for Active; 'I' for Inactive)
REMARK    1  A    between atoms: C_2  and  C_3
REMARK    2  A    between atoms: N_12  and  C_13
REMARK    3  A    between atoms: N_12  and  C_26
REMARK    4  A    between atoms: C_13  and  C_14
REMARK    5  A    between atoms: C_18  and  C_19
REMARK                            x       y       z     vdW  Elec       q    Type
REMARK                         _______ _______ _______ _____ _____    ______ ____
ROOT
ATOM      1  O   UNL     1       1.115  12.220  21.575  0.00  0.00    +0.000 OA
ATOM      2  C   UNL     1       0.362  12.326  20.608  0.00  0.00    +0.000 C 
ATOM      3  N   UNL     1      -0.333  11.212  20.066  0.00  0.00    +0.000 N 
ENDROOT
BRANCH   2   4
ATOM      4  C   UNL     1       0.125  13.649  19.984  0.00  0.00    +0.000 A 
ATOM      5  N   UNL     1      -1.066  14.278  20.064  0.00  0.00    +0.000 NA
ATOM      6  N   UNL     1      -0.870  15.443  19.434  0.00  0.00    +0.000 N 
ATOM      7  C   UNL     1       0.387  15.617  18.940  0.00  0.00    +0.000 A 
ATOM      8  C   UNL     1       0.973  16.698  18.268  0.00  0.00    +0.000 A 
ATOM      9  C   UNL     1       2.308  16.556  17.880  0.00  0.00    +0.000 A 
ATOM     10  C   UNL     1       3.014  15.385  18.144  0.00  0.00    +0.000 A 
ATOM     11  C   UNL     1       2.407  14.316  18.825  0.00  0.00    +0.000 A 
ATOM     12  C   UNL     1       1.066  14.442  19.239  0.00  0.00    +0.000 A 
ATOM     13  H   UNL     1      -1.645  16.095  19.385  0.00  0.00    +0.000 HD
ENDBRANCH   2   4
BRANCH   3  14
ATOM     14  C   UNL     1      -1.522  11.387  19.241  0.00  0.00    +0.000 C 
ATOM     15  C   UNL     1      -2.177  10.337  18.388  0.00  0.00    +0.000 C 
ATOM     16  C   UNL     1      -1.445  11.476  17.740  0.00  0.00    +0.000 C 
ENDBRANCH   3  14
BRANCH   3  17
ATOM     17  C   UNL     1      -0.024   9.884  20.615  0.00  0.00    +0.000 C 
BRANCH  17  18
ATOM     18  C   UNL     1       0.919   9.070  19.748  0.00  0.00    +0.000 A 
ATOM     19  C   UNL     1       1.461   9.611  18.574  0.00  0.00    +0.000 A 
ATOM     20  C   UNL     1       2.384   8.889  17.823  0.00  0.00    +0.000 A 
ATOM     21  C   UNL     1       2.752   7.600  18.214  0.00  0.00    +0.000 A 
ATOM     22  C   UNL     1       2.195   6.998  19.357  0.00  0.00    +0.000 A 
ATOM     23  C   UNL     1       1.276   7.758  20.110  0.00  0.00    +0.000 A 
BRANCH  22  24
ATOM     24  C   UNL     1       2.567   5.624  19.754  0.00  0.00    +0.000 A 
ATOM     25  C   UNL     1       1.857   4.911  20.731  0.00  0.00    +0.000 A 
ATOM     26  C   UNL     1       2.240   3.619  21.089  0.00  0.00    +0.000 A 
ATOM     27  C   UNL     1       3.330   3.055  20.450  0.00  0.00    +0.000 A 
ATOM     28  N   UNL     1       4.044   3.688  19.499  0.00  0.00    +0.000 NA
ATOM     29  C   UNL     1       3.649   4.948  19.183  0.00  0.00    +0.000 A 
ENDBRANCH  22  24
ENDBRANCH  17  18
ENDBRANCH   3  17
TORSDOF 5
ENDMDL
