MODEL 1
REMARK VINA RESULT:      -8.1      0.000      0.000
REMARK  Name = 
REMARK  5 active torsions:
REMARK  status: ('A' for Active; 'I' for Inactive)
REMARK    1  A    between atoms: S_2  and  N_4
REMARK    2  A    between atoms: S_2  and  C_12
REMARK    3  A    between atoms: N_4  and  C_5
REMARK    4  A    between atoms: C_15  and  C_16
REMARK    5  A    between atoms: C_19  and  C_20
REMARK                            x       y       z     vdW  Elec       q    Type
REMARK                         _______ _______ _______ _____ _____    ______ ____
ROOT
ATOM      1  C   UNL     1       1.460   8.823  19.636  0.00  0.00    +0.000 A 
ATOM      2  C   UNL     1       1.701   7.616  20.296  0.00  0.00    +0.000 A 
ATOM      3  C   UNL     1       2.459   6.624  19.678  0.00  0.00    +0.000 A 
ATOM      4  C   UNL     1       2.961   6.810  18.380  0.00  0.00    +0.000 A 
ATOM      5  C   UNL     1       2.678   8.012  17.711  0.00  0.00    +0.000 A 
ATOM      6  C   UNL     1       1.929   9.021  18.333  0.00  0.00    +0.000 A 
ENDROOT
BRANCH   4   7
ATOM      7  C   UNL     1       3.775   5.776  17.751  0.00  0.00    +0.000 A 
ATOM      8  N   UNL     1       3.663   4.467  18.034  0.00  0.00    +0.000 NA
ATOM      9  O   UNL     1       4.636   3.867  17.246  0.00  0.00    +0.000 OA
ATOM     10  C   UNL     1       5.256   4.868  16.558  0.00  0.00    +0.000 A 
ATOM     11  N   UNL     1       4.756   6.061  16.828  0.00  0.00    +0.000 NA
BRANCH  10  12
ATOM     12  C   UNL     1       6.372   4.447  15.675  0.00  0.00    +0.000 C 
ATOM     13  F   UNL     1       7.547   4.305  16.345  0.00  0.00    +0.000 F 
ATOM     14  F   UNL     1       6.129   3.254  15.069  0.00  0.00    +0.000 F 
ATOM     15  F   UNL     1       6.605   5.348  14.682  0.00  0.00    +0.000 F 
ENDBRANCH  10  12
ENDBRANCH   4   7
BRANCH   1  17
ATOM     16  O   UNL     1       1.287  10.732  21.427  0.00  0.00    +0.000 OA
ATOM     17  S   UNL     1       0.460  10.049  20.452  0.00  0.00    +0.000 S 
ATOM     18  O   UNL     1      -0.779   9.416  20.840  0.00  0.00    +0.000 OA
BRANCH  17  19
ATOM     19  N   UNL     1       0.065  11.140  19.213  0.00  0.00    +0.000 N 
ATOM     20  H   UNL     1       0.848  11.226  18.562  0.00  0.00    +0.000 HD
BRANCH  19  21
ATOM     21  C   UNL     1      -1.243  11.052  18.647  0.00  0.00    +0.000 A 
ATOM     22  C   UNL     1      -1.532  10.116  17.654  0.00  0.00    +0.000 A 
ATOM     23  C   UNL     1      -2.840  10.017  17.175  0.00  0.00    +0.000 A 
ATOM     24  C   UNL     1      -3.809  10.848  17.715  0.00  0.00    +0.000 A 
ATOM     25  F   UNL     1      -5.064  10.750  17.257  0.00  0.00    +0.000 F 
ATOM     26  N   UNL     1      -3.565  11.758  18.681  0.00  0.00    +0.000 NA
ATOM     27  C   UNL     1      -2.288  11.835  19.124  0.00  0.00    +0.000 A 
ENDBRANCH  19  21
ENDBRANCH  17  19
ENDBRANCH   1  17
TORSDOF 5
ENDMDL
MODEL 2
REMARK VINA RESULT:      -8.0      0.421      1.281
REMARK  Name = 
REMARK  5 active torsions:
REMARK  status: ('A' for Active; 'I' for Inactive)
REMARK    1  A    between atoms: S_2  and  N_4
REMARK    2  A    between atoms: S_2  and  C_12
REMARK    3  A    between atoms: N_4  and  C_5
REMARK    4  A    between atoms: C_15  and  C_16
REMARK    5  A    between atoms: C_19  and  C_20
REMARK                            x       y       z     vdW  Elec       q    Type
REMARK                         _______ _______ _______ _____ _____    ______ ____
ROOT
ATOM      1  C   UNL     1       1.412   9.038  19.294  0.00  0.00    +0.000 A 
ATOM      2  C   UNL     1       1.974   9.143  18.019  0.00  0.00    +0.000 A 
ATOM      3  C   UNL     1       2.771   8.112  17.525  0.00  0.00    +0.000 A 
ATOM      4  C   UNL     1       3.046   6.980  18.307  0.00  0.00    +0.000 A 
ATOM      5  C   UNL     1       2.509   6.905  19.602  0.00  0.00    +0.000 A 
ATOM      6  C   UNL     1       1.691   7.930  20.100  0.00  0.00    +0.000 A 
ENDROOT
BRANCH   4   7
ATOM      7  C   UNL     1       3.862   5.896  17.770  0.00  0.00    +0.000 A 
ATOM      8  N   UNL     1       3.776   4.623  18.189  0.00  0.00    +0.000 NA
ATOM      9  O   UNL     1       4.740   3.957  17.446  0.00  0.00    +0.000 OA
ATOM     10  C   UNL     1       5.330   4.888  16.644  0.00  0.00    +0.000 A 
ATOM     11  N   UNL     1       4.819   6.096  16.800  0.00  0.00    +0.000 NA
BRANCH  10  12
ATOM     12  C   UNL     1       6.434   4.392  15.784  0.00  0.00    +0.000 C 
ATOM     13  F   UNL     1       6.125   3.225  15.155  0.00  0.00    +0.000 F 
ATOM     14  F   UNL     1       6.766   5.277  14.808  0.00  0.00    +0.000 F 
ATOM     15  F   UNL     1       7.568   4.153  16.497  0.00  0.00    +0.000 F 
ENDBRANCH  10  12
ENDBRANCH   4   7
BRANCH   1  17
ATOM     16  O   UNL     1       1.293  11.298  20.619  0.00  0.00    +0.000 OA
ATOM     17  S   UNL     1       0.425  10.391  19.897  0.00  0.00    +0.000 S 
ATOM     18  O   UNL     1      -0.752   9.832  20.521  0.00  0.00    +0.000 OA
BRANCH  17  19
ATOM     19  N   UNL     1      -0.113  11.162  18.483  0.00  0.00    +0.000 N 
ATOM     20  H   UNL     1       0.555  11.005  17.725  0.00  0.00    +0.000 HD
BRANCH  19  21
ATOM     21  C   UNL     1      -1.499  11.055  18.158  0.00  0.00    +0.000 A 
ATOM     22  C   UNL     1      -1.960  10.055  17.302  0.00  0.00    +0.000 A 
ATOM     23  C   UNL     1      -3.331   9.944  17.063  0.00  0.00    +0.000 A 
ATOM     24  C   UNL     1      -4.188  10.827  17.699  0.00  0.00    +0.000 A 
ATOM     25  F   UNL     1      -5.505  10.718  17.472  0.00  0.00    +0.000 F 
ATOM     26  N   UNL     1      -3.778  11.800  18.539  0.00  0.00    +0.000 NA
ATOM     27  C   UNL     1      -2.443  11.888  18.749  0.00  0.00    +0.000 A 
ENDBRANCH  19  21
ENDBRANCH  17  19
ENDBRANCH   1  17
TORSDOF 5
ENDMDL
MODEL 3
REMARK VINA RESULT:      -8.0      6.399      8.470
REMARK  Name = 
REMARK  5 active torsions:
REMARK  status: ('A' for Active; 'I' for Inactive)
REMARK    1  A    between atoms: S_2  and  N_4
REMARK    2  A    between atoms: S_2  and  C_12
REMARK    3  A    between atoms: N_4  and  C_5
REMARK    4  A    between atoms: C_15  and  C_16
REMARK    5  A    between atoms: C_19  and  C_20
REMARK                            x       y       z     vdW  Elec       q    Type
REMARK                         _______ _______ _______ _____ _____    ______ ____
ROOT
ATOM      1  C   UNL     1       6.888   6.122  17.834  0.00  0.00    +0.000 A 
ATOM      2  C   UNL     1       6.545   7.274  17.121  0.00  0.00    +0.000 A 
ATOM      3  C   UNL     1       7.220   8.469  17.365  0.00  0.00    +0.000 A 
ATOM      4  C   UNL     1       8.223   8.538  18.345  0.00  0.00    +0.000 A 
ATOM      5  C   UNL     1       8.530   7.384  19.082  0.00  0.00    +0.000 A 
ATOM      6  C   UNL     1       7.866   6.174  18.832  0.00  0.00    +0.000 A 
ENDROOT
BRANCH   4   7
ATOM      7  C   UNL     1       8.940   9.787  18.574  0.00  0.00    +0.000 A 
ATOM      8  N   UNL     1       9.238  10.664  17.601  0.00  0.00    +0.000 NA
ATOM      9  O   UNL     1       9.941  11.667  18.253  0.00  0.00    +0.000 OA
ATOM     10  C   UNL     1      10.012  11.307  19.566  0.00  0.00    +0.000 A 
ATOM     11  N   UNL     1       9.404  10.161  19.816  0.00  0.00    +0.000 NA
BRANCH  10  12
ATOM     12  C   UNL     1      10.768  12.232  20.448  0.00  0.00    +0.000 C 
ATOM     13  F   UNL     1      10.279  12.263  21.717  0.00  0.00    +0.000 F 
ATOM     14  F   UNL     1      12.080  11.892  20.550  0.00  0.00    +0.000 F 
ATOM     15  F   UNL     1      10.731  13.514  19.993  0.00  0.00    +0.000 F 
ENDBRANCH  10  12
ENDBRANCH   4   7
BRANCH   1  17
ATOM     16  O   UNL     1       5.942   3.846  18.732  0.00  0.00    +0.000 OA
ATOM     17  S   UNL     1       5.978   4.626  17.511  0.00  0.00    +0.000 S 
ATOM     18  O   UNL     1       6.484   4.062  16.282  0.00  0.00    +0.000 OA
BRANCH  17  19
ATOM     19  N   UNL     1       4.408   5.174  17.167  0.00  0.00    +0.000 N 
ATOM     20  H   UNL     1       4.325   5.391  16.172  0.00  0.00    +0.000 HD
BRANCH  19  21
ATOM     21  C   UNL     1       3.318   4.478  17.773  0.00  0.00    +0.000 A 
ATOM     22  C   UNL     1       2.636   5.023  18.861  0.00  0.00    +0.000 A 
ATOM     23  C   UNL     1       1.534   4.343  19.381  0.00  0.00    +0.000 A 
ATOM     24  C   UNL     1       1.147   3.153  18.786  0.00  0.00    +0.000 A 
ATOM     25  F   UNL     1       0.086   2.502  19.284  0.00  0.00    +0.000 F 
ATOM     26  N   UNL     1       1.778   2.602  17.728  0.00  0.00    +0.000 NA
ATOM     27  C   UNL     1       2.846   3.281  17.247  0.00  0.00    +0.000 A 
ENDBRANCH  19  21
ENDBRANCH  17  19
ENDBRANCH   1  17
TORSDOF 5
ENDMDL
MODEL 4
REMARK VINA RESULT:      -8.0      3.707      8.175
REMARK  Name = 
REMARK  5 active torsions:
REMARK  status: ('A' for Active; 'I' for Inactive)
REMARK    1  A    between atoms: S_2  and  N_4
REMARK    2  A    between atoms: S_2  and  C_12
REMARK    3  A    between atoms: N_4  and  C_5
REMARK    4  A    between atoms: C_15  and  C_16
REMARK    5  A    between atoms: C_19  and  C_20
REMARK                            x       y       z     vdW  Elec       q    Type
REMARK                         _______ _______ _______ _____ _____    ______ ____
ROOT
ATOM      1  C   UNL     1       4.501   5.994  18.246  0.00  0.00    +0.000 A 
ATOM      2  C   UNL     1       4.255   6.986  17.293  0.00  0.00    +0.000 A 
ATOM      3  C   UNL     1       3.243   7.920  17.506  0.00  0.00    +0.000 A 
ATOM      4  C   UNL     1       2.441   7.857  18.656  0.00  0.00    +0.000 A 
ATOM      5  C   UNL     1       2.671   6.832  19.587  0.00  0.00    +0.000 A 
ATOM      6  C   UNL     1       3.699   5.898  19.387  0.00  0.00    +0.000 A 
ENDROOT
BRANCH   4   7
ATOM      7  C   UNL     1       1.400   8.854  18.881  0.00  0.00    +0.000 A 
ATOM      8  N   UNL     1       1.096   9.352  20.091  0.00  0.00    +0.000 NA
ATOM      9  O   UNL     1       0.045  10.224  19.843  0.00  0.00    +0.000 OA
ATOM     10  C   UNL     1      -0.199  10.174  18.503  0.00  0.00    +0.000 A 
ATOM     11  N   UNL     1       0.615   9.351  17.865  0.00  0.00    +0.000 NA
BRANCH  10  12
ATOM     12  C   UNL     1      -1.327  11.011  18.022  0.00  0.00    +0.000 C 
ATOM     13  F   UNL     1      -1.745  10.661  16.775  0.00  0.00    +0.000 F 
ATOM     14  F   UNL     1      -2.415  10.925  18.831  0.00  0.00    +0.000 F 
ATOM     15  F   UNL     1      -0.992  12.328  17.956  0.00  0.00    +0.000 F 
ENDBRANCH  10  12
ENDBRANCH   4   7
BRANCH   1  17
ATOM     16  O   UNL     1       6.267   4.298  19.186  0.00  0.00    +0.000 OA
ATOM     17  S   UNL     1       5.784   4.804  17.918  0.00  0.00    +0.000 S 
ATOM     18  O   UNL     1       6.689   5.390  16.957  0.00  0.00    +0.000 OA
BRANCH  17  19
ATOM     19  N   UNL     1       4.976   3.553  17.102  0.00  0.00    +0.000 N 
ATOM     20  H   UNL     1       5.638   2.814  16.856  0.00  0.00    +0.000 HD
BRANCH  19  21
ATOM     21  C   UNL     1       3.706   3.144  17.611  0.00  0.00    +0.000 A 
ATOM     22  C   UNL     1       3.615   2.280  18.702  0.00  0.00    +0.000 A 
ATOM     23  C   UNL     1       2.356   1.958  19.210  0.00  0.00    +0.000 A 
ATOM     24  C   UNL     1       1.237   2.523  18.618  0.00  0.00    +0.000 A 
ATOM     25  F   UNL     1       0.029   2.216  19.109  0.00  0.00    +0.000 F 
ATOM     26  N   UNL     1       1.289   3.369  17.568  0.00  0.00    +0.000 NA
ATOM     27  C   UNL     1       2.523   3.660  17.093  0.00  0.00    +0.000 A 
ENDBRANCH  19  21
ENDBRANCH  17  19
ENDBRANCH   1  17
TORSDOF 5
ENDMDL
MODEL 5
REMARK VINA RESULT:      -8.0      2.201      2.795
REMARK  Name = 
REMARK  5 active torsions:
REMARK  status: ('A' for Active; 'I' for Inactive)
REMARK    1  A    between atoms: S_2  and  N_4
REMARK    2  A    between atoms: S_2  and  C_12
REMARK    3  A    between atoms: N_4  and  C_5
REMARK    4  A    between atoms: C_15  and  C_16
REMARK    5  A    between atoms: C_19  and  C_20
REMARK                            x       y       z     vdW  Elec       q    Type
REMARK                         _______ _______ _______ _____ _____    ______ ____
ROOT
ATOM      1  C   UNL     1       1.360   9.390  19.430  0.00  0.00    +0.000 A 
ATOM      2  C   UNL     1       1.890   9.149  18.160  0.00  0.00    +0.000 A 
ATOM      3  C   UNL     1       2.437   7.903  17.860  0.00  0.00    +0.000 A 
ATOM      4  C   UNL     1       2.493   6.892  18.833  0.00  0.00    +0.000 A 
ATOM      5  C   UNL     1       1.994   7.160  20.117  0.00  0.00    +0.000 A 
ATOM      6  C   UNL     1       1.426   8.407  20.422  0.00  0.00    +0.000 A 
ENDROOT
BRANCH   4   7
ATOM      7  C   UNL     1       3.045   5.583  18.501  0.00  0.00    +0.000 A 
ATOM      8  N   UNL     1       3.873   5.366  17.466  0.00  0.00    +0.000 NA
ATOM      9  O   UNL     1       4.113   3.999  17.507  0.00  0.00    +0.000 OA
ATOM     10  C   UNL     1       3.402   3.507  18.562  0.00  0.00    +0.000 A 
ATOM     11  N   UNL     1       2.734   4.445  19.211  0.00  0.00    +0.000 NA
BRANCH  10  12
ATOM     12  C   UNL     1       3.484   2.039  18.765  0.00  0.00    +0.000 C 
ATOM     13  F   UNL     1       2.318   1.507  19.220  0.00  0.00    +0.000 F 
ATOM     14  F   UNL     1       3.788   1.375  17.618  0.00  0.00    +0.000 F 
ATOM     15  F   UNL     1       4.438   1.703  19.675  0.00  0.00    +0.000 F 
ENDBRANCH  10  12
ENDBRANCH   4   7
BRANCH   1  17
ATOM     16  O   UNL     1       0.935  11.850  18.623  0.00  0.00    +0.000 OA
ATOM     17  S   UNL     1       0.700  11.007  19.777  0.00  0.00    +0.000 S 
ATOM     18  O   UNL     1       1.162  11.396  21.090  0.00  0.00    +0.000 OA
BRANCH  17  19
ATOM     19  N   UNL     1      -0.970  10.739  19.926  0.00  0.00    +0.000 N 
ATOM     20  H   UNL     1      -1.332  11.240  20.740  0.00  0.00    +0.000 HD
BRANCH  19  21
ATOM     21  C   UNL     1      -1.755  10.783  18.734  0.00  0.00    +0.000 A 
ATOM     22  C   UNL     1      -1.530   9.883  17.693  0.00  0.00    +0.000 A 
ATOM     23  C   UNL     1      -2.363   9.916  16.574  0.00  0.00    +0.000 A 
ATOM     24  C   UNL     1      -3.397  10.839  16.544  0.00  0.00    +0.000 A 
ATOM     25  F   UNL     1      -4.199  10.868  15.470  0.00  0.00    +0.000 F 
ATOM     26  N   UNL     1      -3.649  11.718  17.536  0.00  0.00    +0.000 NA
ATOM     27  C   UNL     1      -2.822  11.666  18.607  0.00  0.00    +0.000 A 
ENDBRANCH  19  21
ENDBRANCH  17  19
ENDBRANCH   1  17
TORSDOF 5
ENDMDL
MODEL 6
REMARK VINA RESULT:      -8.0      6.183      8.306
REMARK  Name = 
REMARK  5 active torsions:
REMARK  status: ('A' for Active; 'I' for Inactive)
REMARK    1  A    between atoms: S_2  and  N_4
REMARK    2  A    between atoms: S_2  and  C_12
REMARK    3  A    between atoms: N_4  and  C_5
REMARK    4  A    between atoms: C_15  and  C_16
REMARK    5  A    between atoms: C_19  and  C_20
REMARK                            x       y       z     vdW  Elec       q    Type
REMARK                         _______ _______ _______ _____ _____    ______ ____
ROOT
ATOM      1  C   UNL     1       6.872   6.109  17.759  0.00  0.00    +0.000 A 
ATOM      2  C   UNL     1       6.521   7.265  17.059  0.00  0.00    +0.000 A 
ATOM      3  C   UNL     1       7.183   8.464  17.319  0.00  0.00    +0.000 A 
ATOM      4  C   UNL     1       8.180   8.532  18.304  0.00  0.00    +0.000 A 
ATOM      5  C   UNL     1       8.496   7.372  19.029  0.00  0.00    +0.000 A 
ATOM      6  C   UNL     1       7.846   6.158  18.761  0.00  0.00    +0.000 A 
ENDROOT
BRANCH   4   7
ATOM      7  C   UNL     1       8.884   9.786  18.552  0.00  0.00    +0.000 A 
ATOM      8  N   UNL     1       9.079  10.727  17.613  0.00  0.00    +0.000 NA
ATOM      9  O   UNL     1       9.808  11.710  18.267  0.00  0.00    +0.000 OA
ATOM     10  C   UNL     1       9.997  11.274  19.545  0.00  0.00    +0.000 A 
ATOM     11  N   UNL     1       9.439  10.098  19.773  0.00  0.00    +0.000 NA
BRANCH  10  12
ATOM     12  C   UNL     1      10.800  12.166  20.419  0.00  0.00    +0.000 C 
ATOM     13  F   UNL     1      10.811  13.455  19.984  0.00  0.00    +0.000 F 
ATOM     14  F   UNL     1      10.333  12.196  21.695  0.00  0.00    +0.000 F 
ATOM     15  F   UNL     1      12.101  11.775  20.488  0.00  0.00    +0.000 F 
ENDBRANCH  10  12
ENDBRANCH   4   7
BRANCH   1  17
ATOM     16  O   UNL     1       5.853   3.862  18.651  0.00  0.00    +0.000 OA
ATOM     17  S   UNL     1       5.979   4.607  17.415  0.00  0.00    +0.000 S 
ATOM     18  O   UNL     1       6.568   4.007  16.240  0.00  0.00    +0.000 OA
BRANCH  17  19
ATOM     19  N   UNL     1       4.441   5.150  16.946  0.00  0.00    +0.000 N 
ATOM     20  H   UNL     1       4.327   5.043  15.936  0.00  0.00    +0.000 HD
BRANCH  19  21
ATOM     21  C   UNL     1       3.331   4.783  17.767  0.00  0.00    +0.000 A 
ATOM     22  C   UNL     1       2.578   3.644  17.486  0.00  0.00    +0.000 A 
ATOM     23  C   UNL     1       1.544   3.283  18.351  0.00  0.00    +0.000 A 
ATOM     24  C   UNL     1       1.312   4.066  19.470  0.00  0.00    +0.000 A 
ATOM     25  F   UNL     1       0.321   3.718  20.303  0.00  0.00    +0.000 F 
ATOM     26  N   UNL     1       2.026   5.170  19.777  0.00  0.00    +0.000 NA
ATOM     27  C   UNL     1       3.020   5.498  18.918  0.00  0.00    +0.000 A 
ENDBRANCH  19  21
ENDBRANCH  17  19
ENDBRANCH   1  17
TORSDOF 5
ENDMDL
MODEL 7
REMARK VINA RESULT:      -8.0      6.196      8.326
REMARK  Name = 
REMARK  5 active torsions:
REMARK  status: ('A' for Active; 'I' for Inactive)
REMARK    1  A    between atoms: S_2  and  N_4
REMARK    2  A    between atoms: S_2  and  C_12
REMARK    3  A    between atoms: N_4  and  C_5
REMARK    4  A    between atoms: C_15  and  C_16
REMARK    5  A    between atoms: C_19  and  C_20
REMARK                            x       y       z     vdW  Elec       q    Type
REMARK                         _______ _______ _______ _____ _____    ______ ____
ROOT
ATOM      1  C   UNL     1       6.851   6.268  17.799  0.00  0.00    +0.000 A 
ATOM      2  C   UNL     1       7.892   6.343  18.728  0.00  0.00    +0.000 A 
ATOM      3  C   UNL     1       8.526   7.562  18.964  0.00  0.00    +0.000 A 
ATOM      4  C   UNL     1       8.153   8.713  18.253  0.00  0.00    +0.000 A 
ATOM      5  C   UNL     1       7.134   8.615  17.293  0.00  0.00    +0.000 A 
ATOM      6  C   UNL     1       6.479   7.396  17.062  0.00  0.00    +0.000 A 
ENDROOT
BRANCH   4   7
ATOM      7  C   UNL     1       8.807   9.989  18.525  0.00  0.00    +0.000 A 
ATOM      8  N   UNL     1       8.669  11.076  17.748  0.00  0.00    +0.000 NA
ATOM      9  O   UNL     1       9.478  12.028  18.352  0.00  0.00    +0.000 OA
ATOM     10  C   UNL     1      10.041  11.431  19.441  0.00  0.00    +0.000 A 
ATOM     11  N   UNL     1       9.652  10.177  19.596  0.00  0.00    +0.000 NA
BRANCH  10  12
ATOM     12  C   UNL     1      10.987  12.270  20.219  0.00  0.00    +0.000 C 
ATOM     13  F   UNL     1      10.521  12.574  21.460  0.00  0.00    +0.000 F 
ATOM     14  F   UNL     1      12.189  11.660  20.399  0.00  0.00    +0.000 F 
ATOM     15  F   UNL     1      11.240  13.457  19.603  0.00  0.00    +0.000 F 
ENDBRANCH  10  12
ENDBRANCH   4   7
BRANCH   1  17
ATOM     16  O   UNL     1       5.948   4.010  18.783  0.00  0.00    +0.000 OA
ATOM     17  S   UNL     1       6.091   4.684  17.509  0.00  0.00    +0.000 S 
ATOM     18  O   UNL     1       6.788   4.059  16.409  0.00  0.00    +0.000 OA
BRANCH  17  19
ATOM     19  N   UNL     1       4.546   5.078  16.925  0.00  0.00    +0.000 N 
ATOM     20  H   UNL     1       4.510   4.937  15.913  0.00  0.00    +0.000 HD
BRANCH  19  21
ATOM     21  C   UNL     1       3.420   4.636  17.683  0.00  0.00    +0.000 A 
ATOM     22  C   UNL     1       2.815   3.408  17.417  0.00  0.00    +0.000 A 
ATOM     23  C   UNL     1       1.759   2.982  18.224  0.00  0.00    +0.000 A 
ATOM     24  C   UNL     1       1.358   3.793  19.274  0.00  0.00    +0.000 A 
ATOM     25  F   UNL     1       0.346   3.382  20.051  0.00  0.00    +0.000 F 
ATOM     26  N   UNL     1       1.927   4.982  19.565  0.00  0.00    +0.000 NA
ATOM     27  C   UNL     1       2.945   5.372  18.763  0.00  0.00    +0.000 A 
ENDBRANCH  19  21
ENDBRANCH  17  19
ENDBRANCH   1  17
TORSDOF 5
ENDMDL
MODEL 8
REMARK VINA RESULT:      -7.9      3.729      8.150
REMARK  Name = 
REMARK  5 active torsions:
REMARK  status: ('A' for Active; 'I' for Inactive)
REMARK    1  A    between atoms: S_2  and  N_4
REMARK    2  A    between atoms: S_2  and  C_12
REMARK    3  A    between atoms: N_4  and  C_5
REMARK    4  A    between atoms: C_15  and  C_16
REMARK    5  A    between atoms: C_19  and  C_20
REMARK                            x       y       z     vdW  Elec       q    Type
REMARK                         _______ _______ _______ _____ _____    ______ ____
ROOT
ATOM      1  C   UNL     1       4.485   5.892  18.193  0.00  0.00    +0.000 A 
ATOM      2  C   UNL     1       3.837   5.795  19.426  0.00  0.00    +0.000 A 
ATOM      3  C   UNL     1       2.835   6.705  19.758  0.00  0.00    +0.000 A 
ATOM      4  C   UNL     1       2.489   7.743  18.879  0.00  0.00    +0.000 A 
ATOM      5  C   UNL     1       3.177   7.854  17.660  0.00  0.00    +0.000 A 
ATOM      6  C   UNL     1       4.175   6.932  17.312  0.00  0.00    +0.000 A 
ENDROOT
BRANCH   4   7
ATOM      7  C   UNL     1       1.422   8.675  19.226  0.00  0.00    +0.000 A 
ATOM      8  N   UNL     1       0.931   8.814  20.468  0.00  0.00    +0.000 NA
ATOM      9  O   UNL     1      -0.072   9.763  20.330  0.00  0.00    +0.000 OA
ATOM     10  C   UNL     1      -0.105  10.111  19.012  0.00  0.00    +0.000 A 
ATOM     11  N   UNL     1       0.802   9.475  18.292  0.00  0.00    +0.000 NA
BRANCH  10  12
ATOM     12  C   UNL     1      -1.148  11.097  18.631  0.00  0.00    +0.000 C 
ATOM     13  F   UNL     1      -1.819  11.592  19.706  0.00  0.00    +0.000 F 
ATOM     14  F   UNL     1      -0.631  12.168  17.974  0.00  0.00    +0.000 F 
ATOM     15  F   UNL     1      -2.088  10.553  17.811  0.00  0.00    +0.000 F 
ENDBRANCH  10  12
ENDBRANCH   4   7
BRANCH   1  17
ATOM     16  O   UNL     1       6.348   4.270  19.077  0.00  0.00    +0.000 OA
ATOM     17  S   UNL     1       5.780   4.727  17.824  0.00  0.00    +0.000 S 
ATOM     18  O   UNL     1       6.613   5.308  16.797  0.00  0.00    +0.000 OA
BRANCH  17  19
ATOM     19  N   UNL     1       4.963   3.431  17.092  0.00  0.00    +0.000 N 
ATOM     20  H   UNL     1       5.618   2.670  16.901  0.00  0.00    +0.000 HD
BRANCH  19  21
ATOM     21  C   UNL     1       3.686   3.072  17.621  0.00  0.00    +0.000 A 
ATOM     22  C   UNL     1       3.581   2.243  18.737  0.00  0.00    +0.000 A 
ATOM     23  C   UNL     1       2.317   1.970  19.263  0.00  0.00    +0.000 A 
ATOM     24  C   UNL     1       1.209   2.546  18.661  0.00  0.00    +0.000 A 
ATOM     25  F   UNL     1      -0.004   2.286  19.169  0.00  0.00    +0.000 F 
ATOM     26  N   UNL     1       1.276   3.359  17.586  0.00  0.00    +0.000 NA
ATOM     27  C   UNL     1       2.514   3.603  17.095  0.00  0.00    +0.000 A 
ENDBRANCH  19  21
ENDBRANCH  17  19
ENDBRANCH   1  17
TORSDOF 5
ENDMDL
MODEL 9
REMARK VINA RESULT:      -7.9      0.954      1.411
REMARK  Name = 
REMARK  5 active torsions:
REMARK  status: ('A' for Active; 'I' for Inactive)
REMARK    1  A    between atoms: S_2  and  N_4
REMARK    2  A    between atoms: S_2  and  C_12
REMARK    3  A    between atoms: N_4  and  C_5
REMARK    4  A    between atoms: C_15  and  C_16
REMARK    5  A    between atoms: C_19  and  C_20
REMARK                            x       y       z     vdW  Elec       q    Type
REMARK                         _______ _______ _______ _____ _____    ______ ____
ROOT
ATOM      1  C   UNL     1       1.443   9.293  19.314  0.00  0.00    +0.000 A 
ATOM      2  C   UNL     1       2.013   9.354  18.040  0.00  0.00    +0.000 A 
ATOM      3  C   UNL     1       2.744   8.272  17.553  0.00  0.00    +0.000 A 
ATOM      4  C   UNL     1       2.944   7.129  18.342  0.00  0.00    +0.000 A 
ATOM      5  C   UNL     1       2.401   7.096  19.636  0.00  0.00    +0.000 A 
ATOM      6  C   UNL     1       1.650   8.174  20.127  0.00  0.00    +0.000 A 
ENDROOT
BRANCH   4   7
ATOM      7  C   UNL     1       3.690   5.992  17.813  0.00  0.00    +0.000 A 
ATOM      8  N   UNL     1       3.500   4.725  18.216  0.00  0.00    +0.000 NA
ATOM      9  O   UNL     1       4.430   3.996  17.489  0.00  0.00    +0.000 OA
ATOM     10  C   UNL     1       5.107   4.888  16.711  0.00  0.00    +0.000 A 
ATOM     11  N   UNL     1       4.683   6.130  16.868  0.00  0.00    +0.000 NA
BRANCH  10  12
ATOM     12  C   UNL     1       6.191   4.319  15.872  0.00  0.00    +0.000 C 
ATOM     13  F   UNL     1       7.390   4.284  16.515  0.00  0.00    +0.000 F 
ATOM     14  F   UNL     1       5.927   3.043  15.483  0.00  0.00    +0.000 F 
ATOM     15  F   UNL     1       6.388   5.040  14.735  0.00  0.00    +0.000 F 
ENDBRANCH  10  12
ENDBRANCH   4   7
BRANCH   1  17
ATOM     16  O   UNL     1       0.746  11.799  18.973  0.00  0.00    +0.000 OA
ATOM     17  S   UNL     1       0.543  10.710  19.907  0.00  0.00    +0.000 S 
ATOM     18  O   UNL     1       0.848  10.867  21.310  0.00  0.00    +0.000 OA
BRANCH  17  19
ATOM     19  N   UNL     1      -1.081  10.221  19.828  0.00  0.00    +0.000 N 
ATOM     20  H   UNL     1      -1.549  10.423  20.714  0.00  0.00    +0.000 HD
BRANCH  19  21
ATOM     21  C   UNL     1      -1.802  10.513  18.631  0.00  0.00    +0.000 A 
ATOM     22  C   UNL     1      -1.579   9.784  17.464  0.00  0.00    +0.000 A 
ATOM     23  C   UNL     1      -2.353  10.057  16.334  0.00  0.00    +0.000 A 
ATOM     24  C   UNL     1      -3.328  11.038  16.420  0.00  0.00    +0.000 A 
ATOM     25  F   UNL     1      -4.073  11.297  15.336  0.00  0.00    +0.000 F 
ATOM     26  N   UNL     1      -3.577  11.755  17.535  0.00  0.00    +0.000 NA
ATOM     27  C   UNL     1      -2.809  11.473  18.614  0.00  0.00    +0.000 A 
ENDBRANCH  19  21
ENDBRANCH  17  19
ENDBRANCH   1  17
TORSDOF 5
ENDMDL
