MODEL 1
REMARK VINA RESULT:      -9.4      0.000      0.000
REMARK  Name = 
REMARK  3 active torsions:
REMARK  status: ('A' for Active; 'I' for Inactive)
REMARK    1  A    between atoms: C_1  and  C_2
REMARK    2  A    between atoms: C_5  and  N_6
REMARK    3  A    between atoms: C_7  and  C_9
REMARK                            x       y       z     vdW  Elec       q    Type
REMARK                         _______ _______ _______ _____ _____    ______ ____
ROOT
ATOM      1  N   UNL     1       2.450   7.429  18.702  0.00  0.00    +0.000 N 
ATOM      2  C   UNL     1       1.995   8.645  18.219  0.00  0.00    +0.000 C 
ATOM      3  O   UNL     1       2.255   9.124  17.118  0.00  0.00    +0.000 OA
ATOM      4  H   UNL     1       2.151   7.183  19.643  0.00  0.00    +0.000 HD
ENDROOT
BRANCH   2   5
ATOM      5  C   UNL     1       1.111   9.430  19.127  0.00  0.00    +0.000 A 
ATOM      6  C   UNL     1       0.585  10.565  18.632  0.00  0.00    +0.000 A 
ATOM      7  N   UNL     1      -0.250  11.417  19.303  0.00  0.00    +0.000 N 
ATOM      8  C   UNL     1      -0.538  11.205  20.654  0.00  0.00    +0.000 A 
ATOM      9  C   UNL     1      -1.353  12.097  21.354  0.00  0.00    +0.000 A 
ATOM     10  C   UNL     1      -1.674  11.851  22.691  0.00  0.00    +0.000 A 
ATOM     11  C   UNL     1      -1.188  10.711  23.331  0.00  0.00    +0.000 A 
ATOM     12  C   UNL     1      -0.385   9.803  22.638  0.00  0.00    +0.000 A 
ATOM     13  C   UNL     1      -0.071  10.045  21.298  0.00  0.00    +0.000 A 
ATOM     14  C   UNL     1       0.768   9.077  20.529  0.00  0.00    +0.000 A 
ATOM     15  O   UNL     1       1.167   8.031  21.035  0.00  0.00    +0.000 OA
ATOM     16  H   UNL     1      -0.439  12.324  18.892  0.00  0.00    +0.000 HD
ENDBRANCH   2   5
BRANCH   1  21
ATOM     17  C   UNL     1       5.878   3.795  15.844  0.00  0.00    +0.000 C 
ATOM     18  C   UNL     1       4.954   4.708  16.603  0.00  0.00    +0.000 A 
ATOM     19  C   UNL     1       5.267   6.062  16.667  0.00  0.00    +0.000 A 
ATOM     20  C   UNL     1       4.442   6.937  17.358  0.00  0.00    +0.000 A 
ATOM     21  C   UNL     1       3.282   6.498  18.005  0.00  0.00    +0.000 A 
ATOM     22  C   UNL     1       2.954   5.105  17.943  0.00  0.00    +0.000 A 
ATOM     23  C   UNL     1       1.817   4.509  18.545  0.00  0.00    +0.000 A 
ATOM     24  C   UNL     1       1.574   3.140  18.433  0.00  0.00    +0.000 A 
ATOM     25  C   UNL     1       2.472   2.382  17.718  0.00  0.00    +0.000 A 
ATOM     26  N   UNL     1       3.566   2.893  17.127  0.00  0.00    +0.000 NA
ATOM     27  C   UNL     1       3.810   4.215  17.231  0.00  0.00    +0.000 A 
ENDBRANCH   1  21
TORSDOF 2
ENDMDL
MODEL 2
REMARK VINA RESULT:      -8.8      1.412      8.274
REMARK  Name = 
REMARK  3 active torsions:
REMARK  status: ('A' for Active; 'I' for Inactive)
REMARK    1  A    between atoms: C_1  and  C_2
REMARK    2  A    between atoms: C_5  and  N_6
REMARK    3  A    between atoms: C_7  and  C_9
REMARK                            x       y       z     vdW  Elec       q    Type
REMARK                         _______ _______ _______ _____ _____    ______ ____
ROOT
ATOM      1  N   UNL     1       1.868   8.044  19.808  0.00  0.00    +0.000 N 
ATOM      2  C   UNL     1       2.034   6.679  19.971  0.00  0.00    +0.000 C 
ATOM      3  O   UNL     1       1.527   5.994  20.856  0.00  0.00    +0.000 OA
ATOM      4  H   UNL     1       2.368   8.464  19.028  0.00  0.00    +0.000 HD
ENDROOT
BRANCH   2   5
ATOM      5  C   UNL     1       2.906   5.994  18.976  0.00  0.00    +0.000 A 
ATOM      6  C   UNL     1       3.120   4.678  19.157  0.00  0.00    +0.000 A 
ATOM      7  N   UNL     1       3.883   3.874  18.355  0.00  0.00    +0.000 N 
ATOM      8  C   UNL     1       4.614   4.422  17.298  0.00  0.00    +0.000 A 
ATOM      9  C   UNL     1       5.429   3.613  16.503  0.00  0.00    +0.000 A 
ATOM     10  C   UNL     1       6.119   4.161  15.420  0.00  0.00    +0.000 A 
ATOM     11  C   UNL     1       5.992   5.518  15.121  0.00  0.00    +0.000 A 
ATOM     12  C   UNL     1       5.168   6.336  15.898  0.00  0.00    +0.000 A 
ATOM     13  C   UNL     1       4.471   5.785  16.977  0.00  0.00    +0.000 A 
ATOM     14  C   UNL     1       3.567   6.634  17.809  0.00  0.00    +0.000 A 
ATOM     15  O   UNL     1       3.379   7.819  17.546  0.00  0.00    +0.000 OA
ATOM     16  H   UNL     1       4.114   2.945  18.688  0.00  0.00    +0.000 HD
ENDBRANCH   2   5
BRANCH   1  21
ATOM     17  C   UNL     1      -1.334  11.426  23.192  0.00  0.00    +0.000 C 
ATOM     18  C   UNL     1      -0.515  10.563  22.270  0.00  0.00    +0.000 A 
ATOM     19  C   UNL     1       0.365   9.643  22.830  0.00  0.00    +0.000 A 
ATOM     20  C   UNL     1       1.138   8.831  22.014  0.00  0.00    +0.000 A 
ATOM     21  C   UNL     1       1.062   8.903  20.619  0.00  0.00    +0.000 A 
ATOM     22  C   UNL     1       0.157   9.848  20.035  0.00  0.00    +0.000 A 
ATOM     23  C   UNL     1      -0.033  10.040  18.643  0.00  0.00    +0.000 A 
ATOM     24  C   UNL     1      -0.938  10.986  18.161  0.00  0.00    +0.000 A 
ATOM     25  C   UNL     1      -1.645  11.728  19.078  0.00  0.00    +0.000 A 
ATOM     26  N   UNL     1      -1.505  11.589  20.408  0.00  0.00    +0.000 NA
ATOM     27  C   UNL     1      -0.632  10.679  20.884  0.00  0.00    +0.000 A 
ENDBRANCH   1  21
TORSDOF 2
ENDMDL
MODEL 3
REMARK VINA RESULT:      -8.7      1.139      1.675
REMARK  Name = 
REMARK  3 active torsions:
REMARK  status: ('A' for Active; 'I' for Inactive)
REMARK    1  A    between atoms: C_1  and  C_2
REMARK    2  A    between atoms: C_5  and  N_6
REMARK    3  A    between atoms: C_7  and  C_9
REMARK                            x       y       z     vdW  Elec       q    Type
REMARK                         _______ _______ _______ _____ _____    ______ ____
ROOT
ATOM      1  N   UNL     1       2.376   7.381  19.058  0.00  0.00    +0.000 N 
ATOM      2  C   UNL     1       1.806   8.594  18.707  0.00  0.00    +0.000 C 
ATOM      3  O   UNL     1       1.895   9.138  17.609  0.00  0.00    +0.000 OA
ATOM      4  H   UNL     1       2.216   7.074  20.015  0.00  0.00    +0.000 HD
ENDROOT
BRANCH   2   5
ATOM      5  C   UNL     1       1.017   9.287  19.765  0.00  0.00    +0.000 A 
ATOM      6  C   UNL     1       1.129   8.808  21.018  0.00  0.00    +0.000 A 
ATOM      7  N   UNL     1       0.492   9.307  22.122  0.00  0.00    +0.000 N 
ATOM      8  C   UNL     1      -0.446  10.334  21.993  0.00  0.00    +0.000 A 
ATOM      9  C   UNL     1      -1.130  10.815  23.111  0.00  0.00    +0.000 A 
ATOM     10  C   UNL     1      -2.031  11.874  22.979  0.00  0.00    +0.000 A 
ATOM     11  C   UNL     1      -2.247  12.461  21.732  0.00  0.00    +0.000 A 
ATOM     12  C   UNL     1      -1.557  12.000  20.608  0.00  0.00    +0.000 A 
ATOM     13  C   UNL     1      -0.649  10.946  20.742  0.00  0.00    +0.000 A 
ATOM     14  C   UNL     1       0.116  10.449  19.560  0.00  0.00    +0.000 A 
ATOM     15  O   UNL     1       0.002  10.976  18.455  0.00  0.00    +0.000 OA
ATOM     16  H   UNL     1       0.514   8.759  22.975  0.00  0.00    +0.000 HD
ENDBRANCH   2   5
BRANCH   1  21
ATOM     17  C   UNL     1       5.551   4.072  15.580  0.00  0.00    +0.000 C 
ATOM     18  C   UNL     1       4.696   4.899  16.502  0.00  0.00    +0.000 A 
ATOM     19  C   UNL     1       4.964   6.260  16.610  0.00  0.00    +0.000 A 
ATOM     20  C   UNL     1       4.200   7.056  17.450  0.00  0.00    +0.000 A 
ATOM     21  C   UNL     1       3.148   6.529  18.207  0.00  0.00    +0.000 A 
ATOM     22  C   UNL     1       2.867   5.128  18.101  0.00  0.00    +0.000 A 
ATOM     23  C   UNL     1       1.838   4.448  18.801  0.00  0.00    +0.000 A 
ATOM     24  C   UNL     1       1.636   3.078  18.635  0.00  0.00    +0.000 A 
ATOM     25  C   UNL     1       2.464   2.403  17.770  0.00  0.00    +0.000 A 
ATOM     26  N   UNL     1       3.455   2.996  17.081  0.00  0.00    +0.000 NA
ATOM     27  C   UNL     1       3.660   4.319  17.234  0.00  0.00    +0.000 A 
ENDBRANCH   1  21
TORSDOF 2
ENDMDL
MODEL 4
REMARK VINA RESULT:      -8.6      1.269      1.457
REMARK  Name = 
REMARK  3 active torsions:
REMARK  status: ('A' for Active; 'I' for Inactive)
REMARK    1  A    between atoms: C_1  and  C_2
REMARK    2  A    between atoms: C_5  and  N_6
REMARK    3  A    between atoms: C_7  and  C_9
REMARK                            x       y       z     vdW  Elec       q    Type
REMARK                         _______ _______ _______ _____ _____    ______ ____
ROOT
ATOM      1  N   UNL     1       2.108   7.836  19.390  0.00  0.00    +0.000 N 
ATOM      2  C   UNL     1       1.610   8.923  18.691  0.00  0.00    +0.000 C 
ATOM      3  O   UNL     1       1.634   9.066  17.471  0.00  0.00    +0.000 OA
ATOM      4  H   UNL     1       2.020   7.879  20.402  0.00  0.00    +0.000 HD
ENDROOT
BRANCH   2   5
ATOM      5  C   UNL     1       0.992  10.008  19.506  0.00  0.00    +0.000 A 
ATOM      6  C   UNL     1       1.201  11.272  19.095  0.00  0.00    +0.000 A 
ATOM      7  N   UNL     1       0.718  12.399  19.701  0.00  0.00    +0.000 N 
ATOM      8  C   UNL     1       0.026  12.308  20.912  0.00  0.00    +0.000 A 
ATOM      9  C   UNL     1      -0.430  13.460  21.557  0.00  0.00    +0.000 A 
ATOM     10  C   UNL     1      -1.161  13.356  22.742  0.00  0.00    +0.000 A 
ATOM     11  C   UNL     1      -1.446  12.101  23.284  0.00  0.00    +0.000 A 
ATOM     12  C   UNL     1      -1.009  10.942  22.641  0.00  0.00    +0.000 A 
ATOM     13  C   UNL     1      -0.285  11.046  21.450  0.00  0.00    +0.000 A 
ATOM     14  C   UNL     1       0.175   9.819  20.732  0.00  0.00    +0.000 A 
ATOM     15  O   UNL     1      -0.104   8.695  21.141  0.00  0.00    +0.000 OA
ATOM     16  H   UNL     1       1.085  13.297  19.406  0.00  0.00    +0.000 HD
ENDBRANCH   2   5
BRANCH   1  21
ATOM     17  C   UNL     1       4.622   3.237  17.012  0.00  0.00    +0.000 C 
ATOM     18  C   UNL     1       3.941   4.410  17.662  0.00  0.00    +0.000 A 
ATOM     19  C   UNL     1       4.269   5.691  17.228  0.00  0.00    +0.000 A 
ATOM     20  C   UNL     1       3.664   6.798  17.803  0.00  0.00    +0.000 A 
ATOM     21  C   UNL     1       2.717   6.672  18.824  0.00  0.00    +0.000 A 
ATOM     22  C   UNL     1       2.375   5.357  19.277  0.00  0.00    +0.000 A 
ATOM     23  C   UNL     1       1.437   5.065  20.300  0.00  0.00    +0.000 A 
ATOM     24  C   UNL     1       1.165   3.750  20.677  0.00  0.00    +0.000 A 
ATOM     25  C   UNL     1       1.833   2.741  20.026  0.00  0.00    +0.000 A 
ATOM     26  N   UNL     1       2.732   2.958  19.050  0.00  0.00    +0.000 NA
ATOM     27  C   UNL     1       3.004   4.225  18.679  0.00  0.00    +0.000 A 
ENDBRANCH   1  21
TORSDOF 2
ENDMDL
MODEL 5
REMARK VINA RESULT:      -8.4      1.776      8.213
REMARK  Name = 
REMARK  3 active torsions:
REMARK  status: ('A' for Active; 'I' for Inactive)
REMARK    1  A    between atoms: C_1  and  C_2
REMARK    2  A    between atoms: C_5  and  N_6
REMARK    3  A    between atoms: C_7  and  C_9
REMARK                            x       y       z     vdW  Elec       q    Type
REMARK                         _______ _______ _______ _____ _____    ______ ____
ROOT
ATOM      1  N   UNL     1       1.311   9.147  19.281  0.00  0.00    +0.000 N 
ATOM      2  C   UNL     1       1.664   7.971  19.922  0.00  0.00    +0.000 C 
ATOM      3  O   UNL     1       1.289   7.621  21.039  0.00  0.00    +0.000 OA
ATOM      4  H   UNL     1       1.719   9.293  18.360  0.00  0.00    +0.000 HD
ENDROOT
BRANCH   2   5
ATOM      5  C   UNL     1       2.578   7.059  19.177  0.00  0.00    +0.000 A 
ATOM      6  C   UNL     1       2.837   5.865  19.740  0.00  0.00    +0.000 A 
ATOM      7  N   UNL     1       3.643   4.892  19.215  0.00  0.00    +0.000 N 
ATOM      8  C   UNL     1       4.371   5.134  18.047  0.00  0.00    +0.000 A 
ATOM      9  C   UNL     1       5.229   4.161  17.531  0.00  0.00    +0.000 A 
ATOM     10  C   UNL     1       5.917   4.393  16.338  0.00  0.00    +0.000 A 
ATOM     11  C   UNL     1       5.745   5.596  15.652  0.00  0.00    +0.000 A 
ATOM     12  C   UNL     1       4.878   6.572  16.148  0.00  0.00    +0.000 A 
ATOM     13  C   UNL     1       4.184   6.335  17.338  0.00  0.00    +0.000 A 
ATOM     14  C   UNL     1       3.234   7.354  17.878  0.00  0.00    +0.000 A 
ATOM     15  O   UNL     1       3.007   8.401  17.275  0.00  0.00    +0.000 OA
ATOM     16  H   UNL     1       3.902   4.112  19.808  0.00  0.00    +0.000 HD
ENDBRANCH   2   5
BRANCH   1  21
ATOM     17  C   UNL     1      -2.153  13.209  21.435  0.00  0.00    +0.000 C 
ATOM     18  C   UNL     1      -1.275  12.144  20.834  0.00  0.00    +0.000 A 
ATOM     19  C   UNL     1      -0.129  11.763  21.524  0.00  0.00    +0.000 A 
ATOM     20  C   UNL     1       0.706  10.786  21.003  0.00  0.00    +0.000 A 
ATOM     21  C   UNL     1       0.432  10.157  19.785  0.00  0.00    +0.000 A 
ATOM     22  C   UNL     1      -0.747  10.544  19.069  0.00  0.00    +0.000 A 
ATOM     23  C   UNL     1      -1.161  10.001  17.826  0.00  0.00    +0.000 A 
ATOM     24  C   UNL     1      -2.327  10.439  17.198  0.00  0.00    +0.000 A 
ATOM     25  C   UNL     1      -3.068  11.415  17.822  0.00  0.00    +0.000 A 
ATOM     26  N   UNL     1      -2.724  11.965  18.999  0.00  0.00    +0.000 NA
ATOM     27  C   UNL     1      -1.598  11.551  19.613  0.00  0.00    +0.000 A 
ENDBRANCH   1  21
TORSDOF 2
ENDMDL
MODEL 6
REMARK VINA RESULT:      -8.4      1.262      1.419
REMARK  Name = 
REMARK  3 active torsions:
REMARK  status: ('A' for Active; 'I' for Inactive)
REMARK    1  A    between atoms: C_1  and  C_2
REMARK    2  A    between atoms: C_5  and  N_6
REMARK    3  A    between atoms: C_7  and  C_9
REMARK                            x       y       z     vdW  Elec       q    Type
REMARK                         _______ _______ _______ _____ _____    ______ ____
ROOT
ATOM      1  N   UNL     1       1.864   7.993  19.204  0.00  0.00    +0.000 N 
ATOM      2  C   UNL     1       1.475   9.165  18.576  0.00  0.00    +0.000 C 
ATOM      3  O   UNL     1       1.871   9.560  17.482  0.00  0.00    +0.000 OA
ATOM      4  H   UNL     1       1.449   7.818  20.117  0.00  0.00    +0.000 HD
ENDROOT
BRANCH   2   5
ATOM      5  C   UNL     1       0.487  10.011  19.305  0.00  0.00    +0.000 A 
ATOM      6  C   UNL     1      -0.322  10.782  18.556  0.00  0.00    +0.000 A 
ATOM      7  N   UNL     1      -1.292  11.621  19.034  0.00  0.00    +0.000 N 
ATOM      8  C   UNL     1      -1.440  11.819  20.409  0.00  0.00    +0.000 A 
ATOM      9  C   UNL     1      -2.399  12.708  20.899  0.00  0.00    +0.000 A 
ATOM     10  C   UNL     1      -2.571  12.863  22.276  0.00  0.00    +0.000 A 
ATOM     11  C   UNL     1      -1.792  12.126  23.169  0.00  0.00    +0.000 A 
ATOM     12  C   UNL     1      -0.840  11.222  22.692  0.00  0.00    +0.000 A 
ATOM     13  C   UNL     1      -0.674  11.061  21.314  0.00  0.00    +0.000 A 
ATOM     14  C   UNL     1       0.322  10.085  20.779  0.00  0.00    +0.000 A 
ATOM     15  O   UNL     1       0.987   9.372  21.528  0.00  0.00    +0.000 OA
ATOM     16  H   UNL     1      -1.715  12.280  18.390  0.00  0.00    +0.000 HD
ENDBRANCH   2   5
BRANCH   1  21
ATOM     17  C   UNL     1       5.561   4.158  17.024  0.00  0.00    +0.000 C 
ATOM     18  C   UNL     1       4.580   5.129  17.625  0.00  0.00    +0.000 A 
ATOM     19  C   UNL     1       4.523   6.419  17.108  0.00  0.00    +0.000 A 
ATOM     20  C   UNL     1       3.634   7.343  17.635  0.00  0.00    +0.000 A 
ATOM     21  C   UNL     1       2.774   7.018  18.690  0.00  0.00    +0.000 A 
ATOM     22  C   UNL     1       2.828   5.691  19.227  0.00  0.00    +0.000 A 
ATOM     23  C   UNL     1       2.024   5.210  20.292  0.00  0.00    +0.000 A 
ATOM     24  C   UNL     1       2.143   3.899  20.753  0.00  0.00    +0.000 A 
ATOM     25  C   UNL     1       3.065   3.082  20.142  0.00  0.00    +0.000 A 
ATOM     26  N   UNL     1       3.853   3.484  19.129  0.00  0.00    +0.000 NA
ATOM     27  C   UNL     1       3.747   4.749  18.678  0.00  0.00    +0.000 A 
ENDBRANCH   1  21
TORSDOF 2
ENDMDL
MODEL 7
REMARK VINA RESULT:      -8.2      1.679      2.224
REMARK  Name = 
REMARK  3 active torsions:
REMARK  status: ('A' for Active; 'I' for Inactive)
REMARK    1  A    between atoms: C_1  and  C_2
REMARK    2  A    between atoms: C_5  and  N_6
REMARK    3  A    between atoms: C_7  and  C_9
REMARK                            x       y       z     vdW  Elec       q    Type
REMARK                         _______ _______ _______ _____ _____    ______ ____
ROOT
ATOM      1  N   UNL     1       1.984   7.875  19.758  0.00  0.00    +0.000 N 
ATOM      2  C   UNL     1       1.326   8.971  19.226  0.00  0.00    +0.000 C 
ATOM      3  O   UNL     1       1.198   9.222  18.030  0.00  0.00    +0.000 OA
ATOM      4  H   UNL     1       2.010   7.821  20.774  0.00  0.00    +0.000 HD
ENDROOT
BRANCH   2   5
ATOM      5  C   UNL     1       0.724   9.922  20.205  0.00  0.00    +0.000 A 
ATOM      6  C   UNL     1      -0.073   9.395  21.152  0.00  0.00    +0.000 A 
ATOM      7  N   UNL     1      -0.712  10.097  22.138  0.00  0.00    +0.000 N 
ATOM      8  C   UNL     1      -0.658  11.493  22.159  0.00  0.00    +0.000 A 
ATOM      9  C   UNL     1      -1.346  12.215  23.137  0.00  0.00    +0.000 A 
ATOM     10  C   UNL     1      -1.248  13.607  23.179  0.00  0.00    +0.000 A 
ATOM     11  C   UNL     1      -0.457  14.284  22.248  0.00  0.00    +0.000 A 
ATOM     12  C   UNL     1       0.248  13.573  21.275  0.00  0.00    +0.000 A 
ATOM     13  C   UNL     1       0.156  12.179  21.239  0.00  0.00    +0.000 A 
ATOM     14  C   UNL     1       0.918  11.394  20.221  0.00  0.00    +0.000 A 
ATOM     15  O   UNL     1       1.672  11.944  19.422  0.00  0.00    +0.000 OA
ATOM     16  H   UNL     1      -1.422   9.620  22.682  0.00  0.00    +0.000 HD
ENDBRANCH   2   5
BRANCH   1  21
ATOM     17  C   UNL     1       4.564   3.743  16.692  0.00  0.00    +0.000 C 
ATOM     18  C   UNL     1       3.870   4.790  17.521  0.00  0.00    +0.000 A 
ATOM     19  C   UNL     1       4.097   6.129  17.222  0.00  0.00    +0.000 A 
ATOM     20  C   UNL     1       3.477   7.124  17.963  0.00  0.00    +0.000 A 
ATOM     21  C   UNL     1       2.613   6.823  19.020  0.00  0.00    +0.000 A 
ATOM     22  C   UNL     1       2.374   5.446  19.334  0.00  0.00    +0.000 A 
ATOM     23  C   UNL     1       1.528   4.982  20.373  0.00  0.00    +0.000 A 
ATOM     24  C   UNL     1       1.353   3.618  20.607  0.00  0.00    +0.000 A 
ATOM     25  C   UNL     1       2.026   2.733  19.799  0.00  0.00    +0.000 A 
ATOM     26  N   UNL     1       2.841   3.116  18.800  0.00  0.00    +0.000 NA
ATOM     27  C   UNL     1       3.018   4.431  18.566  0.00  0.00    +0.000 A 
ENDBRANCH   1  21
TORSDOF 2
ENDMDL
MODEL 8
REMARK VINA RESULT:      -8.2      1.206      1.972
REMARK  Name = 
REMARK  3 active torsions:
REMARK  status: ('A' for Active; 'I' for Inactive)
REMARK    1  A    between atoms: C_1  and  C_2
REMARK    2  A    between atoms: C_5  and  N_6
REMARK    3  A    between atoms: C_7  and  C_9
REMARK                            x       y       z     vdW  Elec       q    Type
REMARK                         _______ _______ _______ _____ _____    ______ ____
ROOT
ATOM      1  N   UNL     1       2.333   7.590  18.742  0.00  0.00    +0.000 N 
ATOM      2  C   UNL     1       1.993   7.533  20.084  0.00  0.00    +0.000 C 
ATOM      3  O   UNL     1       2.327   6.653  20.873  0.00  0.00    +0.000 OA
ATOM      4  H   UNL     1       1.963   8.382  18.222  0.00  0.00    +0.000 HD
ENDROOT
BRANCH   2   5
ATOM      5  C   UNL     1       1.146   8.646  20.600  0.00  0.00    +0.000 A 
ATOM      6  C   UNL     1       1.027   8.749  21.936  0.00  0.00    +0.000 A 
ATOM      7  N   UNL     1       0.302   9.700  22.602  0.00  0.00    +0.000 N 
ATOM      8  C   UNL     1      -0.488  10.609  21.894  0.00  0.00    +0.000 A 
ATOM      9  C   UNL     1      -1.264  11.552  22.571  0.00  0.00    +0.000 A 
ATOM     10  C   UNL     1      -2.013  12.488  21.855  0.00  0.00    +0.000 A 
ATOM     11  C   UNL     1      -1.985  12.489  20.459  0.00  0.00    +0.000 A 
ATOM     12  C   UNL     1      -1.201  11.562  19.770  0.00  0.00    +0.000 A 
ATOM     13  C   UNL     1      -0.445  10.631  20.488  0.00  0.00    +0.000 A 
ATOM     14  C   UNL     1       0.418   9.643  19.775  0.00  0.00    +0.000 A 
ATOM     15  O   UNL     1       0.520   9.647  18.550  0.00  0.00    +0.000 OA
ATOM     16  H   UNL     1       0.142   9.572  23.596  0.00  0.00    +0.000 HD
ENDBRANCH   2   5
BRANCH   1  21
ATOM     17  C   UNL     1       5.708   3.938  15.843  0.00  0.00    +0.000 C 
ATOM     18  C   UNL     1       4.798   4.857  16.612  0.00  0.00    +0.000 A 
ATOM     19  C   UNL     1       5.132   6.204  16.695  0.00  0.00    +0.000 A 
ATOM     20  C   UNL     1       4.319   7.083  17.396  0.00  0.00    +0.000 A 
ATOM     21  C   UNL     1       3.152   6.654  18.035  0.00  0.00    +0.000 A 
ATOM     22  C   UNL     1       2.801   5.267  17.954  0.00  0.00    +0.000 A 
ATOM     23  C   UNL     1       1.654   4.682  18.547  0.00  0.00    +0.000 A 
ATOM     24  C   UNL     1       1.390   3.318  18.416  0.00  0.00    +0.000 A 
ATOM     25  C   UNL     1       2.277   2.556  17.693  0.00  0.00    +0.000 A 
ATOM     26  N   UNL     1       3.380   3.057  17.111  0.00  0.00    +0.000 NA
ATOM     27  C   UNL     1       3.645   4.373  17.232  0.00  0.00    +0.000 A 
ENDBRANCH   1  21
TORSDOF 2
ENDMDL
MODEL 9
REMARK VINA RESULT:      -8.2      2.185      7.654
REMARK  Name = 
REMARK  3 active torsions:
REMARK  status: ('A' for Active; 'I' for Inactive)
REMARK    1  A    between atoms: C_1  and  C_2
REMARK    2  A    between atoms: C_5  and  N_6
REMARK    3  A    between atoms: C_7  and  C_9
REMARK                            x       y       z     vdW  Elec       q    Type
REMARK                         _______ _______ _______ _____ _____    ______ ____
ROOT
ATOM      1  N   UNL     1       1.293   9.027  19.478  0.00  0.00    +0.000 N 
ATOM      2  C   UNL     1       2.070   8.477  18.472  0.00  0.00    +0.000 C 
ATOM      3  O   UNL     1       2.352   9.017  17.405  0.00  0.00    +0.000 OA
ATOM      4  H   UNL     1       1.144   8.441  20.297  0.00  0.00    +0.000 HD
ENDROOT
BRANCH   2   5
ATOM      5  C   UNL     1       2.604   7.107  18.721  0.00  0.00    +0.000 A 
ATOM      6  C   UNL     1       3.481   6.625  17.823  0.00  0.00    +0.000 A 
ATOM      7  N   UNL     1       4.085   5.397  17.876  0.00  0.00    +0.000 N 
ATOM      8  C   UNL     1       3.728   4.477  18.865  0.00  0.00    +0.000 A 
ATOM      9  C   UNL     1       4.309   3.208  18.896  0.00  0.00    +0.000 A 
ATOM     10  C   UNL     1       3.981   2.312  19.916  0.00  0.00    +0.000 A 
ATOM     11  C   UNL     1       3.077   2.683  20.913  0.00  0.00    +0.000 A 
ATOM     12  C   UNL     1       2.501   3.955  20.902  0.00  0.00    +0.000 A 
ATOM     13  C   UNL     1       2.836   4.854  19.886  0.00  0.00    +0.000 A 
ATOM     14  C   UNL     1       2.250   6.228  19.865  0.00  0.00    +0.000 A 
ATOM     15  O   UNL     1       1.497   6.617  20.754  0.00  0.00    +0.000 OA
ATOM     16  H   UNL     1       4.587   5.075  17.056  0.00  0.00    +0.000 HD
ENDBRANCH   2   5
BRANCH   1  21
ATOM     17  C   UNL     1      -1.014  14.299  19.577  0.00  0.00    +0.000 C 
ATOM     18  C   UNL     1      -0.443  12.908  19.520  0.00  0.00    +0.000 A 
ATOM     19  C   UNL     1       0.679  12.620  20.290  0.00  0.00    +0.000 A 
ATOM     20  C   UNL     1       1.235  11.350  20.264  0.00  0.00    +0.000 A 
ATOM     21  C   UNL     1       0.698  10.327  19.475  0.00  0.00    +0.000 A 
ATOM     22  C   UNL     1      -0.457  10.617  18.679  0.00  0.00    +0.000 A 
ATOM     23  C   UNL     1      -1.115   9.690  17.831  0.00  0.00    +0.000 A 
ATOM     24  C   UNL     1      -2.238  10.060  17.090  0.00  0.00    +0.000 A 
ATOM     25  C   UNL     1      -2.690  11.353  17.206  0.00  0.00    +0.000 A 
ATOM     26  N   UNL     1      -2.106  12.273  17.994  0.00  0.00    +0.000 NA
ATOM     27  C   UNL     1      -1.020  11.927  18.713  0.00  0.00    +0.000 A 
ENDBRANCH   1  21
TORSDOF 2
ENDMDL
