MODEL 1
REMARK VINA RESULT:      -8.7      0.000      0.000
REMARK  Name = 
REMARK  6 active torsions:
REMARK  status: ('A' for Active; 'I' for Inactive)
REMARK    1  A    between atoms: C_1  and  C_2
REMARK    2  A    between atoms: C_6  and  N_7
REMARK    3  A    between atoms: C_8  and  C_10
REMARK    4  A    between atoms: C_10  and  N_11
REMARK    5  A    between atoms: C_14  and  C_15
REMARK    6  A    between atoms: C_19  and  C_20
REMARK                            x       y       z     vdW  Elec       q    Type
REMARK                         _______ _______ _______ _____ _____    ______ ____
ROOT
ATOM      1  N   UNL     1       7.618   7.252  17.952  0.00  0.00    +0.000 N 
ATOM      2  N   UNL     1       6.967   8.062  17.105  0.00  0.00    +0.000 NA
ATOM      3  N   UNL     1       7.481   9.261  17.320  0.00  0.00    +0.000 NA
ATOM      4  C   UNL     1       8.457   9.114  18.278  0.00  0.00    +0.000 A 
ATOM      5  N   UNL     1       8.601   7.834  18.678  0.00  0.00    +0.000 NA
ENDROOT
BRANCH   4   6
ATOM      6  C   UNL     1       9.178  10.249  18.837  0.00  0.00    +0.000 A 
ATOM      7  C   UNL     1       9.268  10.435  20.222  0.00  0.00    +0.000 A 
ATOM      8  C   UNL     1       9.884  11.573  20.747  0.00  0.00    +0.000 A 
ATOM      9  C   UNL     1      10.413  12.540  19.893  0.00  0.00    +0.000 A 
ATOM     10  C   UNL     1      10.350  12.372  18.503  0.00  0.00    +0.000 A 
ATOM     11  C   UNL     1       9.744  11.213  17.986  0.00  0.00    +0.000 A 
BRANCH  10  12
ATOM     12  C   UNL     1      10.895  13.420  17.562  0.00  0.00    +0.000 C 
ATOM     13  F   UNL     1      10.089  14.510  17.437  0.00  0.00    +0.000 F 
ATOM     14  F   UNL     1      12.108  13.895  17.956  0.00  0.00    +0.000 F 
ATOM     15  F   UNL     1      11.071  12.941  16.300  0.00  0.00    +0.000 F 
ENDBRANCH  10  12
ENDBRANCH   4   6
BRANCH   1  16
ATOM     16  C   UNL     1       7.413   5.827  17.933  0.00  0.00    +0.000 C 
BRANCH  16  18
ATOM     17  N   UNL     1       4.976   5.518  18.244  0.00  0.00    +0.000 N 
ATOM     18  C   UNL     1       6.249   5.349  18.769  0.00  0.00    +0.000 C 
ATOM     19  O   UNL     1       6.491   4.945  19.908  0.00  0.00    +0.000 OA
ATOM     20  H   UNL     1       4.897   5.977  17.335  0.00  0.00    +0.000 HD
BRANCH  17  26
ATOM     21  C   UNL     1       1.308   2.233  18.890  0.00  0.00    +0.000 C 
ATOM     22  C   UNL     1       1.949   3.554  19.203  0.00  0.00    +0.000 A 
ATOM     23  C   UNL     1       1.305   4.446  20.067  0.00  0.00    +0.000 A 
ATOM     24  C   UNL     1       1.884   5.675  20.359  0.00  0.00    +0.000 A 
ATOM     25  C   UNL     1       3.099   6.035  19.774  0.00  0.00    +0.000 A 
ATOM     26  C   UNL     1       3.758   5.175  18.888  0.00  0.00    +0.000 A 
ATOM     27  C   UNL     1       3.184   3.920  18.629  0.00  0.00    +0.000 A 
ENDBRANCH  17  26
ENDBRANCH  16  18
ENDBRANCH   1  16
TORSDOF 5
ENDMDL
MODEL 2
REMARK VINA RESULT:      -8.5      7.875     10.260
REMARK  Name = 
REMARK  6 active torsions:
REMARK  status: ('A' for Active; 'I' for Inactive)
REMARK    1  A    between atoms: C_1  and  C_2
REMARK    2  A    between atoms: C_6  and  N_7
REMARK    3  A    between atoms: C_8  and  C_10
REMARK    4  A    between atoms: C_10  and  N_11
REMARK    5  A    between atoms: C_14  and  C_15
REMARK    6  A    between atoms: C_19  and  C_20
REMARK                            x       y       z     vdW  Elec       q    Type
REMARK                         _______ _______ _______ _____ _____    ______ ____
ROOT
ATOM      1  N   UNL     1       0.843  10.036  20.906  0.00  0.00    +0.000 N 
ATOM      2  N   UNL     1       1.159   9.539  22.111  0.00  0.00    +0.000 NA
ATOM      3  N   UNL     1       1.661   8.341  21.864  0.00  0.00    +0.000 NA
ATOM      4  C   UNL     1       1.656   8.178  20.498  0.00  0.00    +0.000 A 
ATOM      5  N   UNL     1       1.177   9.260  19.849  0.00  0.00    +0.000 NA
ENDROOT
BRANCH   4   6
ATOM      6  C   UNL     1       2.053   6.931  19.860  0.00  0.00    +0.000 A 
ATOM      7  C   UNL     1       2.783   6.931  18.665  0.00  0.00    +0.000 A 
ATOM      8  C   UNL     1       3.081   5.733  18.015  0.00  0.00    +0.000 A 
ATOM      9  C   UNL     1       2.648   4.519  18.549  0.00  0.00    +0.000 A 
ATOM     10  C   UNL     1       1.929   4.488  19.752  0.00  0.00    +0.000 A 
ATOM     11  C   UNL     1       1.651   5.701  20.408  0.00  0.00    +0.000 A 
BRANCH  10  12
ATOM     12  C   UNL     1       1.431   3.186  20.333  0.00  0.00    +0.000 C 
ATOM     13  F   UNL     1       2.310   2.156  20.190  0.00  0.00    +0.000 F 
ATOM     14  F   UNL     1       1.171   3.274  21.665  0.00  0.00    +0.000 F 
ATOM     15  F   UNL     1       0.273   2.769  19.750  0.00  0.00    +0.000 F 
ENDBRANCH  10  12
ENDBRANCH   4   6
BRANCH   1  16
ATOM     16  C   UNL     1       0.369  11.387  20.754  0.00  0.00    +0.000 C 
BRANCH  16  18
ATOM     17  N   UNL     1      -1.448  10.722  19.209  0.00  0.00    +0.000 N 
ATOM     18  C   UNL     1      -0.441  11.631  19.503  0.00  0.00    +0.000 C 
ATOM     19  O   UNL     1      -0.088  12.551  18.763  0.00  0.00    +0.000 OA
ATOM     20  H   UNL     1      -1.568   9.929  19.841  0.00  0.00    +0.000 HD
BRANCH  17  26
ATOM     21  C   UNL     1      -5.654  12.290  17.087  0.00  0.00    +0.000 C 
ATOM     22  C   UNL     1      -4.365  11.525  17.021  0.00  0.00    +0.000 A 
ATOM     23  C   UNL     1      -4.047  10.805  15.864  0.00  0.00    +0.000 A 
ATOM     24  C   UNL     1      -2.860  10.086  15.794  0.00  0.00    +0.000 A 
ATOM     25  C   UNL     1      -1.990  10.061  16.886  0.00  0.00    +0.000 A 
ATOM     26  C   UNL     1      -2.288  10.752  18.064  0.00  0.00    +0.000 A 
ATOM     27  C   UNL     1      -3.472  11.506  18.113  0.00  0.00    +0.000 A 
ENDBRANCH  17  26
ENDBRANCH  16  18
ENDBRANCH   1  16
TORSDOF 5
ENDMDL
MODEL 3
REMARK VINA RESULT:      -8.5      6.860      8.150
REMARK  Name = 
REMARK  6 active torsions:
REMARK  status: ('A' for Active; 'I' for Inactive)
REMARK    1  A    between atoms: C_1  and  C_2
REMARK    2  A    between atoms: C_6  and  N_7
REMARK    3  A    between atoms: C_8  and  C_10
REMARK    4  A    between atoms: C_10  and  N_11
REMARK    5  A    between atoms: C_14  and  C_15
REMARK    6  A    between atoms: C_19  and  C_20
REMARK                            x       y       z     vdW  Elec       q    Type
REMARK                         _______ _______ _______ _____ _____    ______ ____
ROOT
ATOM      1  N   UNL     1       5.067   4.257  18.113  0.00  0.00    +0.000 N 
ATOM      2  N   UNL     1       6.359   4.436  18.424  0.00  0.00    +0.000 NA
ATOM      3  N   UNL     1       6.982   4.508  17.260  0.00  0.00    +0.000 NA
ATOM      4  C   UNL     1       6.019   4.400  16.283  0.00  0.00    +0.000 A 
ATOM      5  N   UNL     1       4.776   4.279  16.792  0.00  0.00    +0.000 NA
ENDROOT
BRANCH   4   6
ATOM      6  C   UNL     1       6.349   4.343  14.866  0.00  0.00    +0.000 A 
ATOM      7  C   UNL     1       7.512   4.947  14.370  0.00  0.00    +0.000 A 
ATOM      8  C   UNL     1       7.773   4.964  12.999  0.00  0.00    +0.000 A 
ATOM      9  C   UNL     1       6.874   4.381  12.107  0.00  0.00    +0.000 A 
ATOM     10  C   UNL     1       5.710   3.755  12.577  0.00  0.00    +0.000 A 
ATOM     11  C   UNL     1       5.467   3.728  13.962  0.00  0.00    +0.000 A 
BRANCH  10  12
ATOM     12  C   UNL     1       4.713   3.140  11.624  0.00  0.00    +0.000 C 
ATOM     13  F   UNL     1       3.497   2.903  12.189  0.00  0.00    +0.000 F 
ATOM     14  F   UNL     1       4.475   3.925  10.538  0.00  0.00    +0.000 F 
ATOM     15  F   UNL     1       5.136   1.941  11.136  0.00  0.00    +0.000 F 
ENDBRANCH  10  12
ENDBRANCH   4   6
BRANCH   1  16
ATOM     16  C   UNL     1       4.046   4.246  19.129  0.00  0.00    +0.000 C 
BRANCH  16  18
ATOM     17  N   UNL     1       3.114   6.457  19.740  0.00  0.00    +0.000 N 
ATOM     18  C   UNL     1       2.988   5.311  18.968  0.00  0.00    +0.000 C 
ATOM     19  O   UNL     1       2.021   5.052  18.250  0.00  0.00    +0.000 OA
ATOM     20  H   UNL     1       3.901   6.505  20.390  0.00  0.00    +0.000 HD
BRANCH  17  26
ATOM     21  C   UNL     1      -0.280   9.082  22.239  0.00  0.00    +0.000 C 
ATOM     22  C   UNL     1       0.531   8.840  21.000  0.00  0.00    +0.000 A 
ATOM     23  C   UNL     1       0.331   9.649  19.875  0.00  0.00    +0.000 A 
ATOM     24  C   UNL     1       1.070   9.430  18.719  0.00  0.00    +0.000 A 
ATOM     25  C   UNL     1       1.999   8.389  18.666  0.00  0.00    +0.000 A 
ATOM     26  C   UNL     1       2.207   7.549  19.765  0.00  0.00    +0.000 A 
ATOM     27  C   UNL     1       1.482   7.800  20.942  0.00  0.00    +0.000 A 
ENDBRANCH  17  26
ENDBRANCH  16  18
ENDBRANCH   1  16
TORSDOF 5
ENDMDL
MODEL 4
REMARK VINA RESULT:      -8.5      6.804      8.086
REMARK  Name = 
REMARK  6 active torsions:
REMARK  status: ('A' for Active; 'I' for Inactive)
REMARK    1  A    between atoms: C_1  and  C_2
REMARK    2  A    between atoms: C_6  and  N_7
REMARK    3  A    between atoms: C_8  and  C_10
REMARK    4  A    between atoms: C_10  and  N_11
REMARK    5  A    between atoms: C_14  and  C_15
REMARK    6  A    between atoms: C_19  and  C_20
REMARK                            x       y       z     vdW  Elec       q    Type
REMARK                         _______ _______ _______ _____ _____    ______ ____
ROOT
ATOM      1  N   UNL     1       4.946   3.927  18.220  0.00  0.00    +0.000 N 
ATOM      2  N   UNL     1       6.135   4.447  18.557  0.00  0.00    +0.000 NA
ATOM      3  N   UNL     1       6.751   4.660  17.406  0.00  0.00    +0.000 NA
ATOM      4  C   UNL     1       5.881   4.284  16.410  0.00  0.00    +0.000 A 
ATOM      5  N   UNL     1       4.699   3.847  16.892  0.00  0.00    +0.000 NA
ENDROOT
BRANCH   4   6
ATOM      6  C   UNL     1       6.256   4.290  15.003  0.00  0.00    +0.000 A 
ATOM      7  C   UNL     1       7.406   4.959  14.565  0.00  0.00    +0.000 A 
ATOM      8  C   UNL     1       7.708   5.036  13.205  0.00  0.00    +0.000 A 
ATOM      9  C   UNL     1       6.863   4.447  12.265  0.00  0.00    +0.000 A 
ATOM     10  C   UNL     1       5.714   3.757  12.676  0.00  0.00    +0.000 A 
ATOM     11  C   UNL     1       5.429   3.671  14.051  0.00  0.00    +0.000 A 
BRANCH  10  12
ATOM     12  C   UNL     1       4.774   3.134  11.672  0.00  0.00    +0.000 C 
ATOM     13  F   UNL     1       5.208   1.936  11.191  0.00  0.00    +0.000 F 
ATOM     14  F   UNL     1       3.536   2.903  12.188  0.00  0.00    +0.000 F 
ATOM     15  F   UNL     1       4.584   3.926  10.580  0.00  0.00    +0.000 F 
ENDBRANCH  10  12
ENDBRANCH   4   6
BRANCH   1  16
ATOM     16  C   UNL     1       3.935   3.665  19.211  0.00  0.00    +0.000 C 
BRANCH  16  18
ATOM     17  N   UNL     1       3.113   5.951  18.731  0.00  0.00    +0.000 N 
ATOM     18  C   UNL     1       3.109   4.869  19.599  0.00  0.00    +0.000 C 
ATOM     19  O   UNL     1       2.578   4.862  20.711  0.00  0.00    +0.000 OA
ATOM     20  H   UNL     1       3.692   5.881  17.892  0.00  0.00    +0.000 HD
BRANCH  17  26
ATOM     21  C   UNL     1       0.691   8.990  21.822  0.00  0.00    +0.000 C 
ATOM     22  C   UNL     1       1.244   8.680  20.462  0.00  0.00    +0.000 A 
ATOM     23  C   UNL     1       1.029   9.576  19.409  0.00  0.00    +0.000 A 
ATOM     24  C   UNL     1       1.528   9.297  18.142  0.00  0.00    +0.000 A 
ATOM     25  C   UNL     1       2.227   8.111  17.910  0.00  0.00    +0.000 A 
ATOM     26  C   UNL     1       2.440   7.184  18.935  0.00  0.00    +0.000 A 
ATOM     27  C   UNL     1       1.964   7.492  20.220  0.00  0.00    +0.000 A 
ENDBRANCH  17  26
ENDBRANCH  16  18
ENDBRANCH   1  16
TORSDOF 5
ENDMDL
MODEL 5
REMARK VINA RESULT:      -8.4      7.545      9.828
REMARK  Name = 
REMARK  6 active torsions:
REMARK  status: ('A' for Active; 'I' for Inactive)
REMARK    1  A    between atoms: C_1  and  C_2
REMARK    2  A    between atoms: C_6  and  N_7
REMARK    3  A    between atoms: C_8  and  C_10
REMARK    4  A    between atoms: C_10  and  N_11
REMARK    5  A    between atoms: C_14  and  C_15
REMARK    6  A    between atoms: C_19  and  C_20
REMARK                            x       y       z     vdW  Elec       q    Type
REMARK                         _______ _______ _______ _____ _____    ______ ____
ROOT
ATOM      1  N   UNL     1       1.677   9.748  18.965  0.00  0.00    +0.000 N 
ATOM      2  N   UNL     1       2.101   9.823  17.695  0.00  0.00    +0.000 NA
ATOM      3  N   UNL     1       2.516   8.602  17.403  0.00  0.00    +0.000 NA
ATOM      4  C   UNL     1       2.291   7.825  18.515  0.00  0.00    +0.000 A 
ATOM      5  N   UNL     1       1.717   8.516  19.522  0.00  0.00    +0.000 NA
ENDROOT
BRANCH   4   6
ATOM      6  C   UNL     1       2.714   6.434  18.593  0.00  0.00    +0.000 A 
ATOM      7  C   UNL     1       3.594   5.893  17.647  0.00  0.00    +0.000 A 
ATOM      8  C   UNL     1       3.922   4.536  17.678  0.00  0.00    +0.000 A 
ATOM      9  C   UNL     1       3.372   3.704  18.653  0.00  0.00    +0.000 A 
ATOM     10  C   UNL     1       2.501   4.222  19.622  0.00  0.00    +0.000 A 
ATOM     11  C   UNL     1       2.192   5.594  19.591  0.00  0.00    +0.000 A 
BRANCH  10  12
ATOM     12  C   UNL     1       1.877   3.332  20.669  0.00  0.00    +0.000 C 
ATOM     13  F   UNL     1       1.999   2.004  20.396  0.00  0.00    +0.000 F 
ATOM     14  F   UNL     1       2.425   3.513  21.902  0.00  0.00    +0.000 F 
ATOM     15  F   UNL     1       0.542   3.561  20.814  0.00  0.00    +0.000 F 
ENDBRANCH  10  12
ENDBRANCH   4   6
BRANCH   1  16
ATOM     16  C   UNL     1       1.039  10.867  19.609  0.00  0.00    +0.000 C 
BRANCH  16  18
ATOM     17  N   UNL     1      -1.075  10.400  18.409  0.00  0.00    +0.000 N 
ATOM     18  C   UNL     1      -0.212  11.358  18.921  0.00  0.00    +0.000 C 
ATOM     19  O   UNL     1      -0.334  12.573  18.755  0.00  0.00    +0.000 OA
ATOM     20  H   UNL     1      -0.804   9.419  18.505  0.00  0.00    +0.000 HD
BRANCH  17  26
ATOM     21  C   UNL     1      -3.608  10.108  14.148  0.00  0.00    +0.000 C 
ATOM     22  C   UNL     1      -3.521  10.513  15.590  0.00  0.00    +0.000 A 
ATOM     23  C   UNL     1      -4.592  11.192  16.183  0.00  0.00    +0.000 A 
ATOM     24  C   UNL     1      -4.520  11.579  17.515  0.00  0.00    +0.000 A 
ATOM     25  C   UNL     1      -3.371  11.313  18.263  0.00  0.00    +0.000 A 
ATOM     26  C   UNL     1      -2.275  10.657  17.694  0.00  0.00    +0.000 A 
ATOM     27  C   UNL     1      -2.371  10.236  16.358  0.00  0.00    +0.000 A 
ENDBRANCH  17  26
ENDBRANCH  16  18
ENDBRANCH   1  16
TORSDOF 5
ENDMDL
MODEL 6
REMARK VINA RESULT:      -8.4      4.911      9.786
REMARK  Name = 
REMARK  6 active torsions:
REMARK  status: ('A' for Active; 'I' for Inactive)
REMARK    1  A    between atoms: C_1  and  C_2
REMARK    2  A    between atoms: C_6  and  N_7
REMARK    3  A    between atoms: C_8  and  C_10
REMARK    4  A    between atoms: C_10  and  N_11
REMARK    5  A    between atoms: C_14  and  C_15
REMARK    6  A    between atoms: C_19  and  C_20
REMARK                            x       y       z     vdW  Elec       q    Type
REMARK                         _______ _______ _______ _____ _____    ______ ____
ROOT
ATOM      1  N   UNL     1       6.871   6.553  17.419  0.00  0.00    +0.000 N 
ATOM      2  N   UNL     1       7.694   5.494  17.434  0.00  0.00    +0.000 NA
ATOM      3  N   UNL     1       6.917   4.464  17.725  0.00  0.00    +0.000 NA
ATOM      4  C   UNL     1       5.635   4.949  17.841  0.00  0.00    +0.000 A 
ATOM      5  N   UNL     1       5.561   6.276  17.612  0.00  0.00    +0.000 NA
ENDROOT
BRANCH   4   6
ATOM      6  C   UNL     1       4.518   4.110  18.251  0.00  0.00    +0.000 A 
ATOM      7  C   UNL     1       4.193   2.945  17.545  0.00  0.00    +0.000 A 
ATOM      8  C   UNL     1       3.067   2.197  17.891  0.00  0.00    +0.000 A 
ATOM      9  C   UNL     1       2.250   2.606  18.946  0.00  0.00    +0.000 A 
ATOM     10  C   UNL     1       2.561   3.759  19.680  0.00  0.00    +0.000 A 
ATOM     11  C   UNL     1       3.708   4.495  19.333  0.00  0.00    +0.000 A 
BRANCH  10  12
ATOM     12  C   UNL     1       1.675   4.231  20.808  0.00  0.00    +0.000 C 
ATOM     13  F   UNL     1       0.354   3.965  20.610  0.00  0.00    +0.000 F 
ATOM     14  F   UNL     1       1.998   3.659  21.999  0.00  0.00    +0.000 F 
ATOM     15  F   UNL     1       1.757   5.576  21.002  0.00  0.00    +0.000 F 
ENDBRANCH  10  12
ENDBRANCH   4   6
BRANCH   1  16
ATOM     16  C   UNL     1       7.336   7.857  17.022  0.00  0.00    +0.000 C 
BRANCH  16  18
ATOM     17  N   UNL     1       8.542   9.873  17.802  0.00  0.00    +0.000 N 
ATOM     18  C   UNL     1       8.218   8.545  18.037  0.00  0.00    +0.000 C 
ATOM     19  O   UNL     1       8.687   7.858  18.945  0.00  0.00    +0.000 OA
ATOM     20  H   UNL     1       8.186  10.303  16.946  0.00  0.00    +0.000 HD
BRANCH  17  26
ATOM     21  C   UNL     1      12.332  13.069  18.086  0.00  0.00    +0.000 C 
ATOM     22  C   UNL     1      11.259  12.254  18.746  0.00  0.00    +0.000 A 
ATOM     23  C   UNL     1      11.154  12.251  20.141  0.00  0.00    +0.000 A 
ATOM     24  C   UNL     1      10.170  11.494  20.765  0.00  0.00    +0.000 A 
ATOM     25  C   UNL     1       9.295  10.716  20.004  0.00  0.00    +0.000 A 
ATOM     26  C   UNL     1       9.388  10.679  18.609  0.00  0.00    +0.000 A 
ATOM     27  C   UNL     1      10.361  11.476  17.985  0.00  0.00    +0.000 A 
ENDBRANCH  17  26
ENDBRANCH  16  18
ENDBRANCH   1  16
TORSDOF 5
ENDMDL
MODEL 7
REMARK VINA RESULT:      -8.4      0.510      1.612
REMARK  Name = 
REMARK  6 active torsions:
REMARK  status: ('A' for Active; 'I' for Inactive)
REMARK    1  A    between atoms: C_1  and  C_2
REMARK    2  A    between atoms: C_6  and  N_7
REMARK    3  A    between atoms: C_8  and  C_10
REMARK    4  A    between atoms: C_10  and  N_11
REMARK    5  A    between atoms: C_14  and  C_15
REMARK    6  A    between atoms: C_19  and  C_20
REMARK                            x       y       z     vdW  Elec       q    Type
REMARK                         _______ _______ _______ _____ _____    ______ ____
ROOT
ATOM      1  N   UNL     1       7.711   7.263  18.018  0.00  0.00    +0.000 N 
ATOM      2  N   UNL     1       7.091   8.047  17.124  0.00  0.00    +0.000 NA
ATOM      3  N   UNL     1       7.595   9.253  17.321  0.00  0.00    +0.000 NA
ATOM      4  C   UNL     1       8.535   9.137  18.318  0.00  0.00    +0.000 A 
ATOM      5  N   UNL     1       8.666   7.869  18.761  0.00  0.00    +0.000 NA
ENDROOT
BRANCH   4   6
ATOM      6  C   UNL     1       9.234  10.289  18.870  0.00  0.00    +0.000 A 
ATOM      7  C   UNL     1       9.297  10.502  20.253  0.00  0.00    +0.000 A 
ATOM      8  C   UNL     1       9.890  11.656  20.767  0.00  0.00    +0.000 A 
ATOM      9  C   UNL     1      10.424  12.613  19.905  0.00  0.00    +0.000 A 
ATOM     10  C   UNL     1      10.389  12.419  18.517  0.00  0.00    +0.000 A 
ATOM     11  C   UNL     1       9.805  11.243  18.011  0.00  0.00    +0.000 A 
BRANCH  10  12
ATOM     12  C   UNL     1      10.940  13.455  17.568  0.00  0.00    +0.000 C 
ATOM     13  F   UNL     1      11.221  12.963  16.329  0.00  0.00    +0.000 F 
ATOM     14  F   UNL     1      10.083  14.494  17.373  0.00  0.00    +0.000 F 
ATOM     15  F   UNL     1      12.101  14.006  18.020  0.00  0.00    +0.000 F 
ENDBRANCH  10  12
ENDBRANCH   4   6
BRANCH   1  16
ATOM     16  C   UNL     1       7.508   5.838  18.034  0.00  0.00    +0.000 C 
BRANCH  16  18
ATOM     17  N   UNL     1       5.077   5.606  18.441  0.00  0.00    +0.000 N 
ATOM     18  C   UNL     1       6.364   5.376  18.905  0.00  0.00    +0.000 C 
ATOM     19  O   UNL     1       6.639   4.930  20.021  0.00  0.00    +0.000 OA
ATOM     20  H   UNL     1       4.976   6.094  17.549  0.00  0.00    +0.000 HD
BRANCH  17  26
ATOM     21  C   UNL     1       1.090   7.179  20.947  0.00  0.00    +0.000 C 
ATOM     22  C   UNL     1       1.911   6.067  20.364  0.00  0.00    +0.000 A 
ATOM     23  C   UNL     1       1.515   4.739  20.564  0.00  0.00    +0.000 A 
ATOM     24  C   UNL     1       2.271   3.699  20.037  0.00  0.00    +0.000 A 
ATOM     25  C   UNL     1       3.440   3.973  19.325  0.00  0.00    +0.000 A 
ATOM     26  C   UNL     1       3.875   5.287  19.127  0.00  0.00    +0.000 A 
ATOM     27  C   UNL     1       3.086   6.333  19.631  0.00  0.00    +0.000 A 
ENDBRANCH  17  26
ENDBRANCH  16  18
ENDBRANCH   1  16
TORSDOF 5
ENDMDL
MODEL 8
REMARK VINA RESULT:      -8.4      6.324      8.562
REMARK  Name = 
REMARK  6 active torsions:
REMARK  status: ('A' for Active; 'I' for Inactive)
REMARK    1  A    between atoms: C_1  and  C_2
REMARK    2  A    between atoms: C_6  and  N_7
REMARK    3  A    between atoms: C_8  and  C_10
REMARK    4  A    between atoms: C_10  and  N_11
REMARK    5  A    between atoms: C_14  and  C_15
REMARK    6  A    between atoms: C_19  and  C_20
REMARK                            x       y       z     vdW  Elec       q    Type
REMARK                         _______ _______ _______ _____ _____    ______ ____
ROOT
ATOM      1  N   UNL     1       6.243   5.939  16.085  0.00  0.00    +0.000 N 
ATOM      2  N   UNL     1       7.545   5.985  15.767  0.00  0.00    +0.000 NA
ATOM      3  N   UNL     1       7.649   5.272  14.658  0.00  0.00    +0.000 NA
ATOM      4  C   UNL     1       6.382   4.848  14.333  0.00  0.00    +0.000 A 
ATOM      5  N   UNL     1       5.449   5.289  15.202  0.00  0.00    +0.000 NA
ENDROOT
BRANCH   4   6
ATOM      6  C   UNL     1       6.122   3.951  13.215  0.00  0.00    +0.000 A 
ATOM      7  C   UNL     1       7.121   3.101  12.724  0.00  0.00    +0.000 A 
ATOM      8  C   UNL     1       6.889   2.313  11.596  0.00  0.00    +0.000 A 
ATOM      9  C   UNL     1       5.658   2.366  10.943  0.00  0.00    +0.000 A 
ATOM     10  C   UNL     1       4.635   3.196  11.423  0.00  0.00    +0.000 A 
ATOM     11  C   UNL     1       4.873   3.973  12.571  0.00  0.00    +0.000 A 
BRANCH  10  12
ATOM     12  C   UNL     1       3.304   3.286  10.716  0.00  0.00    +0.000 C 
ATOM     13  F   UNL     1       2.264   2.802  11.450  0.00  0.00    +0.000 F 
ATOM     14  F   UNL     1       2.969   4.565  10.393  0.00  0.00    +0.000 F 
ATOM     15  F   UNL     1       3.291   2.588   9.547  0.00  0.00    +0.000 F 
ENDBRANCH  10  12
ENDBRANCH   4   6
BRANCH   1  16
ATOM     16  C   UNL     1       5.713   6.703  17.184  0.00  0.00    +0.000 C 
BRANCH  16  18
ATOM     17  N   UNL     1       4.320   4.868  18.092  0.00  0.00    +0.000 N 
ATOM     18  C   UNL     1       4.392   6.203  17.718  0.00  0.00    +0.000 C 
ATOM     19  O   UNL     1       3.432   6.974  17.681  0.00  0.00    +0.000 OA
ATOM     20  H   UNL     1       5.156   4.296  17.963  0.00  0.00    +0.000 HD
BRANCH  17  26
ATOM     21  C   UNL     1       1.900   2.825  21.916  0.00  0.00    +0.000 C 
ATOM     22  C   UNL     1       1.974   3.191  20.463  0.00  0.00    +0.000 A 
ATOM     23  C   UNL     1       0.939   2.810  19.602  0.00  0.00    +0.000 A 
ATOM     24  C   UNL     1       0.999   3.136  18.252  0.00  0.00    +0.000 A 
ATOM     25  C   UNL     1       2.103   3.825  17.745  0.00  0.00    +0.000 A 
ATOM     26  C   UNL     1       3.164   4.200  18.575  0.00  0.00    +0.000 A 
ATOM     27  C   UNL     1       3.078   3.900  19.944  0.00  0.00    +0.000 A 
ENDBRANCH  17  26
ENDBRANCH  16  18
ENDBRANCH   1  16
TORSDOF 5
ENDMDL
MODEL 9
REMARK VINA RESULT:      -8.4      7.918     10.173
REMARK  Name = 
REMARK  6 active torsions:
REMARK  status: ('A' for Active; 'I' for Inactive)
REMARK    1  A    between atoms: C_1  and  C_2
REMARK    2  A    between atoms: C_6  and  N_7
REMARK    3  A    between atoms: C_8  and  C_10
REMARK    4  A    between atoms: C_10  and  N_11
REMARK    5  A    between atoms: C_14  and  C_15
REMARK    6  A    between atoms: C_19  and  C_20
REMARK                            x       y       z     vdW  Elec       q    Type
REMARK                         _______ _______ _______ _____ _____    ______ ____
ROOT
ATOM      1  N   UNL     1       0.726  10.408  20.965  0.00  0.00    +0.000 N 
ATOM      2  N   UNL     1       0.743   9.830  22.175  0.00  0.00    +0.000 NA
ATOM      3  N   UNL     1       1.200   8.608  21.961  0.00  0.00    +0.000 NA
ATOM      4  C   UNL     1       1.475   8.511  20.617  0.00  0.00    +0.000 A 
ATOM      5  N   UNL     1       1.221   9.658  19.953  0.00  0.00    +0.000 NA
ENDROOT
BRANCH   4   6
ATOM      6  C   UNL     1       1.910   7.268  19.997  0.00  0.00    +0.000 A 
ATOM      7  C   UNL     1       2.418   7.250  18.692  0.00  0.00    +0.000 A 
ATOM      8  C   UNL     1       2.747   6.043  18.074  0.00  0.00    +0.000 A 
ATOM      9  C   UNL     1       2.570   4.837  18.753  0.00  0.00    +0.000 A 
ATOM     10  C   UNL     1       2.078   4.826  20.066  0.00  0.00    +0.000 A 
ATOM     11  C   UNL     1       1.766   6.051  20.684  0.00  0.00    +0.000 A 
BRANCH  10  12
ATOM     12  C   UNL     1       1.856   3.530  20.807  0.00  0.00    +0.000 C 
ATOM     13  F   UNL     1       2.184   3.595  22.127  0.00  0.00    +0.000 F 
ATOM     14  F   UNL     1       0.559   3.119  20.764  0.00  0.00    +0.000 F 
ATOM     15  F   UNL     1       2.591   2.506  20.292  0.00  0.00    +0.000 F 
ENDBRANCH  10  12
ENDBRANCH   4   6
BRANCH   1  16
ATOM     16  C   UNL     1       0.390  11.799  20.803  0.00  0.00    +0.000 C 
BRANCH  16  18
ATOM     17  N   UNL     1      -1.290  10.993  19.174  0.00  0.00    +0.000 N 
ATOM     18  C   UNL     1      -0.806  12.058  19.919  0.00  0.00    +0.000 C 
ATOM     19  O   UNL     1      -1.205  13.220  19.825  0.00  0.00    +0.000 OA
ATOM     20  H   UNL     1      -0.797  10.101  19.248  0.00  0.00    +0.000 HD
BRANCH  17  26
ATOM     21  C   UNL     1      -3.013  10.073  14.609  0.00  0.00    +0.000 C 
ATOM     22  C   UNL     1      -3.219  10.589  16.002  0.00  0.00    +0.000 A 
ATOM     23  C   UNL     1      -4.445  11.168  16.351  0.00  0.00    +0.000 A 
ATOM     24  C   UNL     1      -4.645  11.657  17.636  0.00  0.00    +0.000 A 
ATOM     25  C   UNL     1      -3.617  11.594  18.579  0.00  0.00    +0.000 A 
ATOM     26  C   UNL     1      -2.373  11.043  18.256  0.00  0.00    +0.000 A 
ATOM     27  C   UNL     1      -2.192  10.517  16.966  0.00  0.00    +0.000 A 
ENDBRANCH  17  26
ENDBRANCH  16  18
ENDBRANCH   1  16
TORSDOF 5
ENDMDL
