MODEL 1
REMARK VINA RESULT:      -9.4      0.000      0.000
REMARK  Name = 
REMARK  5 active torsions:
REMARK  status: ('A' for Active; 'I' for Inactive)
REMARK    1  A    between atoms: C_1  and  C_2
REMARK    2  A    between atoms: C_8  and  S_9
REMARK    3  A    between atoms: S_9  and  N_12
REMARK    4  A    between atoms: N_12  and  C_13
REMARK    5  A    between atoms: C_26  and  C_27
REMARK                            x       y       z     vdW  Elec       q    Type
REMARK                         _______ _______ _______ _____ _____    ______ ____
ROOT
ATOM      1  S   UNL     1       2.754   3.011  18.357  0.00  0.00    +0.000 S 
ATOM      2  O   UNL     1       2.388   2.107  19.430  0.00  0.00    +0.000 OA
ATOM      3  O   UNL     1       2.135   2.903  17.053  0.00  0.00    +0.000 OA
ENDROOT
BRANCH   1  11
ATOM      4  C   UNL     1       0.705  10.618  21.202  0.00  0.00    +0.000 C 
ATOM      5  C   UNL     1       1.176   9.182  21.211  0.00  0.00    +0.000 C 
ATOM      6  O   UNL     1       1.233   8.597  22.292  0.00  0.00    +0.000 OA
ATOM      7  N   UNL     1       1.474   8.615  19.983  0.00  0.00    +0.000 N 
ATOM      8  C   UNL     1       1.857   7.259  19.809  0.00  0.00    +0.000 A 
ATOM      9  C   UNL     1       1.905   6.222  20.733  0.00  0.00    +0.000 A 
ATOM     10  C   UNL     1       2.214   4.926  20.299  0.00  0.00    +0.000 A 
ATOM     11  C   UNL     1       2.467   4.679  18.935  0.00  0.00    +0.000 A 
ATOM     12  C   UNL     1       2.504   5.737  18.023  0.00  0.00    +0.000 A 
ATOM     13  C   UNL     1       2.179   7.014  18.474  0.00  0.00    +0.000 A 
ATOM     14  C   UNL     1       2.079   8.246  17.646  0.00  0.00    +0.000 C 
ATOM     15  C   UNL     1       1.610   9.309  18.667  0.00  0.00    +0.000 C 
ATOM     16  C   UNL     1       0.338   9.991  18.156  0.00  0.00    +0.000 C 
ENDBRANCH   1  11
BRANCH   1  17
ATOM     17  N   UNL     1       4.448   2.901  18.094  0.00  0.00    +0.000 N 
ATOM     18  H   UNL     1       4.640   1.976  17.693  0.00  0.00    +0.000 HD
BRANCH  17  19
ATOM     19  C   UNL     1       5.009   3.934  17.258  0.00  0.00    +0.000 A 
ATOM     20  C   UNL     1       4.772   3.899  15.877  0.00  0.00    +0.000 A 
ATOM     21  C   UNL     1       5.455   4.775  15.039  0.00  0.00    +0.000 A 
ATOM     22  C   UNL     1       6.437   5.609  15.571  0.00  0.00    +0.000 A 
ATOM     23  C   UNL     1       6.692   5.619  16.957  0.00  0.00    +0.000 A 
ATOM     24  C   UNL     1       7.753   6.340  17.513  0.00  0.00    +0.000 A 
ATOM     25  C   UNL     1       7.951   6.327  18.889  0.00  0.00    +0.000 A 
ATOM     26  C   UNL     1       7.059   5.620  19.672  0.00  0.00    +0.000 A 
ATOM     27  N   UNL     1       6.050   4.879  19.168  0.00  0.00    +0.000 NA
ATOM     28  C   UNL     1       5.905   4.835  17.826  0.00  0.00    +0.000 A 
ENDBRANCH  17  19
ENDBRANCH   1  17
TORSDOF 3
ENDMDL
MODEL 2
REMARK VINA RESULT:      -9.1      2.614      4.237
REMARK  Name = 
REMARK  5 active torsions:
REMARK  status: ('A' for Active; 'I' for Inactive)
REMARK    1  A    between atoms: C_1  and  C_2
REMARK    2  A    between atoms: C_8  and  S_9
REMARK    3  A    between atoms: S_9  and  N_12
REMARK    4  A    between atoms: N_12  and  C_13
REMARK    5  A    between atoms: C_26  and  C_27
REMARK                            x       y       z     vdW  Elec       q    Type
REMARK                         _______ _______ _______ _____ _____    ______ ____
ROOT
ATOM      1  S   UNL     1       5.992   4.844  18.567  0.00  0.00    +0.000 S 
ATOM      2  O   UNL     1       6.553   4.961  17.235  0.00  0.00    +0.000 OA
ATOM      3  O   UNL     1       6.804   5.096  19.739  0.00  0.00    +0.000 OA
ENDROOT
BRANCH   1  11
ATOM      4  C   UNL     1      -0.103  10.565  19.090  0.00  0.00    +0.000 C 
ATOM      5  C   UNL     1       0.956   9.676  18.481  0.00  0.00    +0.000 C 
ATOM      6  O   UNL     1       1.343   9.932  17.341  0.00  0.00    +0.000 OA
ATOM      7  N   UNL     1       1.444   8.652  19.276  0.00  0.00    +0.000 N 
ATOM      8  C   UNL     1       2.490   7.776  18.884  0.00  0.00    +0.000 A 
ATOM      9  C   UNL     1       3.297   7.803  17.753  0.00  0.00    +0.000 A 
ATOM     10  C   UNL     1       4.348   6.884  17.635  0.00  0.00    +0.000 A 
ATOM     11  C   UNL     1       4.586   5.947  18.660  0.00  0.00    +0.000 A 
ATOM     12  C   UNL     1       3.721   5.865  19.754  0.00  0.00    +0.000 A 
ATOM     13  C   UNL     1       2.692   6.798  19.858  0.00  0.00    +0.000 A 
ATOM     14  C   UNL     1       1.726   6.928  20.981  0.00  0.00    +0.000 C 
ATOM     15  C   UNL     1       0.896   8.169  20.579  0.00  0.00    +0.000 C 
ATOM     16  C   UNL     1       0.917   9.196  21.715  0.00  0.00    +0.000 C 
ENDBRANCH   1  11
BRANCH   1  17
ATOM     17  N   UNL     1       5.349   3.262  18.759  0.00  0.00    +0.000 N 
ATOM     18  H   UNL     1       5.526   2.972  19.727  0.00  0.00    +0.000 HD
BRANCH  17  19
ATOM     19  C   UNL     1       3.947   3.127  18.445  0.00  0.00    +0.000 A 
ATOM     20  C   UNL     1       3.507   3.412  17.146  0.00  0.00    +0.000 A 
ATOM     21  C   UNL     1       2.143   3.467  16.877  0.00  0.00    +0.000 A 
ATOM     22  C   UNL     1       1.231   3.334  17.924  0.00  0.00    +0.000 A 
ATOM     23  C   UNL     1       1.680   3.077  19.234  0.00  0.00    +0.000 A 
ATOM     24  C   UNL     1       0.812   3.067  20.329  0.00  0.00    +0.000 A 
ATOM     25  C   UNL     1       1.306   2.792  21.600  0.00  0.00    +0.000 A 
ATOM     26  C   UNL     1       2.649   2.500  21.731  0.00  0.00    +0.000 A 
ATOM     27  N   UNL     1       3.524   2.542  20.704  0.00  0.00    +0.000 NA
ATOM     28  C   UNL     1       3.054   2.881  19.484  0.00  0.00    +0.000 A 
ENDBRANCH  17  19
ENDBRANCH   1  17
TORSDOF 3
ENDMDL
MODEL 3
REMARK VINA RESULT:      -8.5      0.877      2.056
REMARK  Name = 
REMARK  5 active torsions:
REMARK  status: ('A' for Active; 'I' for Inactive)
REMARK    1  A    between atoms: C_1  and  C_2
REMARK    2  A    between atoms: C_8  and  S_9
REMARK    3  A    between atoms: S_9  and  N_12
REMARK    4  A    between atoms: N_12  and  C_13
REMARK    5  A    between atoms: C_26  and  C_27
REMARK                            x       y       z     vdW  Elec       q    Type
REMARK                         _______ _______ _______ _____ _____    ______ ____
ROOT
ATOM      1  S   UNL     1       2.644   3.017  18.182  0.00  0.00    +0.000 S 
ATOM      2  O   UNL     1       1.866   2.119  19.013  0.00  0.00    +0.000 OA
ATOM      3  O   UNL     1       2.434   3.071  16.750  0.00  0.00    +0.000 OA
ENDROOT
BRANCH   1  11
ATOM      4  C   UNL     1       0.801  10.608  21.207  0.00  0.00    +0.000 C 
ATOM      5  C   UNL     1       1.205   9.152  21.185  0.00  0.00    +0.000 C 
ATOM      6  O   UNL     1       1.180   8.527  22.245  0.00  0.00    +0.000 OA
ATOM      7  N   UNL     1       1.539   8.615  19.953  0.00  0.00    +0.000 N 
ATOM      8  C   UNL     1       1.868   7.250  19.747  0.00  0.00    +0.000 A 
ATOM      9  C   UNL     1       1.821   6.179  20.633  0.00  0.00    +0.000 A 
ATOM     10  C   UNL     1       2.093   4.887  20.166  0.00  0.00    +0.000 A 
ATOM     11  C   UNL     1       2.404   4.676  18.808  0.00  0.00    +0.000 A 
ATOM     12  C   UNL     1       2.536   5.762  17.939  0.00  0.00    +0.000 A 
ATOM     13  C   UNL     1       2.247   7.037  18.422  0.00  0.00    +0.000 A 
ATOM     14  C   UNL     1       2.246   8.301  17.637  0.00  0.00    +0.000 C 
ATOM     15  C   UNL     1       1.774   9.348  18.673  0.00  0.00    +0.000 C 
ATOM     16  C   UNL     1       0.563  10.107  18.125  0.00  0.00    +0.000 C 
ENDBRANCH   1  11
BRANCH   1  17
ATOM     17  N   UNL     1       4.313   2.677  18.410  0.00  0.00    +0.000 N 
ATOM     18  H   UNL     1       4.576   1.951  17.735  0.00  0.00    +0.000 HD
BRANCH  17  19
ATOM     19  C   UNL     1       5.194   3.813  18.289  0.00  0.00    +0.000 A 
ATOM     20  C   UNL     1       5.399   4.640  19.402  0.00  0.00    +0.000 A 
ATOM     21  C   UNL     1       6.093   5.837  19.252  0.00  0.00    +0.000 A 
ATOM     22  C   UNL     1       6.490   6.245  17.979  0.00  0.00    +0.000 A 
ATOM     23  C   UNL     1       6.255   5.423  16.860  0.00  0.00    +0.000 A 
ATOM     24  C   UNL     1       6.518   5.851  15.555  0.00  0.00    +0.000 A 
ATOM     25  C   UNL     1       6.282   4.993  14.486  0.00  0.00    +0.000 A 
ATOM     26  C   UNL     1       5.822   3.719  14.758  0.00  0.00    +0.000 A 
ATOM     27  N   UNL     1       5.516   3.287  16.000  0.00  0.00    +0.000 NA
ATOM     28  C   UNL     1       5.678   4.147  17.028  0.00  0.00    +0.000 A 
ENDBRANCH  17  19
ENDBRANCH   1  17
TORSDOF 3
ENDMDL
MODEL 4
REMARK VINA RESULT:      -8.4      2.940      8.341
REMARK  Name = 
REMARK  5 active torsions:
REMARK  status: ('A' for Active; 'I' for Inactive)
REMARK    1  A    between atoms: C_1  and  C_2
REMARK    2  A    between atoms: C_8  and  S_9
REMARK    3  A    between atoms: S_9  and  N_12
REMARK    4  A    between atoms: N_12  and  C_13
REMARK    5  A    between atoms: C_26  and  C_27
REMARK                            x       y       z     vdW  Elec       q    Type
REMARK                         _______ _______ _______ _____ _____    ______ ____
ROOT
ATOM      1  S   UNL     1       0.723   9.282  21.205  0.00  0.00    +0.000 S 
ATOM      2  O   UNL     1      -0.669   8.956  21.450  0.00  0.00    +0.000 OA
ATOM      3  O   UNL     1       1.581   9.727  22.284  0.00  0.00    +0.000 OA
ENDROOT
BRANCH   1  11
ATOM      4  C   UNL     1       3.846   2.577  17.274  0.00  0.00    +0.000 C 
ATOM      5  C   UNL     1       3.638   4.024  17.660  0.00  0.00    +0.000 C 
ATOM      6  O   UNL     1       4.094   4.893  16.918  0.00  0.00    +0.000 OA
ATOM      7  N   UNL     1       2.909   4.263  18.813  0.00  0.00    +0.000 N 
ATOM      8  C   UNL     1       2.562   5.560  19.275  0.00  0.00    +0.000 A 
ATOM      9  C   UNL     1       2.745   6.799  18.671  0.00  0.00    +0.000 A 
ATOM     10  C   UNL     1       2.215   7.945  19.277  0.00  0.00    +0.000 A 
ATOM     11  C   UNL     1       1.496   7.839  20.484  0.00  0.00    +0.000 A 
ATOM     12  C   UNL     1       1.388   6.606  21.133  0.00  0.00    +0.000 A 
ATOM     13  C   UNL     1       1.910   5.478  20.505  0.00  0.00    +0.000 A 
ATOM     14  C   UNL     1       1.821   4.074  20.990  0.00  0.00    +0.000 C 
ATOM     15  C   UNL     1       2.495   3.273  19.852  0.00  0.00    +0.000 C 
ATOM     16  C   UNL     1       1.548   2.174  19.363  0.00  0.00    +0.000 C 
ENDBRANCH   1  11
BRANCH   1  17
ATOM     17  N   UNL     1       0.802  10.499  19.995  0.00  0.00    +0.000 N 
ATOM     18  H   UNL     1       0.972  10.032  19.098  0.00  0.00    +0.000 HD
BRANCH  17  19
ATOM     19  C   UNL     1      -0.360  11.349  19.902  0.00  0.00    +0.000 A 
ATOM     20  C   UNL     1      -0.610  12.279  20.922  0.00  0.00    +0.000 A 
ATOM     21  C   UNL     1      -1.817  12.971  20.942  0.00  0.00    +0.000 A 
ATOM     22  C   UNL     1      -2.802  12.662  20.004  0.00  0.00    +0.000 A 
ATOM     23  C   UNL     1      -2.556  11.705  19.000  0.00  0.00    +0.000 A 
ATOM     24  C   UNL     1      -3.557  11.272  18.125  0.00  0.00    +0.000 A 
ATOM     25  C   UNL     1      -3.256  10.336  17.141  0.00  0.00    +0.000 A 
ATOM     26  C   UNL     1      -1.954   9.888  17.039  0.00  0.00    +0.000 A 
ATOM     27  N   UNL     1      -0.973  10.251  17.892  0.00  0.00    +0.000 NA
ATOM     28  C   UNL     1      -1.285  11.104  18.891  0.00  0.00    +0.000 A 
ENDBRANCH  17  19
ENDBRANCH   1  17
TORSDOF 3
ENDMDL
MODEL 5
REMARK VINA RESULT:      -8.3      3.348      8.548
REMARK  Name = 
REMARK  5 active torsions:
REMARK  status: ('A' for Active; 'I' for Inactive)
REMARK    1  A    between atoms: C_1  and  C_2
REMARK    2  A    between atoms: C_8  and  S_9
REMARK    3  A    between atoms: S_9  and  N_12
REMARK    4  A    between atoms: N_12  and  C_13
REMARK    5  A    between atoms: C_26  and  C_27
REMARK                            x       y       z     vdW  Elec       q    Type
REMARK                         _______ _______ _______ _____ _____    ______ ____
ROOT
ATOM      1  S   UNL     1       0.432   9.962  20.399  0.00  0.00    +0.000 S 
ATOM      2  O   UNL     1      -0.722   9.215  20.862  0.00  0.00    +0.000 OA
ATOM      3  O   UNL     1       1.220  10.754  21.320  0.00  0.00    +0.000 OA
ENDROOT
BRANCH   1  11
ATOM      4  C   UNL     1       5.149   4.453  16.208  0.00  0.00    +0.000 C 
ATOM      5  C   UNL     1       4.566   5.779  16.640  0.00  0.00    +0.000 C 
ATOM      6  O   UNL     1       4.745   6.756  15.913  0.00  0.00    +0.000 OA
ATOM      7  N   UNL     1       3.834   5.785  17.816  0.00  0.00    +0.000 N 
ATOM      8  C   UNL     1       3.159   6.927  18.322  0.00  0.00    +0.000 A 
ATOM      9  C   UNL     1       2.980   8.182  17.750  0.00  0.00    +0.000 A 
ATOM     10  C   UNL     1       2.175   9.126  18.400  0.00  0.00    +0.000 A 
ATOM     11  C   UNL     1       1.548   8.801  19.619  0.00  0.00    +0.000 A 
ATOM     12  C   UNL     1       1.799   7.573  20.235  0.00  0.00    +0.000 A 
ATOM     13  C   UNL     1       2.591   6.644  19.564  0.00  0.00    +0.000 A 
ATOM     14  C   UNL     1       2.903   5.259  20.011  0.00  0.00    +0.000 C 
ATOM     15  C   UNL     1       3.736   4.698  18.835  0.00  0.00    +0.000 C 
ATOM     16  C   UNL     1       3.111   3.392  18.336  0.00  0.00    +0.000 C 
ENDBRANCH   1  11
BRANCH   1  17
ATOM     17  N   UNL     1      -0.066  11.031  19.150  0.00  0.00    +0.000 N 
ATOM     18  H   UNL     1       0.668  11.031  18.432  0.00  0.00    +0.000 HD
BRANCH  17  19
ATOM     19  C   UNL     1      -1.345  10.729  18.555  0.00  0.00    +0.000 A 
ATOM     20  C   UNL     1      -1.391   9.932  17.402  0.00  0.00    +0.000 A 
ATOM     21  C   UNL     1      -2.591   9.787  16.713  0.00  0.00    +0.000 A 
ATOM     22  C   UNL     1      -3.710  10.512  17.122  0.00  0.00    +0.000 A 
ATOM     23  C   UNL     1      -3.649  11.334  18.264  0.00  0.00    +0.000 A 
ATOM     24  C   UNL     1      -4.703  12.176  18.632  0.00  0.00    +0.000 A 
ATOM     25  C   UNL     1      -4.598  12.955  19.779  0.00  0.00    +0.000 A 
ATOM     26  C   UNL     1      -3.453  12.843  20.544  0.00  0.00    +0.000 A 
ATOM     27  N   UNL     1      -2.399  12.074  20.198  0.00  0.00    +0.000 NA
ATOM     28  C   UNL     1      -2.476  11.374  19.046  0.00  0.00    +0.000 A 
ENDBRANCH  17  19
ENDBRANCH   1  17
TORSDOF 3
ENDMDL
MODEL 6
REMARK VINA RESULT:      -8.2      2.603      4.323
REMARK  Name = 
REMARK  5 active torsions:
REMARK  status: ('A' for Active; 'I' for Inactive)
REMARK    1  A    between atoms: C_1  and  C_2
REMARK    2  A    between atoms: C_8  and  S_9
REMARK    3  A    between atoms: S_9  and  N_12
REMARK    4  A    between atoms: N_12  and  C_13
REMARK    5  A    between atoms: C_26  and  C_27
REMARK                            x       y       z     vdW  Elec       q    Type
REMARK                         _______ _______ _______ _____ _____    ______ ____
ROOT
ATOM      1  S   UNL     1       2.588   7.317  17.991  0.00  0.00    +0.000 S 
ATOM      2  O   UNL     1       1.590   6.386  17.502  0.00  0.00    +0.000 OA
ATOM      3  O   UNL     1       3.384   8.103  17.072  0.00  0.00    +0.000 OA
ENDROOT
BRANCH   1  11
ATOM      4  C   UNL     1      -1.815  12.195  23.185  0.00  0.00    +0.000 C 
ATOM      5  C   UNL     1      -0.822  11.155  22.719  0.00  0.00    +0.000 C 
ATOM      6  O   UNL     1      -0.372  10.369  23.553  0.00  0.00    +0.000 OA
ATOM      7  N   UNL     1      -0.521  11.141  21.368  0.00  0.00    +0.000 N 
ATOM      8  C   UNL     1       0.331  10.185  20.757  0.00  0.00    +0.000 A 
ATOM      9  C   UNL     1       0.927   9.050  21.295  0.00  0.00    +0.000 A 
ATOM     10  C   UNL     1       1.649   8.188  20.459  0.00  0.00    +0.000 A 
ATOM     11  C   UNL     1       1.762   8.468  19.084  0.00  0.00    +0.000 A 
ATOM     12  C   UNL     1       1.238   9.653  18.561  0.00  0.00    +0.000 A 
ATOM     13  C   UNL     1       0.511  10.487  19.407  0.00  0.00    +0.000 A 
ATOM     14  C   UNL     1      -0.193  11.741  19.024  0.00  0.00    +0.000 C 
ATOM     15  C   UNL     1      -0.876  12.168  20.344  0.00  0.00    +0.000 C 
ATOM     16  C   UNL     1      -2.377  12.363  20.109  0.00  0.00    +0.000 C 
ENDBRANCH   1  11
BRANCH   1  17
ATOM     17  N   UNL     1       3.702   6.463  18.982  0.00  0.00    +0.000 N 
ATOM     18  H   UNL     1       3.438   6.629  19.959  0.00  0.00    +0.000 HD
BRANCH  17  19
ATOM     19  C   UNL     1       3.793   5.046  18.724  0.00  0.00    +0.000 A 
ATOM     20  C   UNL     1       4.414   4.604  17.547  0.00  0.00    +0.000 A 
ATOM     21  C   UNL     1       4.345   3.260  17.195  0.00  0.00    +0.000 A 
ATOM     22  C   UNL     1       3.578   2.387  17.965  0.00  0.00    +0.000 A 
ATOM     23  C   UNL     1       2.932   2.843  19.131  0.00  0.00    +0.000 A 
ATOM     24  C   UNL     1       2.051   2.036  19.857  0.00  0.00    +0.000 A 
ATOM     25  C   UNL     1       1.452   2.531  21.011  0.00  0.00    +0.000 A 
ATOM     26  C   UNL     1       1.780   3.808  21.423  0.00  0.00    +0.000 A 
ATOM     27  N   UNL     1       2.592   4.630  20.725  0.00  0.00    +0.000 NA
ATOM     28  C   UNL     1       3.115   4.172  19.568  0.00  0.00    +0.000 A 
ENDBRANCH  17  19
ENDBRANCH   1  17
TORSDOF 3
ENDMDL
MODEL 7
REMARK VINA RESULT:      -8.1      2.492      8.072
REMARK  Name = 
REMARK  5 active torsions:
REMARK  status: ('A' for Active; 'I' for Inactive)
REMARK    1  A    between atoms: C_1  and  C_2
REMARK    2  A    between atoms: C_8  and  S_9
REMARK    3  A    between atoms: S_9  and  N_12
REMARK    4  A    between atoms: N_12  and  C_13
REMARK    5  A    between atoms: C_26  and  C_27
REMARK                            x       y       z     vdW  Elec       q    Type
REMARK                         _______ _______ _______ _____ _____    ______ ____
ROOT
ATOM      1  S   UNL     1       0.912   9.152  21.406  0.00  0.00    +0.000 S 
ATOM      2  O   UNL     1      -0.495   8.996  21.720  0.00  0.00    +0.000 OA
ATOM      3  O   UNL     1       1.880   9.416  22.450  0.00  0.00    +0.000 OA
ENDROOT
BRANCH   1  11
ATOM      4  C   UNL     1       3.854   2.067  18.043  0.00  0.00    +0.000 C 
ATOM      5  C   UNL     1       2.978   2.992  18.856  0.00  0.00    +0.000 C 
ATOM      6  O   UNL     1       2.236   2.492  19.702  0.00  0.00    +0.000 OA
ATOM      7  N   UNL     1       3.108   4.349  18.613  0.00  0.00    +0.000 N 
ATOM      8  C   UNL     1       2.416   5.353  19.340  0.00  0.00    +0.000 A 
ATOM      9  C   UNL     1       1.600   5.239  20.460  0.00  0.00    +0.000 A 
ATOM     10  C   UNL     1       1.108   6.398  21.075  0.00  0.00    +0.000 A 
ATOM     11  C   UNL     1       1.445   7.667  20.563  0.00  0.00    +0.000 A 
ATOM     12  C   UNL     1       2.193   7.776  19.388  0.00  0.00    +0.000 A 
ATOM     13  C   UNL     1       2.683   6.612  18.802  0.00  0.00    +0.000 A 
ATOM     14  C   UNL     1       3.563   6.525  17.605  0.00  0.00    +0.000 C 
ATOM     15  C   UNL     1       3.837   5.008  17.489  0.00  0.00    +0.000 C 
ATOM     16  C   UNL     1       5.347   4.756  17.455  0.00  0.00    +0.000 C 
ENDBRANCH   1  11
BRANCH   1  17
ATOM     17  N   UNL     1       1.086  10.419  20.259  0.00  0.00    +0.000 N 
ATOM     18  H   UNL     1       1.283   9.988  19.349  0.00  0.00    +0.000 HD
BRANCH  17  19
ATOM     19  C   UNL     1      -0.043  11.312  20.155  0.00  0.00    +0.000 A 
ATOM     20  C   UNL     1      -0.269  12.249  21.173  0.00  0.00    +0.000 A 
ATOM     21  C   UNL     1      -1.449  12.985  21.180  0.00  0.00    +0.000 A 
ATOM     22  C   UNL     1      -2.434  12.714  20.231  0.00  0.00    +0.000 A 
ATOM     23  C   UNL     1      -2.213  11.750  19.228  0.00  0.00    +0.000 A 
ATOM     24  C   UNL     1      -3.219  11.356  18.341  0.00  0.00    +0.000 A 
ATOM     25  C   UNL     1      -2.942  10.411  17.359  0.00  0.00    +0.000 A 
ATOM     26  C   UNL     1      -1.656   9.914  17.271  0.00  0.00    +0.000 A 
ATOM     27  N   UNL     1      -0.672  10.240  18.136  0.00  0.00    +0.000 NA
ATOM     28  C   UNL     1      -0.964  11.102  19.133  0.00  0.00    +0.000 A 
ENDBRANCH  17  19
ENDBRANCH   1  17
TORSDOF 3
ENDMDL
MODEL 8
REMARK VINA RESULT:      -8.1      3.019      8.506
REMARK  Name = 
REMARK  5 active torsions:
REMARK  status: ('A' for Active; 'I' for Inactive)
REMARK    1  A    between atoms: C_1  and  C_2
REMARK    2  A    between atoms: C_8  and  S_9
REMARK    3  A    between atoms: S_9  and  N_12
REMARK    4  A    between atoms: N_12  and  C_13
REMARK    5  A    between atoms: C_26  and  C_27
REMARK                            x       y       z     vdW  Elec       q    Type
REMARK                         _______ _______ _______ _____ _____    ______ ____
ROOT
ATOM      1  S   UNL     1       0.579   9.556  20.617  0.00  0.00    +0.000 S 
ATOM      2  O   UNL     1      -0.723   8.933  20.759  0.00  0.00    +0.000 OA
ATOM      3  O   UNL     1       1.292  10.058  21.773  0.00  0.00    +0.000 OA
ENDROOT
BRANCH   1  11
ATOM      4  C   UNL     1       5.108   3.980  16.309  0.00  0.00    +0.000 C 
ATOM      5  C   UNL     1       4.566   5.315  16.765  0.00  0.00    +0.000 C 
ATOM      6  O   UNL     1       4.767   6.297  16.051  0.00  0.00    +0.000 OA
ATOM      7  N   UNL     1       3.843   5.324  17.946  0.00  0.00    +0.000 N 
ATOM      8  C   UNL     1       3.204   6.477  18.474  0.00  0.00    +0.000 A 
ATOM      9  C   UNL     1       3.057   7.744  17.922  0.00  0.00    +0.000 A 
ATOM     10  C   UNL     1       2.283   8.701  18.592  0.00  0.00    +0.000 A 
ATOM     11  C   UNL     1       1.657   8.376  19.811  0.00  0.00    +0.000 A 
ATOM     12  C   UNL     1       1.877   7.132  20.407  0.00  0.00    +0.000 A 
ATOM     13  C   UNL     1       2.637   6.191  19.715  0.00  0.00    +0.000 A 
ATOM     14  C   UNL     1       2.913   4.791  20.139  0.00  0.00    +0.000 C 
ATOM     15  C   UNL     1       3.721   4.225  18.949  0.00  0.00    +0.000 C 
ATOM     16  C   UNL     1       3.056   2.945  18.436  0.00  0.00    +0.000 C 
ENDBRANCH   1  11
BRANCH   1  17
ATOM     17  N   UNL     1       0.445  10.875  19.524  0.00  0.00    +0.000 N 
ATOM     18  H   UNL     1       0.649  10.520  18.584  0.00  0.00    +0.000 HD
BRANCH  17  19
ATOM     19  C   UNL     1      -0.828  11.555  19.536  0.00  0.00    +0.000 A 
ATOM     20  C   UNL     1      -1.155  12.374  20.625  0.00  0.00    +0.000 A 
ATOM     21  C   UNL     1      -2.445  12.884  20.740  0.00  0.00    +0.000 A 
ATOM     22  C   UNL     1      -3.421  12.496  19.823  0.00  0.00    +0.000 A 
ATOM     23  C   UNL     1      -3.093  11.648  18.748  0.00  0.00    +0.000 A 
ATOM     24  C   UNL     1      -4.065  11.131  17.886  0.00  0.00    +0.000 A 
ATOM     25  C   UNL     1      -3.685  10.310  16.829  0.00  0.00    +0.000 A 
ATOM     26  C   UNL     1      -2.339  10.060  16.646  0.00  0.00    +0.000 A 
ATOM     27  N   UNL     1      -1.378  10.506  17.481  0.00  0.00    +0.000 NA
ATOM     28  C   UNL     1      -1.757  11.243  18.548  0.00  0.00    +0.000 A 
ENDBRANCH  17  19
ENDBRANCH   1  17
TORSDOF 3
ENDMDL
MODEL 9
REMARK VINA RESULT:      -8.0      3.738      8.770
REMARK  Name = 
REMARK  5 active torsions:
REMARK  status: ('A' for Active; 'I' for Inactive)
REMARK    1  A    between atoms: C_1  and  C_2
REMARK    2  A    between atoms: C_8  and  S_9
REMARK    3  A    between atoms: S_9  and  N_12
REMARK    4  A    between atoms: N_12  and  C_13
REMARK    5  A    between atoms: C_26  and  C_27
REMARK                            x       y       z     vdW  Elec       q    Type
REMARK                         _______ _______ _______ _____ _____    ______ ____
ROOT
ATOM      1  S   UNL     1       0.166  11.112  20.816  0.00  0.00    +0.000 S 
ATOM      2  O   UNL     1      -0.935  10.827  21.717  0.00  0.00    +0.000 OA
ATOM      3  O   UNL     1       1.250  11.981  21.221  0.00  0.00    +0.000 OA
ENDROOT
BRANCH   1  11
ATOM      4  C   UNL     1       4.111   3.917  19.133  0.00  0.00    +0.000 C 
ATOM      5  C   UNL     1       3.156   4.890  19.786  0.00  0.00    +0.000 C 
ATOM      6  O   UNL     1       2.623   4.557  20.844  0.00  0.00    +0.000 OA
ATOM      7  N   UNL     1       2.983   6.111  19.158  0.00  0.00    +0.000 N 
ATOM      8  C   UNL     1       2.182   7.162  19.676  0.00  0.00    +0.000 A 
ATOM      9  C   UNL     1       1.528   7.263  20.899  0.00  0.00    +0.000 A 
ATOM     10  C   UNL     1       0.879   8.457  21.237  0.00  0.00    +0.000 A 
ATOM     11  C   UNL     1       0.897   9.548  20.345  0.00  0.00    +0.000 A 
ATOM     12  C   UNL     1       1.479   9.416  19.083  0.00  0.00    +0.000 A 
ATOM     13  C   UNL     1       2.131   8.224  18.774  0.00  0.00    +0.000 A 
ATOM     14  C   UNL     1       2.880   7.923  17.524  0.00  0.00    +0.000 C 
ATOM     15  C   UNL     1       3.441   6.507  17.792  0.00  0.00    +0.000 C 
ATOM     16  C   UNL     1       4.959   6.506  17.589  0.00  0.00    +0.000 C 
ENDBRANCH   1  11
BRANCH   1  17
ATOM     17  N   UNL     1      -0.467  11.778  19.364  0.00  0.00    +0.000 N 
ATOM     18  H   UNL     1       0.232  11.633  18.627  0.00  0.00    +0.000 HD
BRANCH  17  19
ATOM     19  C   UNL     1      -1.745  11.251  18.951  0.00  0.00    +0.000 A 
ATOM     20  C   UNL     1      -1.785  10.209  18.015  0.00  0.00    +0.000 A 
ATOM     21  C   UNL     1      -3.004   9.819  17.470  0.00  0.00    +0.000 A 
ATOM     22  C   UNL     1      -4.158  10.533  17.788  0.00  0.00    +0.000 A 
ATOM     23  C   UNL     1      -4.107  11.599  18.707  0.00  0.00    +0.000 A 
ATOM     24  C   UNL     1      -5.211  12.422  18.953  0.00  0.00    +0.000 A 
ATOM     25  C   UNL     1      -5.111  13.452  19.883  0.00  0.00    +0.000 A 
ATOM     26  C   UNL     1      -3.919  13.605  20.564  0.00  0.00    +0.000 A 
ATOM     27  N   UNL     1      -2.822  12.859  20.323  0.00  0.00    +0.000 NA
ATOM     28  C   UNL     1      -2.900  11.907  19.368  0.00  0.00    +0.000 A 
ENDBRANCH  17  19
ENDBRANCH   1  17
TORSDOF 3
ENDMDL
