MODEL 1
REMARK VINA RESULT:      -8.4      0.000      0.000
REMARK  Name = 
REMARK  6 active torsions:
REMARK  status: ('A' for Active; 'I' for Inactive)
REMARK    1  A    between atoms: C_1  and  C_2
REMARK    2  A    between atoms: N_10  and  C_11
REMARK    3  A    between atoms: C_11  and  C_12
REMARK    4  A    between atoms: C_17  and  C_19
REMARK    5  A    between atoms: C_19  and  C_20
REMARK    6  A    between atoms: C_20  and  C_21
REMARK                            x       y       z     vdW  Elec       q    Type
REMARK                         _______ _______ _______ _____ _____    ______ ____
ROOT
ATOM      1  C   UNL     1       1.850   5.902  19.736  0.00  0.00    +0.000 C 
ATOM      2  C   UNL     1       1.536   5.202  21.066  0.00  0.00    +0.000 C 
ATOM      3  C   UNL     1       1.663   3.707  20.813  0.00  0.00    +0.000 C 
ATOM      4  C   UNL     1       2.506   3.577  19.563  0.00  0.00    +0.000 C 
ATOM      5  N   UNL     1       2.736   4.923  19.059  0.00  0.00    +0.000 N 
ATOM      6  C   UNL     1       3.412   5.155  17.861  0.00  0.00    +0.000 C 
ATOM      7  O   UNL     1       3.420   6.252  17.309  0.00  0.00    +0.000 OA
ENDROOT
BRANCH   1   8
ATOM      8  C   UNL     1       2.438   7.315  19.975  0.00  0.00    +0.000 C 
BRANCH   8  18
ATOM      9  C   UNL     1       1.890   9.073  17.507  0.00  0.00    +0.000 C 
ATOM     10  C   UNL     1       1.245   9.238  18.835  0.00  0.00    +0.000 A 
ATOM     11  N   UNL     1       0.422  10.220  19.140  0.00  0.00    +0.000 NA
ATOM     12  C   UNL     1       0.169  10.098  20.477  0.00  0.00    +0.000 A 
ATOM     13  C   UNL     1      -0.581  10.944  21.310  0.00  0.00    +0.000 A 
ATOM     14  C   UNL     1      -0.687  10.636  22.669  0.00  0.00    +0.000 A 
ATOM     15  C   UNL     1      -0.062   9.501  23.184  0.00  0.00    +0.000 A 
ATOM     16  C   UNL     1       0.699   8.652  22.367  0.00  0.00    +0.000 A 
ATOM     17  C   UNL     1       0.804   8.975  21.005  0.00  0.00    +0.000 A 
ATOM     18  N   UNL     1       1.478   8.420  19.928  0.00  0.00    +0.000 N 
ENDBRANCH   8  18
ENDBRANCH   1   8
BRANCH   6  19
ATOM     19  C   UNL     1       4.141   3.938  17.274  0.00  0.00    +0.000 C 
BRANCH  19  20
ATOM     20  C   UNL     1       5.348   4.257  16.391  0.00  0.00    +0.000 C 
BRANCH  20  21
ATOM     21  C   UNL     1       6.308   5.193  17.100  0.00  0.00    +0.000 A 
ATOM     22  C   UNL     1       7.034   4.769  18.228  0.00  0.00    +0.000 A 
ATOM     23  C   UNL     1       7.877   5.657  18.894  0.00  0.00    +0.000 A 
ATOM     24  F   UNL     1       8.554   5.239  19.972  0.00  0.00    +0.000 F 
ATOM     25  C   UNL     1       8.023   6.974  18.467  0.00  0.00    +0.000 A 
ATOM     26  C   UNL     1       7.308   7.407  17.349  0.00  0.00    +0.000 A 
ATOM     27  C   UNL     1       6.459   6.517  16.681  0.00  0.00    +0.000 A 
ATOM     28  F   UNL     1       5.772   6.971  15.625  0.00  0.00    +0.000 F 
ENDBRANCH  20  21
ENDBRANCH  19  20
ENDBRANCH   6  19
TORSDOF 5
ENDMDL
MODEL 2
REMARK VINA RESULT:      -8.4      3.190      5.389
REMARK  Name = 
REMARK  6 active torsions:
REMARK  status: ('A' for Active; 'I' for Inactive)
REMARK    1  A    between atoms: C_1  and  C_2
REMARK    2  A    between atoms: N_10  and  C_11
REMARK    3  A    between atoms: C_11  and  C_12
REMARK    4  A    between atoms: C_17  and  C_19
REMARK    5  A    between atoms: C_19  and  C_20
REMARK    6  A    between atoms: C_20  and  C_21
REMARK                            x       y       z     vdW  Elec       q    Type
REMARK                         _______ _______ _______ _____ _____    ______ ____
ROOT
ATOM      1  C   UNL     1       0.056   9.683  20.223  0.00  0.00    +0.000 C 
ATOM      2  C   UNL     1       0.074   9.994  21.727  0.00  0.00    +0.000 C 
ATOM      3  C   UNL     1       0.771   8.825  22.406  0.00  0.00    +0.000 C 
ATOM      4  C   UNL     1       1.568   8.138  21.317  0.00  0.00    +0.000 C 
ATOM      5  N   UNL     1       1.238   8.801  20.063  0.00  0.00    +0.000 N 
ATOM      6  C   UNL     1       1.741   8.354  18.841  0.00  0.00    +0.000 C 
ATOM      7  O   UNL     1       1.304   8.750  17.763  0.00  0.00    +0.000 OA
ENDROOT
BRANCH   1   8
ATOM      8  C   UNL     1       0.048  10.985  19.384  0.00  0.00    +0.000 C 
BRANCH   8  18
ATOM      9  C   UNL     1      -1.686  12.908  21.051  0.00  0.00    +0.000 C 
ATOM     10  C   UNL     1      -2.076  12.318  19.745  0.00  0.00    +0.000 A 
ATOM     11  N   UNL     1      -3.257  12.480  19.183  0.00  0.00    +0.000 NA
ATOM     12  C   UNL     1      -3.266  11.672  18.082  0.00  0.00    +0.000 A 
ATOM     13  C   UNL     1      -4.319  11.415  17.189  0.00  0.00    +0.000 A 
ATOM     14  C   UNL     1      -4.109  10.523  16.134  0.00  0.00    +0.000 A 
ATOM     15  C   UNL     1      -2.869   9.904  15.971  0.00  0.00    +0.000 A 
ATOM     16  C   UNL     1      -1.812  10.142  16.862  0.00  0.00    +0.000 A 
ATOM     17  C   UNL     1      -2.036  11.036  17.921  0.00  0.00    +0.000 A 
ATOM     18  N   UNL     1      -1.273  11.479  18.990  0.00  0.00    +0.000 N 
ENDBRANCH   8  18
ENDBRANCH   1   8
BRANCH   6  19
ATOM     19  C   UNL     1       2.874   7.323  18.936  0.00  0.00    +0.000 C 
BRANCH  19  20
ATOM     20  C   UNL     1       2.944   6.314  17.788  0.00  0.00    +0.000 C 
BRANCH  20  21
ATOM     21  C   UNL     1       2.519   4.934  18.253  0.00  0.00    +0.000 A 
ATOM     22  C   UNL     1       1.774   4.764  19.434  0.00  0.00    +0.000 A 
ATOM     23  C   UNL     1       1.431   3.484  19.868  0.00  0.00    +0.000 A 
ATOM     24  F   UNL     1       0.729   3.340  21.001  0.00  0.00    +0.000 F 
ATOM     25  C   UNL     1       1.813   2.352  19.154  0.00  0.00    +0.000 A 
ATOM     26  C   UNL     1       2.554   2.508  17.982  0.00  0.00    +0.000 A 
ATOM     27  C   UNL     1       2.900   3.791  17.545  0.00  0.00    +0.000 A 
ATOM     28  F   UNL     1       3.628   3.904  16.427  0.00  0.00    +0.000 F 
ENDBRANCH  20  21
ENDBRANCH  19  20
ENDBRANCH   6  19
TORSDOF 5
ENDMDL
MODEL 3
REMARK VINA RESULT:      -8.4      2.820      4.688
REMARK  Name = 
REMARK  6 active torsions:
REMARK  status: ('A' for Active; 'I' for Inactive)
REMARK    1  A    between atoms: C_1  and  C_2
REMARK    2  A    between atoms: N_10  and  C_11
REMARK    3  A    between atoms: C_11  and  C_12
REMARK    4  A    between atoms: C_17  and  C_19
REMARK    5  A    between atoms: C_19  and  C_20
REMARK    6  A    between atoms: C_20  and  C_21
REMARK                            x       y       z     vdW  Elec       q    Type
REMARK                         _______ _______ _______ _____ _____    ______ ____
ROOT
ATOM      1  C   UNL     1       0.709   9.027  19.488  0.00  0.00    +0.000 C 
ATOM      2  C   UNL     1       0.450   8.997  21.001  0.00  0.00    +0.000 C 
ATOM      3  C   UNL     1       1.047   7.698  21.520  0.00  0.00    +0.000 C 
ATOM      4  C   UNL     1       2.042   7.259  20.468  0.00  0.00    +0.000 C 
ATOM      5  N   UNL     1       1.924   8.187  19.353  0.00  0.00    +0.000 N 
ATOM      6  C   UNL     1       2.648   8.014  18.172  0.00  0.00    +0.000 C 
ATOM      7  O   UNL     1       2.400   8.644  17.148  0.00  0.00    +0.000 OA
ENDROOT
BRANCH   1   8
ATOM      8  C   UNL     1       0.815  10.483  18.969  0.00  0.00    +0.000 C 
BRANCH   8  18
ATOM      9  C   UNL     1       0.035  12.788  20.856  0.00  0.00    +0.000 C 
ATOM     10  C   UNL     1      -0.819  12.246  19.768  0.00  0.00    +0.000 A 
ATOM     11  N   UNL     1      -2.058  12.632  19.539  0.00  0.00    +0.000 NA
ATOM     12  C   UNL     1      -2.537  11.803  18.564  0.00  0.00    +0.000 A 
ATOM     13  C   UNL     1      -3.831  11.741  18.021  0.00  0.00    +0.000 A 
ATOM     14  C   UNL     1      -4.108  10.786  17.040  0.00  0.00    +0.000 A 
ATOM     15  C   UNL     1      -3.110   9.915  16.603  0.00  0.00    +0.000 A 
ATOM     16  C   UNL     1      -1.816   9.957  17.143  0.00  0.00    +0.000 A 
ATOM     17  C   UNL     1      -1.551  10.917  18.133  0.00  0.00    +0.000 A 
ATOM     18  N   UNL     1      -0.443  11.229  18.906  0.00  0.00    +0.000 N 
ENDBRANCH   8  18
ENDBRANCH   1   8
BRANCH   6  19
ATOM     19  C   UNL     1       3.773   6.973  18.240  0.00  0.00    +0.000 C 
BRANCH  19  20
ATOM     20  C   UNL     1       3.629   5.786  17.286  0.00  0.00    +0.000 C 
BRANCH  20  21
ATOM     21  C   UNL     1       3.169   4.546  18.029  0.00  0.00    +0.000 A 
ATOM     22  C   UNL     1       4.073   3.775  18.783  0.00  0.00    +0.000 A 
ATOM     23  C   UNL     1       3.640   2.613  19.422  0.00  0.00    +0.000 A 
ATOM     24  F   UNL     1       4.517   1.886  20.127  0.00  0.00    +0.000 F 
ATOM     25  C   UNL     1       2.318   2.188  19.331  0.00  0.00    +0.000 A 
ATOM     26  C   UNL     1       1.413   2.944  18.586  0.00  0.00    +0.000 A 
ATOM     27  C   UNL     1       1.845   4.109  17.943  0.00  0.00    +0.000 A 
ATOM     28  F   UNL     1       0.954   4.799  17.219  0.00  0.00    +0.000 F 
ENDBRANCH  20  21
ENDBRANCH  19  20
ENDBRANCH   6  19
TORSDOF 5
ENDMDL
MODEL 4
REMARK VINA RESULT:      -8.3      3.688      8.318
REMARK  Name = 
REMARK  6 active torsions:
REMARK  status: ('A' for Active; 'I' for Inactive)
REMARK    1  A    between atoms: C_1  and  C_2
REMARK    2  A    between atoms: N_10  and  C_11
REMARK    3  A    between atoms: C_11  and  C_12
REMARK    4  A    between atoms: C_17  and  C_19
REMARK    5  A    between atoms: C_19  and  C_20
REMARK    6  A    between atoms: C_20  and  C_21
REMARK                            x       y       z     vdW  Elec       q    Type
REMARK                         _______ _______ _______ _____ _____    ______ ____
ROOT
ATOM      1  C   UNL     1       2.405   7.448  19.173  0.00  0.00    +0.000 C 
ATOM      2  C   UNL     1       2.016   6.577  20.377  0.00  0.00    +0.000 C 
ATOM      3  C   UNL     1       1.419   7.512  21.418  0.00  0.00    +0.000 C 
ATOM      4  C   UNL     1       1.008   8.755  20.660  0.00  0.00    +0.000 C 
ATOM      5  N   UNL     1       1.465   8.590  19.287  0.00  0.00    +0.000 N 
ATOM      6  C   UNL     1       1.320   9.602  18.337  0.00  0.00    +0.000 C 
ATOM      7  O   UNL     1       1.892   9.574  17.250  0.00  0.00    +0.000 OA
ENDROOT
BRANCH   1   8
ATOM      8  C   UNL     1       2.349   6.636  17.856  0.00  0.00    +0.000 C 
BRANCH   8  18
ATOM      9  C   UNL     1       1.919   3.595  18.079  0.00  0.00    +0.000 C 
ATOM     10  C   UNL     1       3.222   4.258  17.815  0.00  0.00    +0.000 A 
ATOM     11  N   UNL     1       4.372   3.621  17.734  0.00  0.00    +0.000 NA
ATOM     12  C   UNL     1       5.332   4.588  17.631  0.00  0.00    +0.000 A 
ATOM     13  C   UNL     1       6.728   4.440  17.601  0.00  0.00    +0.000 A 
ATOM     14  C   UNL     1       7.528   5.582  17.516  0.00  0.00    +0.000 A 
ATOM     15  C   UNL     1       6.944   6.848  17.455  0.00  0.00    +0.000 A 
ATOM     16  C   UNL     1       5.552   7.012  17.495  0.00  0.00    +0.000 A 
ATOM     17  C   UNL     1       4.759   5.858  17.586  0.00  0.00    +0.000 A 
ATOM     18  N   UNL     1       3.395   5.626  17.686  0.00  0.00    +0.000 N 
ENDBRANCH   8  18
ENDBRANCH   1   8
BRANCH   6  19
ATOM     19  C   UNL     1       0.401  10.760  18.748  0.00  0.00    +0.000 C 
BRANCH  19  20
ATOM     20  C   UNL     1      -0.998  10.356  19.216  0.00  0.00    +0.000 C 
BRANCH  20  21
ATOM     21  C   UNL     1      -2.018  10.552  18.110  0.00  0.00    +0.000 A 
ATOM     22  C   UNL     1      -1.848   9.945  16.852  0.00  0.00    +0.000 A 
ATOM     23  C   UNL     1      -2.773  10.173  15.834  0.00  0.00    +0.000 A 
ATOM     24  F   UNL     1      -2.590   9.595  14.638  0.00  0.00    +0.000 F 
ATOM     25  C   UNL     1      -3.876  10.998  16.030  0.00  0.00    +0.000 A 
ATOM     26  C   UNL     1      -4.055  11.606  17.274  0.00  0.00    +0.000 A 
ATOM     27  C   UNL     1      -3.128  11.380  18.297  0.00  0.00    +0.000 A 
ATOM     28  F   UNL     1      -3.318  11.994  19.471  0.00  0.00    +0.000 F 
ENDBRANCH  20  21
ENDBRANCH  19  20
ENDBRANCH   6  19
TORSDOF 5
ENDMDL
MODEL 5
REMARK VINA RESULT:      -8.2      2.945      4.890
REMARK  Name = 
REMARK  6 active torsions:
REMARK  status: ('A' for Active; 'I' for Inactive)
REMARK    1  A    between atoms: C_1  and  C_2
REMARK    2  A    between atoms: N_10  and  C_11
REMARK    3  A    between atoms: C_11  and  C_12
REMARK    4  A    between atoms: C_17  and  C_19
REMARK    5  A    between atoms: C_19  and  C_20
REMARK    6  A    between atoms: C_20  and  C_21
REMARK                            x       y       z     vdW  Elec       q    Type
REMARK                         _______ _______ _______ _____ _____    ______ ____
ROOT
ATOM      1  C   UNL     1       0.596   9.106  19.563  0.00  0.00    +0.000 C 
ATOM      2  C   UNL     1       0.372   9.048  21.081  0.00  0.00    +0.000 C 
ATOM      3  C   UNL     1       1.018   7.761  21.569  0.00  0.00    +0.000 C 
ATOM      4  C   UNL     1       2.004   7.366  20.491  0.00  0.00    +0.000 C 
ATOM      5  N   UNL     1       1.834   8.305  19.391  0.00  0.00    +0.000 N 
ATOM      6  C   UNL     1       2.537   8.171  18.193  0.00  0.00    +0.000 C 
ATOM      7  O   UNL     1       2.248   8.807  17.183  0.00  0.00    +0.000 OA
ENDROOT
BRANCH   1   8
ATOM      8  C   UNL     1       0.647  10.571  19.063  0.00  0.00    +0.000 C 
BRANCH   8  18
ATOM      9  C   UNL     1      -0.338  12.713  21.044  0.00  0.00    +0.000 C 
ATOM     10  C   UNL     1      -1.110  12.201  19.883  0.00  0.00    +0.000 A 
ATOM     11  N   UNL     1      -2.354  12.543  19.614  0.00  0.00    +0.000 NA
ATOM     12  C   UNL     1      -2.743  11.756  18.567  0.00  0.00    +0.000 A 
ATOM     13  C   UNL     1      -4.005  11.667  17.955  0.00  0.00    +0.000 A 
ATOM     14  C   UNL     1      -4.186  10.765  16.904  0.00  0.00    +0.000 A 
ATOM     15  C   UNL     1      -3.125   9.971  16.468  0.00  0.00    +0.000 A 
ATOM     16  C   UNL     1      -1.863  10.040  17.075  0.00  0.00    +0.000 A 
ATOM     17  C   UNL     1      -1.695  10.946  18.134  0.00  0.00    +0.000 A 
ATOM     18  N   UNL     1      -0.642  11.260  18.981  0.00  0.00    +0.000 N 
ENDBRANCH   8  18
ENDBRANCH   1   8
BRANCH   6  19
ATOM     19  C   UNL     1       3.694   7.164  18.223  0.00  0.00    +0.000 C 
BRANCH  19  20
ATOM     20  C   UNL     1       3.509   5.922  17.349  0.00  0.00    +0.000 C 
BRANCH  20  21
ATOM     21  C   UNL     1       3.196   4.704  18.197  0.00  0.00    +0.000 A 
ATOM     22  C   UNL     1       1.873   4.254  18.360  0.00  0.00    +0.000 A 
ATOM     23  C   UNL     1       1.600   3.159  19.179  0.00  0.00    +0.000 A 
ATOM     24  F   UNL     1       0.333   2.751  19.331  0.00  0.00    +0.000 F 
ATOM     25  C   UNL     1       2.618   2.489  19.852  0.00  0.00    +0.000 A 
ATOM     26  C   UNL     1       3.934   2.926  19.698  0.00  0.00    +0.000 A 
ATOM     27  C   UNL     1       4.210   4.025  18.878  0.00  0.00    +0.000 A 
ATOM     28  F   UNL     1       5.481   4.430  18.769  0.00  0.00    +0.000 F 
ENDBRANCH  20  21
ENDBRANCH  19  20
ENDBRANCH   6  19
TORSDOF 5
ENDMDL
MODEL 6
REMARK VINA RESULT:      -8.2      1.028      1.579
REMARK  Name = 
REMARK  6 active torsions:
REMARK  status: ('A' for Active; 'I' for Inactive)
REMARK    1  A    between atoms: C_1  and  C_2
REMARK    2  A    between atoms: N_10  and  C_11
REMARK    3  A    between atoms: C_11  and  C_12
REMARK    4  A    between atoms: C_17  and  C_19
REMARK    5  A    between atoms: C_19  and  C_20
REMARK    6  A    between atoms: C_20  and  C_21
REMARK                            x       y       z     vdW  Elec       q    Type
REMARK                         _______ _______ _______ _____ _____    ______ ____
ROOT
ATOM      1  C   UNL     1       1.742   6.327  19.643  0.00  0.00    +0.000 C 
ATOM      2  C   UNL     1       1.416   5.460  20.869  0.00  0.00    +0.000 C 
ATOM      3  C   UNL     1       1.598   4.012  20.441  0.00  0.00    +0.000 C 
ATOM      4  C   UNL     1       2.477   4.059  19.209  0.00  0.00    +0.000 C 
ATOM      5  N   UNL     1       2.676   5.463  18.879  0.00  0.00    +0.000 N 
ATOM      6  C   UNL     1       3.376   5.859  17.739  0.00  0.00    +0.000 C 
ATOM      7  O   UNL     1       3.363   7.015  17.324  0.00  0.00    +0.000 OA
ENDROOT
BRANCH   1   8
ATOM      8  C   UNL     1       2.278   7.716  20.069  0.00  0.00    +0.000 C 
BRANCH   8  18
ATOM      9  C   UNL     1       1.740   9.605  17.697  0.00  0.00    +0.000 C 
ATOM     10  C   UNL     1       1.068   9.680  19.020  0.00  0.00    +0.000 A 
ATOM     11  N   UNL     1       0.220  10.627  19.366  0.00  0.00    +0.000 NA
ATOM     12  C   UNL     1      -0.055  10.422  20.689  0.00  0.00    +0.000 A 
ATOM     13  C   UNL     1      -0.837  11.204  21.555  0.00  0.00    +0.000 A 
ATOM     14  C   UNL     1      -0.961  10.814  22.891  0.00  0.00    +0.000 A 
ATOM     15  C   UNL     1      -0.323   9.662  23.351  0.00  0.00    +0.000 A 
ATOM     16  C   UNL     1       0.470   8.877  22.501  0.00  0.00    +0.000 A 
ATOM     17  C   UNL     1       0.593   9.282  21.162  0.00  0.00    +0.000 A 
ATOM     18  N   UNL     1       1.297   8.803  20.068  0.00  0.00    +0.000 N 
ENDBRANCH   8  18
ENDBRANCH   1   8
BRANCH   6  19
ATOM     19  C   UNL     1       4.158   4.744  17.031  0.00  0.00    +0.000 C 
BRANCH  19  20
ATOM     20  C   UNL     1       5.398   5.198  16.260  0.00  0.00    +0.000 C 
BRANCH  20  21
ATOM     21  C   UNL     1       6.391   5.880  17.182  0.00  0.00    +0.000 A 
ATOM     22  C   UNL     1       6.816   7.199  16.940  0.00  0.00    +0.000 A 
ATOM     23  C   UNL     1       7.763   7.794  17.774  0.00  0.00    +0.000 A 
ATOM     24  F   UNL     1       8.165   9.048  17.522  0.00  0.00    +0.000 F 
ATOM     25  C   UNL     1       8.308   7.107  18.855  0.00  0.00    +0.000 A 
ATOM     26  C   UNL     1       7.894   5.798  19.104  0.00  0.00    +0.000 A 
ATOM     27  C   UNL     1       6.945   5.199  18.268  0.00  0.00    +0.000 A 
ATOM     28  F   UNL     1       6.586   3.935  18.524  0.00  0.00    +0.000 F 
ENDBRANCH  20  21
ENDBRANCH  19  20
ENDBRANCH   6  19
TORSDOF 5
ENDMDL
MODEL 7
REMARK VINA RESULT:      -8.2      2.914      4.677
REMARK  Name = 
REMARK  6 active torsions:
REMARK  status: ('A' for Active; 'I' for Inactive)
REMARK    1  A    between atoms: C_1  and  C_2
REMARK    2  A    between atoms: N_10  and  C_11
REMARK    3  A    between atoms: C_11  and  C_12
REMARK    4  A    between atoms: C_17  and  C_19
REMARK    5  A    between atoms: C_19  and  C_20
REMARK    6  A    between atoms: C_20  and  C_21
REMARK                            x       y       z     vdW  Elec       q    Type
REMARK                         _______ _______ _______ _____ _____    ______ ____
ROOT
ATOM      1  C   UNL     1       0.027   9.624  19.919  0.00  0.00    +0.000 C 
ATOM      2  C   UNL     1      -0.021   9.643  21.454  0.00  0.00    +0.000 C 
ATOM      3  C   UNL     1       0.768   8.433  21.930  0.00  0.00    +0.000 C 
ATOM      4  C   UNL     1       1.653   8.040  20.767  0.00  0.00    +0.000 C 
ATOM      5  N   UNL     1       1.292   8.898  19.647  0.00  0.00    +0.000 N 
ATOM      6  C   UNL     1       1.864   8.739  18.384  0.00  0.00    +0.000 C 
ATOM      7  O   UNL     1       1.418   9.292  17.383  0.00  0.00    +0.000 OA
ENDROOT
BRANCH   1   8
ATOM      8  C   UNL     1      -0.085  11.057  19.341  0.00  0.00    +0.000 C 
BRANCH   8  18
ATOM      9  C   UNL     1      -1.931  12.687  21.189  0.00  0.00    +0.000 C 
ATOM     10  C   UNL     1      -2.289  12.205  19.830  0.00  0.00    +0.000 A 
ATOM     11  N   UNL     1      -3.482  12.344  19.287  0.00  0.00    +0.000 NA
ATOM     12  C   UNL     1      -3.444  11.649  18.111  0.00  0.00    +0.000 A 
ATOM     13  C   UNL     1      -4.483  11.413  17.196  0.00  0.00    +0.000 A 
ATOM     14  C   UNL     1      -4.222  10.645  16.059  0.00  0.00    +0.000 A 
ATOM     15  C   UNL     1      -2.945  10.129  15.836  0.00  0.00    +0.000 A 
ATOM     16  C   UNL     1      -1.900  10.347  16.746  0.00  0.00    +0.000 A 
ATOM     17  C   UNL     1      -2.176  11.114  17.888  0.00  0.00    +0.000 A 
ATOM     18  N   UNL     1      -1.437  11.499  18.997  0.00  0.00    +0.000 N 
ENDBRANCH   8  18
ENDBRANCH   1   8
BRANCH   6  19
ATOM     19  C   UNL     1       3.087   7.814  18.331  0.00  0.00    +0.000 C 
BRANCH  19  20
ATOM     20  C   UNL     1       2.839   6.427  17.736  0.00  0.00    +0.000 C 
BRANCH  20  21
ATOM     21  C   UNL     1       4.141   5.783  17.298  0.00  0.00    +0.000 A 
ATOM     22  C   UNL     1       5.337   6.522  17.257  0.00  0.00    +0.000 A 
ATOM     23  C   UNL     1       6.515   5.925  16.809  0.00  0.00    +0.000 A 
ATOM     24  F   UNL     1       7.643   6.647  16.766  0.00  0.00    +0.000 F 
ATOM     25  C   UNL     1       6.539   4.596  16.394  0.00  0.00    +0.000 A 
ATOM     26  C   UNL     1       5.359   3.853  16.431  0.00  0.00    +0.000 A 
ATOM     27  C   UNL     1       4.175   4.451  16.878  0.00  0.00    +0.000 A 
ATOM     28  F   UNL     1       3.057   3.715  16.881  0.00  0.00    +0.000 F 
ENDBRANCH  20  21
ENDBRANCH  19  20
ENDBRANCH   6  19
TORSDOF 5
ENDMDL
MODEL 8
REMARK VINA RESULT:      -8.2      3.231      5.463
REMARK  Name = 
REMARK  6 active torsions:
REMARK  status: ('A' for Active; 'I' for Inactive)
REMARK    1  A    between atoms: C_1  and  C_2
REMARK    2  A    between atoms: N_10  and  C_11
REMARK    3  A    between atoms: C_11  and  C_12
REMARK    4  A    between atoms: C_17  and  C_19
REMARK    5  A    between atoms: C_19  and  C_20
REMARK    6  A    between atoms: C_20  and  C_21
REMARK                            x       y       z     vdW  Elec       q    Type
REMARK                         _______ _______ _______ _____ _____    ______ ____
ROOT
ATOM      1  C   UNL     1      -0.392  10.182  20.631  0.00  0.00    +0.000 C 
ATOM      2  C   UNL     1      -0.259  10.361  22.151  0.00  0.00    +0.000 C 
ATOM      3  C   UNL     1       0.560   9.184  22.658  0.00  0.00    +0.000 C 
ATOM      4  C   UNL     1       1.294   8.647  21.449  0.00  0.00    +0.000 C 
ATOM      5  N   UNL     1       0.819   9.395  20.293  0.00  0.00    +0.000 N 
ATOM      6  C   UNL     1       1.236   9.089  18.997  0.00  0.00    +0.000 C 
ATOM      7  O   UNL     1       0.685   9.549  18.001  0.00  0.00    +0.000 OA
ENDROOT
BRANCH   1   8
ATOM      8  C   UNL     1      -0.548  11.549  19.920  0.00  0.00    +0.000 C 
BRANCH   8  18
ATOM      9  C   UNL     1      -2.662  12.930  21.683  0.00  0.00    +0.000 C 
ATOM     10  C   UNL     1      -2.875  12.484  20.282  0.00  0.00    +0.000 A 
ATOM     11  N   UNL     1      -4.031  12.547  19.653  0.00  0.00    +0.000 NA
ATOM     12  C   UNL     1      -3.845  11.913  18.457  0.00  0.00    +0.000 A 
ATOM     13  C   UNL     1      -4.788  11.634  17.455  0.00  0.00    +0.000 A 
ATOM     14  C   UNL     1      -4.377  10.945  16.311  0.00  0.00    +0.000 A 
ATOM     15  C   UNL     1      -3.047  10.549  16.168  0.00  0.00    +0.000 A 
ATOM     16  C   UNL     1      -2.095  10.811  17.165  0.00  0.00    +0.000 A 
ATOM     17  C   UNL     1      -2.522  11.498  18.312  0.00  0.00    +0.000 A 
ATOM     18  N   UNL     1      -1.904  11.892  19.490  0.00  0.00    +0.000 N 
ENDBRANCH   8  18
ENDBRANCH   1   8
BRANCH   6  19
ATOM     19  C   UNL     1       2.429   8.129  18.902  0.00  0.00    +0.000 C 
BRANCH  19  20
ATOM     20  C   UNL     1       2.237   6.931  17.970  0.00  0.00    +0.000 C 
BRANCH  20  21
ATOM     21  C   UNL     1       2.604   5.635  18.668  0.00  0.00    +0.000 A 
ATOM     22  C   UNL     1       2.134   5.352  19.964  0.00  0.00    +0.000 A 
ATOM     23  C   UNL     1       2.519   4.176  20.607  0.00  0.00    +0.000 A 
ATOM     24  F   UNL     1       2.070   3.926  21.844  0.00  0.00    +0.000 F 
ATOM     25  C   UNL     1       3.370   3.261  19.992  0.00  0.00    +0.000 A 
ATOM     26  C   UNL     1       3.843   3.532  18.708  0.00  0.00    +0.000 A 
ATOM     27  C   UNL     1       3.459   4.712  18.061  0.00  0.00    +0.000 A 
ATOM     28  F   UNL     1       3.948   4.950  16.838  0.00  0.00    +0.000 F 
ENDBRANCH  20  21
ENDBRANCH  19  20
ENDBRANCH   6  19
TORSDOF 5
ENDMDL
MODEL 9
REMARK VINA RESULT:      -7.9      3.185      5.454
REMARK  Name = 
REMARK  6 active torsions:
REMARK  status: ('A' for Active; 'I' for Inactive)
REMARK    1  A    between atoms: C_1  and  C_2
REMARK    2  A    between atoms: N_10  and  C_11
REMARK    3  A    between atoms: C_11  and  C_12
REMARK    4  A    between atoms: C_17  and  C_19
REMARK    5  A    between atoms: C_19  and  C_20
REMARK    6  A    between atoms: C_20  and  C_21
REMARK                            x       y       z     vdW  Elec       q    Type
REMARK                         _______ _______ _______ _____ _____    ______ ____
ROOT
ATOM      1  C   UNL     1      -0.628  10.408  21.096  0.00  0.00    +0.000 C 
ATOM      2  C   UNL     1      -0.485  10.602  22.613  0.00  0.00    +0.000 C 
ATOM      3  C   UNL     1       0.295   9.404  23.134  0.00  0.00    +0.000 C 
ATOM      4  C   UNL     1       1.007   8.827  21.930  0.00  0.00    +0.000 C 
ATOM      5  N   UNL     1       0.555   9.576  20.766  0.00  0.00    +0.000 N 
ATOM      6  C   UNL     1       0.957   9.240  19.473  0.00  0.00    +0.000 C 
ATOM      7  O   UNL     1       0.419   9.705  18.472  0.00  0.00    +0.000 OA
ENDROOT
BRANCH   1   8
ATOM      8  C   UNL     1      -0.738  11.771  20.369  0.00  0.00    +0.000 C 
BRANCH   8  18
ATOM      9  C   UNL     1      -2.502  13.538  22.172  0.00  0.00    +0.000 C 
ATOM     10  C   UNL     1      -2.912  12.977  20.859  0.00  0.00    +0.000 A 
ATOM     11  N   UNL     1      -4.120  13.098  20.348  0.00  0.00    +0.000 NA
ATOM     12  C   UNL     1      -4.130  12.332  19.217  0.00  0.00    +0.000 A 
ATOM     13  C   UNL     1      -5.202  12.054  18.353  0.00  0.00    +0.000 A 
ATOM     14  C   UNL     1      -4.989  11.214  17.258  0.00  0.00    +0.000 A 
ATOM     15  C   UNL     1      -3.727  10.667  17.025  0.00  0.00    +0.000 A 
ATOM     16  C   UNL     1      -2.649  10.927  17.885  0.00  0.00    +0.000 A 
ATOM     17  C   UNL     1      -2.877  11.767  18.986  0.00  0.00    +0.000 A 
ATOM     18  N   UNL     1      -2.097  12.210  20.043  0.00  0.00    +0.000 N 
ENDBRANCH   8  18
ENDBRANCH   1   8
BRANCH   6  19
ATOM     19  C   UNL     1       2.116   8.238  19.388  0.00  0.00    +0.000 C 
BRANCH  19  20
ATOM     20  C   UNL     1       2.632   7.945  17.977  0.00  0.00    +0.000 C 
BRANCH  20  21
ATOM     21  C   UNL     1       3.058   6.496  17.845  0.00  0.00    +0.000 A 
ATOM     22  C   UNL     1       2.267   5.457  18.370  0.00  0.00    +0.000 A 
ATOM     23  C   UNL     1       2.698   4.134  18.277  0.00  0.00    +0.000 A 
ATOM     24  F   UNL     1       1.937   3.158  18.792  0.00  0.00    +0.000 F 
ATOM     25  C   UNL     1       3.908   3.807  17.671  0.00  0.00    +0.000 A 
ATOM     26  C   UNL     1       4.700   4.829  17.147  0.00  0.00    +0.000 A 
ATOM     27  C   UNL     1       4.271   6.158  17.240  0.00  0.00    +0.000 A 
ATOM     28  F   UNL     1       5.065   7.115  16.744  0.00  0.00    +0.000 F 
ENDBRANCH  20  21
ENDBRANCH  19  20
ENDBRANCH   6  19
TORSDOF 5
ENDMDL
