MODEL 1
REMARK VINA RESULT:      -7.7      0.000      0.000
REMARK  Name = 
REMARK  10 active torsions:
REMARK  status: ('A' for Active; 'I' for Inactive)
REMARK    1  A    between atoms: C_1  and  C_2
REMARK    2  A    between atoms: C_2  and  N_3
REMARK    3  A    between atoms: N_3  and  C_19
REMARK    4  A    between atoms: C_4  and  C_6
REMARK    5  A    between atoms: C_6  and  S_7
REMARK    6  A    between atoms: S_7  and  C_8
REMARK    7  A    between atoms: C_10  and  C_11
REMARK    8  A    between atoms: C_20  and  N_21
REMARK    9  A    between atoms: N_22  and  C_23
REMARK   10  A    between atoms: C_23  and  C_24
REMARK                            x       y       z     vdW  Elec       q    Type
REMARK                         _______ _______ _______ _____ _____    ______ ____
ROOT
ATOM      1  C   UNL     1      -6.291  12.947  21.357  0.00  0.00    +0.000 A 
ATOM      2  C   UNL     1      -5.935  13.168  20.060  0.00  0.00    +0.000 A 
ATOM      3  N   UNL     1      -6.111  12.151  19.118  0.00  0.00    +0.000 N 
ATOM      4  C   UNL     1      -6.693  10.925  19.429  0.00  0.00    +0.000 A 
ATOM      5  O   UNL     1      -6.821   9.996  18.637  0.00  0.00    +0.000 OA
ATOM      6  N   UNL     1      -7.146  10.779  20.703  0.00  0.00    +0.000 N 
ATOM      7  C   UNL     1      -7.060  11.711  21.684  0.00  0.00    +0.000 A 
ATOM      8  O   UNL     1      -7.607  11.546  22.771  0.00  0.00    +0.000 OA
ATOM      9  H   UNL     1      -7.621   9.918  20.920  0.00  0.00    +0.000 HD
ENDROOT
BRANCH   1  10
ATOM     10  N   UNL     1      -5.976  13.812  22.420  0.00  0.00    +0.000 N 
ATOM     11  C   UNL     1      -4.678  13.850  22.961  0.00  0.00    +0.000 C 
ATOM     12  O   UNL     1      -4.305  14.779  23.688  0.00  0.00    +0.000 OA
BRANCH  10  14
ATOM     13  C   UNL     1      -7.916  14.693  23.832  0.00  0.00    +0.000 C 
ATOM     14  C   UNL     1      -6.920  14.917  22.697  0.00  0.00    +0.000 C 
ENDBRANCH  10  14
BRANCH  11  15
ATOM     15  C   UNL     1      -3.673  12.728  22.655  0.00  0.00    +0.000 C 
BRANCH  15  16
ATOM     16  S   UNL     1      -2.011  13.097  23.320  0.00  0.00    +0.000 S 
BRANCH  16  17
ATOM     17  C   UNL     1      -0.951  12.540  21.971  0.00  0.00    +0.000 A 
ATOM     18  N   UNL     1      -0.596  13.479  21.072  0.00  0.00    +0.000 NA
ATOM     19  C   UNL     1       0.210  13.089  20.073  0.00  0.00    +0.000 A 
ATOM     20  C   UNL     1       0.647  14.111  19.069  0.00  0.00    +0.000 C 
ATOM     21  N   UNL     1       0.676  11.840  19.912  0.00  0.00    +0.000 NA
ATOM     22  C   UNL     1       0.332  10.926  20.817  0.00  0.00    +0.000 A 
ATOM     23  C   UNL     1       0.828   9.637  20.664  0.00  0.00    +0.000 A 
ATOM     24  C   UNL     1       0.541   8.619  21.575  0.00  0.00    +0.000 A 
ATOM     25  C   UNL     1      -0.272   8.886  22.666  0.00  0.00    +0.000 A 
ATOM     26  C   UNL     1      -0.792  10.168  22.834  0.00  0.00    +0.000 A 
ATOM     27  C   UNL     1      -0.495  11.210  21.911  0.00  0.00    +0.000 A 
ENDBRANCH  16  17
ENDBRANCH  15  16
ENDBRANCH  11  15
ENDBRANCH   1  10
BRANCH   2  28
ATOM     28  N   UNL     1      -5.344  14.373  19.697  0.00  0.00    +0.000 N 
ATOM     29  H   UNL     1      -5.929  14.902  19.051  0.00  0.00    +0.000 HD
ATOM     30  H   UNL     1      -5.023  14.950  20.465  0.00  0.00    +0.000 HD
ENDBRANCH   2  28
BRANCH   3  31
ATOM     31  C   UNL     1      -5.556  12.248  17.764  0.00  0.00    +0.000 C 
BRANCH  31  32
ATOM     32  C   UNL     1      -4.303  11.433  17.523  0.00  0.00    +0.000 A 
ATOM     33  C   UNL     1      -3.250  11.365  18.446  0.00  0.00    +0.000 A 
ATOM     34  C   UNL     1      -2.060  10.715  18.119  0.00  0.00    +0.000 A 
ATOM     35  C   UNL     1      -1.919  10.096  16.878  0.00  0.00    +0.000 A 
ATOM     36  C   UNL     1      -2.979  10.099  15.976  0.00  0.00    +0.000 A 
ATOM     37  C   UNL     1      -4.167  10.757  16.300  0.00  0.00    +0.000 A 
ENDBRANCH  31  32
ENDBRANCH   3  31
TORSDOF 8
ENDMDL
MODEL 2
REMARK VINA RESULT:      -7.3      7.872     11.458
REMARK  Name = 
REMARK  10 active torsions:
REMARK  status: ('A' for Active; 'I' for Inactive)
REMARK    1  A    between atoms: C_1  and  C_2
REMARK    2  A    between atoms: C_2  and  N_3
REMARK    3  A    between atoms: N_3  and  C_19
REMARK    4  A    between atoms: C_4  and  C_6
REMARK    5  A    between atoms: C_6  and  S_7
REMARK    6  A    between atoms: S_7  and  C_8
REMARK    7  A    between atoms: C_10  and  C_11
REMARK    8  A    between atoms: C_20  and  N_21
REMARK    9  A    between atoms: N_22  and  C_23
REMARK   10  A    between atoms: C_23  and  C_24
REMARK                            x       y       z     vdW  Elec       q    Type
REMARK                         _______ _______ _______ _____ _____    ______ ____
ROOT
ATOM      1  C   UNL     1       5.071   4.492  18.650  0.00  0.00    +0.000 A 
ATOM      2  C   UNL     1       4.846   4.647  17.316  0.00  0.00    +0.000 A 
ATOM      3  N   UNL     1       5.633   5.543  16.587  0.00  0.00    +0.000 N 
ATOM      4  C   UNL     1       6.689   6.253  17.152  0.00  0.00    +0.000 A 
ATOM      5  O   UNL     1       7.370   7.079  16.552  0.00  0.00    +0.000 OA
ATOM      6  N   UNL     1       6.964   5.988  18.457  0.00  0.00    +0.000 N 
ATOM      7  C   UNL     1       6.291   5.114  19.244  0.00  0.00    +0.000 A 
ATOM      8  O   UNL     1       6.683   4.840  20.376  0.00  0.00    +0.000 OA
ATOM      9  H   UNL     1       7.763   6.453  18.856  0.00  0.00    +0.000 HD
ENDROOT
BRANCH   1  10
ATOM     10  N   UNL     1       4.221   3.781  19.517  0.00  0.00    +0.000 N 
ATOM     11  C   UNL     1       3.002   4.335  19.949  0.00  0.00    +0.000 C 
ATOM     12  O   UNL     1       2.122   3.639  20.470  0.00  0.00    +0.000 OA
BRANCH  10  14
ATOM     13  C   UNL     1       3.685   1.416  18.709  0.00  0.00    +0.000 C 
ATOM     14  C   UNL     1       4.458   2.328  19.658  0.00  0.00    +0.000 C 
ENDBRANCH  10  14
BRANCH  11  15
ATOM     15  C   UNL     1       2.725   5.837  19.779  0.00  0.00    +0.000 C 
BRANCH  15  16
ATOM     16  S   UNL     1       1.537   6.459  21.022  0.00  0.00    +0.000 S 
BRANCH  16  17
ATOM     17  C   UNL     1       1.316   8.168  20.487  0.00  0.00    +0.000 A 
ATOM     18  N   UNL     1       1.825   8.479  19.279  0.00  0.00    +0.000 NA
ATOM     19  C   UNL     1       1.651   9.739  18.853  0.00  0.00    +0.000 A 
ATOM     20  C   UNL     1       2.181  10.115  17.504  0.00  0.00    +0.000 C 
ATOM     21  N   UNL     1       1.016  10.697  19.547  0.00  0.00    +0.000 NA
ATOM     22  C   UNL     1       0.503  10.372  20.731  0.00  0.00    +0.000 A 
ATOM     23  C   UNL     1      -0.173  11.357  21.443  0.00  0.00    +0.000 A 
ATOM     24  C   UNL     1      -0.764  11.102  22.681  0.00  0.00    +0.000 A 
ATOM     25  C   UNL     1      -0.673   9.835  23.236  0.00  0.00    +0.000 A 
ATOM     26  C   UNL     1       0.010   8.834  22.547  0.00  0.00    +0.000 A 
ATOM     27  C   UNL     1       0.607   9.088  21.281  0.00  0.00    +0.000 A 
ENDBRANCH  16  17
ENDBRANCH  15  16
ENDBRANCH  11  15
ENDBRANCH   1  10
BRANCH   2  28
ATOM     28  N   UNL     1       3.800   3.965  16.703  0.00  0.00    +0.000 N 
ATOM     29  H   UNL     1       2.939   4.511  16.708  0.00  0.00    +0.000 HD
ATOM     30  H   UNL     1       4.000   3.595  15.783  0.00  0.00    +0.000 HD
ENDBRANCH   2  28
BRANCH   3  31
ATOM     31  C   UNL     1       5.306   5.912  15.205  0.00  0.00    +0.000 C 
BRANCH  31  32
ATOM     32  C   UNL     1       5.961   5.059  14.141  0.00  0.00    +0.000 A 
ATOM     33  C   UNL     1       7.249   5.313  13.648  0.00  0.00    +0.000 A 
ATOM     34  C   UNL     1       7.754   4.584  12.571  0.00  0.00    +0.000 A 
ATOM     35  C   UNL     1       6.991   3.572  11.992  0.00  0.00    +0.000 A 
ATOM     36  C   UNL     1       5.737   3.265  12.511  0.00  0.00    +0.000 A 
ATOM     37  C   UNL     1       5.228   3.999  13.584  0.00  0.00    +0.000 A 
ENDBRANCH  31  32
ENDBRANCH   3  31
TORSDOF 8
ENDMDL
MODEL 3
REMARK VINA RESULT:      -7.0      7.784     11.281
REMARK  Name = 
REMARK  10 active torsions:
REMARK  status: ('A' for Active; 'I' for Inactive)
REMARK    1  A    between atoms: C_1  and  C_2
REMARK    2  A    between atoms: C_2  and  N_3
REMARK    3  A    between atoms: N_3  and  C_19
REMARK    4  A    between atoms: C_4  and  C_6
REMARK    5  A    between atoms: C_6  and  S_7
REMARK    6  A    between atoms: S_7  and  C_8
REMARK    7  A    between atoms: C_10  and  C_11
REMARK    8  A    between atoms: C_20  and  N_21
REMARK    9  A    between atoms: N_22  and  C_23
REMARK   10  A    between atoms: C_23  and  C_24
REMARK                            x       y       z     vdW  Elec       q    Type
REMARK                         _______ _______ _______ _____ _____    ______ ____
ROOT
ATOM      1  C   UNL     1       5.032   4.875  18.619  0.00  0.00    +0.000 A 
ATOM      2  C   UNL     1       4.803   5.011  17.282  0.00  0.00    +0.000 A 
ATOM      3  N   UNL     1       5.748   5.668  16.489  0.00  0.00    +0.000 N 
ATOM      4  C   UNL     1       6.955   6.148  16.991  0.00  0.00    +0.000 A 
ATOM      5  O   UNL     1       7.784   6.767  16.332  0.00  0.00    +0.000 OA
ATOM      6  N   UNL     1       7.206   5.892  18.303  0.00  0.00    +0.000 N 
ATOM      7  C   UNL     1       6.379   5.233  19.151  0.00  0.00    +0.000 A 
ATOM      8  O   UNL     1       6.737   4.934  20.288  0.00  0.00    +0.000 OA
ATOM      9  H   UNL     1       8.101   6.183  18.659  0.00  0.00    +0.000 HD
ENDROOT
BRANCH   1  10
ATOM     10  N   UNL     1       4.073   4.420  19.541  0.00  0.00    +0.000 N 
ATOM     11  C   UNL     1       3.026   5.257  19.969  0.00  0.00    +0.000 C 
ATOM     12  O   UNL     1       2.029   4.806  20.546  0.00  0.00    +0.000 OA
BRANCH  10  14
ATOM     13  C   UNL     1       3.085   2.185  18.790  0.00  0.00    +0.000 C 
ATOM     14  C   UNL     1       3.978   2.959  19.755  0.00  0.00    +0.000 C 
ENDBRANCH  10  14
BRANCH  11  15
ATOM     15  C   UNL     1       3.092   6.773  19.725  0.00  0.00    +0.000 C 
BRANCH  15  16
ATOM     16  S   UNL     1       1.789   7.337  18.573  0.00  0.00    +0.000 S 
BRANCH  16  17
ATOM     17  C   UNL     1       1.522   9.032  19.133  0.00  0.00    +0.000 A 
ATOM     18  N   UNL     1       1.988  10.002  18.323  0.00  0.00    +0.000 NA
ATOM     19  C   UNL     1       1.780  11.269  18.712  0.00  0.00    +0.000 A 
ATOM     20  C   UNL     1       2.261  12.375  17.824  0.00  0.00    +0.000 C 
ATOM     21  N   UNL     1       1.149  11.626  19.841  0.00  0.00    +0.000 NA
ATOM     22  C   UNL     1       0.677  10.658  20.624  0.00  0.00    +0.000 A 
ATOM     23  C   UNL     1       0.007  11.025  21.785  0.00  0.00    +0.000 A 
ATOM     24  C   UNL     1      -0.542  10.080  22.654  0.00  0.00    +0.000 A 
ATOM     25  C   UNL     1      -0.412   8.730  22.368  0.00  0.00    +0.000 A 
ATOM     26  C   UNL     1       0.267   8.337  21.216  0.00  0.00    +0.000 A 
ATOM     27  C   UNL     1       0.821   9.297  20.325  0.00  0.00    +0.000 A 
ENDBRANCH  16  17
ENDBRANCH  15  16
ENDBRANCH  11  15
ENDBRANCH   1  10
BRANCH   2  28
ATOM     28  N   UNL     1       3.611   4.555  16.731  0.00  0.00    +0.000 N 
ATOM     29  H   UNL     1       3.274   5.174  15.994  0.00  0.00    +0.000 HD
ATOM     30  H   UNL     1       3.611   3.588  16.433  0.00  0.00    +0.000 HD
ENDBRANCH   2  28
BRANCH   3  31
ATOM     31  C   UNL     1       5.467   6.033  15.096  0.00  0.00    +0.000 C 
BRANCH  31  32
ATOM     32  C   UNL     1       5.995   5.065  14.059  0.00  0.00    +0.000 A 
ATOM     33  C   UNL     1       7.258   5.201  13.466  0.00  0.00    +0.000 A 
ATOM     34  C   UNL     1       7.643   4.365  12.417  0.00  0.00    +0.000 A 
ATOM     35  C   UNL     1       6.784   3.364  11.969  0.00  0.00    +0.000 A 
ATOM     36  C   UNL     1       5.554   3.174  12.592  0.00  0.00    +0.000 A 
ATOM     37  C   UNL     1       5.165   4.015  13.636  0.00  0.00    +0.000 A 
ENDBRANCH  31  32
ENDBRANCH   3  31
TORSDOF 8
ENDMDL
MODEL 4
REMARK VINA RESULT:      -7.0      1.022      1.159
REMARK  Name = 
REMARK  10 active torsions:
REMARK  status: ('A' for Active; 'I' for Inactive)
REMARK    1  A    between atoms: C_1  and  C_2
REMARK    2  A    between atoms: C_2  and  N_3
REMARK    3  A    between atoms: N_3  and  C_19
REMARK    4  A    between atoms: C_4  and  C_6
REMARK    5  A    between atoms: C_6  and  S_7
REMARK    6  A    between atoms: S_7  and  C_8
REMARK    7  A    between atoms: C_10  and  C_11
REMARK    8  A    between atoms: C_20  and  N_21
REMARK    9  A    between atoms: N_22  and  C_23
REMARK   10  A    between atoms: C_23  and  C_24
REMARK                            x       y       z     vdW  Elec       q    Type
REMARK                         _______ _______ _______ _____ _____    ______ ____
ROOT
ATOM      1  C   UNL     1      -6.199  13.655  22.412  0.00  0.00    +0.000 A 
ATOM      2  C   UNL     1      -6.110  13.800  21.061  0.00  0.00    +0.000 A 
ATOM      3  N   UNL     1      -6.535  12.760  20.230  0.00  0.00    +0.000 N 
ATOM      4  C   UNL     1      -7.107  11.588  20.718  0.00  0.00    +0.000 A 
ATOM      5  O   UNL     1      -7.448  10.638  20.019  0.00  0.00    +0.000 OA
ATOM      6  N   UNL     1      -7.290  11.522  22.064  0.00  0.00    +0.000 N 
ATOM      7  C   UNL     1      -6.951  12.485  22.955  0.00  0.00    +0.000 A 
ATOM      8  O   UNL     1      -7.267  12.400  24.139  0.00  0.00    +0.000 OA
ATOM      9  H   UNL     1      -7.757  10.704  22.419  0.00  0.00    +0.000 HD
ENDROOT
BRANCH   1  10
ATOM     10  N   UNL     1      -5.621  14.539  23.341  0.00  0.00    +0.000 N 
ATOM     11  C   UNL     1      -4.225  14.601  23.509  0.00  0.00    +0.000 C 
ATOM     12  O   UNL     1      -3.684  15.545  24.097  0.00  0.00    +0.000 OA
BRANCH  10  14
ATOM     13  C   UNL     1      -6.479  16.927  23.037  0.00  0.00    +0.000 C 
ATOM     14  C   UNL     1      -6.471  15.636  23.852  0.00  0.00    +0.000 C 
ENDBRANCH  10  14
BRANCH  11  15
ATOM     15  C   UNL     1      -3.324  13.486  22.955  0.00  0.00    +0.000 C 
BRANCH  15  16
ATOM     16  S   UNL     1      -1.572  13.732  23.414  0.00  0.00    +0.000 S 
BRANCH  16  17
ATOM     17  C   UNL     1      -0.723  12.969  22.016  0.00  0.00    +0.000 A 
ATOM     18  N   UNL     1      -0.318  13.807  21.042  0.00  0.00    +0.000 NA
ATOM     19  C   UNL     1       0.334  13.262  20.004  0.00  0.00    +0.000 A 
ATOM     20  C   UNL     1       0.822  14.166  18.915  0.00  0.00    +0.000 C 
ATOM     21  N   UNL     1       0.602  11.953  19.875  0.00  0.00    +0.000 NA
ATOM     22  C   UNL     1       0.213  11.138  20.853  0.00  0.00    +0.000 A 
ATOM     23  C   UNL     1       0.505   9.784  20.730  0.00  0.00    +0.000 A 
ATOM     24  C   UNL     1       0.158   8.859  21.716  0.00  0.00    +0.000 A 
ATOM     25  C   UNL     1      -0.511   9.288  22.853  0.00  0.00    +0.000 A 
ATOM     26  C   UNL     1      -0.827  10.638  22.992  0.00  0.00    +0.000 A 
ATOM     27  C   UNL     1      -0.467  11.585  21.993  0.00  0.00    +0.000 A 
ENDBRANCH  16  17
ENDBRANCH  15  16
ENDBRANCH  11  15
ENDBRANCH   1  10
BRANCH   2  28
ATOM     28  N   UNL     1      -5.542  14.949  20.521  0.00  0.00    +0.000 N 
ATOM     29  H   UNL     1      -6.001  15.793  20.861  0.00  0.00    +0.000 HD
ATOM     30  H   UNL     1      -4.535  15.015  20.600  0.00  0.00    +0.000 HD
ENDBRANCH   2  28
BRANCH   3  31
ATOM     31  C   UNL     1      -6.270  12.766  18.787  0.00  0.00    +0.000 C 
BRANCH  31  32
ATOM     32  C   UNL     1      -4.995  12.069  18.364  0.00  0.00    +0.000 A 
ATOM     33  C   UNL     1      -3.843  12.041  19.162  0.00  0.00    +0.000 A 
ATOM     34  C   UNL     1      -2.652  11.507  18.671  0.00  0.00    +0.000 A 
ATOM     35  C   UNL     1      -2.605  10.965  17.388  0.00  0.00    +0.000 A 
ATOM     36  C   UNL     1      -3.757  10.926  16.608  0.00  0.00    +0.000 A 
ATOM     37  C   UNL     1      -4.947  11.468  17.096  0.00  0.00    +0.000 A 
ENDBRANCH  31  32
ENDBRANCH   3  31
TORSDOF 8
ENDMDL
MODEL 5
REMARK VINA RESULT:      -6.9      4.234      7.405
REMARK  Name = 
REMARK  10 active torsions:
REMARK  status: ('A' for Active; 'I' for Inactive)
REMARK    1  A    between atoms: C_1  and  C_2
REMARK    2  A    between atoms: C_2  and  N_3
REMARK    3  A    between atoms: N_3  and  C_19
REMARK    4  A    between atoms: C_4  and  C_6
REMARK    5  A    between atoms: C_6  and  S_7
REMARK    6  A    between atoms: S_7  and  C_8
REMARK    7  A    between atoms: C_10  and  C_11
REMARK    8  A    between atoms: C_20  and  N_21
REMARK    9  A    between atoms: N_22  and  C_23
REMARK   10  A    between atoms: C_23  and  C_24
REMARK                            x       y       z     vdW  Elec       q    Type
REMARK                         _______ _______ _______ _____ _____    ______ ____
ROOT
ATOM      1  C   UNL     1      -0.345  11.833  19.522  0.00  0.00    +0.000 A 
ATOM      2  C   UNL     1      -0.607  11.658  20.848  0.00  0.00    +0.000 A 
ATOM      3  N   UNL     1      -1.882  11.951  21.339  0.00  0.00    +0.000 N 
ATOM      4  C   UNL     1      -2.931  12.365  20.521  0.00  0.00    +0.000 A 
ATOM      5  O   UNL     1      -4.047  12.673  20.927  0.00  0.00    +0.000 OA
ATOM      6  N   UNL     1      -2.670  12.416  19.188  0.00  0.00    +0.000 N 
ATOM      7  C   UNL     1      -1.485  12.118  18.602  0.00  0.00    +0.000 A 
ATOM      8  O   UNL     1      -1.371  12.068  17.380  0.00  0.00    +0.000 OA
ATOM      9  H   UNL     1      -3.439  12.657  18.584  0.00  0.00    +0.000 HD
ENDROOT
BRANCH   1  10
ATOM     10  N   UNL     1       0.941  11.766  18.957  0.00  0.00    +0.000 N 
ATOM     11  C   UNL     1       1.445  10.555  18.448  0.00  0.00    +0.000 C 
ATOM     12  O   UNL     1       2.435  10.525  17.706  0.00  0.00    +0.000 OA
BRANCH  10  14
ATOM     13  C   UNL     1       2.548  13.647  19.600  0.00  0.00    +0.000 C 
ATOM     14  C   UNL     1       1.584  13.044  18.581  0.00  0.00    +0.000 C 
ENDBRANCH  10  14
BRANCH  11  15
ATOM     15  C   UNL     1       0.769   9.220  18.800  0.00  0.00    +0.000 C 
BRANCH  15  16
ATOM     16  S   UNL     1       1.681   8.314  20.100  0.00  0.00    +0.000 S 
BRANCH  16  17
ATOM     17  C   UNL     1       2.441   6.984  19.147  0.00  0.00    +0.000 A 
ATOM     18  N   UNL     1       3.288   7.365  18.171  0.00  0.00    +0.000 NA
ATOM     19  C   UNL     1       3.880   6.390  17.465  0.00  0.00    +0.000 A 
ATOM     20  C   UNL     1       4.847   6.776  16.389  0.00  0.00    +0.000 C 
ATOM     21  N   UNL     1       3.681   5.077  17.664  0.00  0.00    +0.000 NA
ATOM     22  C   UNL     1       2.856   4.713  18.643  0.00  0.00    +0.000 A 
ATOM     23  C   UNL     1       2.663   3.354  18.863  0.00  0.00    +0.000 A 
ATOM     24  C   UNL     1       1.835   2.879  19.881  0.00  0.00    +0.000 A 
ATOM     25  C   UNL     1       1.169   3.779  20.699  0.00  0.00    +0.000 A 
ATOM     26  C   UNL     1       1.336   5.147  20.489  0.00  0.00    +0.000 A 
ATOM     27  C   UNL     1       2.185   5.635  19.457  0.00  0.00    +0.000 A 
ENDBRANCH  16  17
ENDBRANCH  15  16
ENDBRANCH  11  15
ENDBRANCH   1  10
BRANCH   2  28
ATOM     28  N   UNL     1       0.406  11.251  21.709  0.00  0.00    +0.000 N 
ATOM     29  H   UNL     1       1.191  11.903  21.703  0.00  0.00    +0.000 HD
ATOM     30  H   UNL     1       0.114  11.030  22.652  0.00  0.00    +0.000 HD
ENDBRANCH   2  28
BRANCH   3  31
ATOM     31  C   UNL     1      -2.166  11.988  22.778  0.00  0.00    +0.000 C 
BRANCH  31  32
ATOM     32  C   UNL     1      -2.121  13.364  23.406  0.00  0.00    +0.000 A 
ATOM     33  C   UNL     1      -1.016  14.219  23.288  0.00  0.00    +0.000 A 
ATOM     34  C   UNL     1      -0.966  15.418  23.999  0.00  0.00    +0.000 A 
ATOM     35  C   UNL     1      -2.034  15.793  24.813  0.00  0.00    +0.000 A 
ATOM     36  C   UNL     1      -3.165  14.987  24.890  0.00  0.00    +0.000 A 
ATOM     37  C   UNL     1      -3.212  13.783  24.184  0.00  0.00    +0.000 A 
ENDBRANCH  31  32
ENDBRANCH   3  31
TORSDOF 8
ENDMDL
MODEL 6
REMARK VINA RESULT:      -6.9      2.045      5.205
REMARK  Name = 
REMARK  10 active torsions:
REMARK  status: ('A' for Active; 'I' for Inactive)
REMARK    1  A    between atoms: C_1  and  C_2
REMARK    2  A    between atoms: C_2  and  N_3
REMARK    3  A    between atoms: N_3  and  C_19
REMARK    4  A    between atoms: C_4  and  C_6
REMARK    5  A    between atoms: C_6  and  S_7
REMARK    6  A    between atoms: S_7  and  C_8
REMARK    7  A    between atoms: C_10  and  C_11
REMARK    8  A    between atoms: C_20  and  N_21
REMARK    9  A    between atoms: N_22  and  C_23
REMARK   10  A    between atoms: C_23  and  C_24
REMARK                            x       y       z     vdW  Elec       q    Type
REMARK                         _______ _______ _______ _____ _____    ______ ____
ROOT
ATOM      1  C   UNL     1      -5.683  12.337  19.553  0.00  0.00    +0.000 A 
ATOM      2  C   UNL     1      -5.577  13.386  20.416  0.00  0.00    +0.000 A 
ATOM      3  N   UNL     1      -6.341  13.390  21.586  0.00  0.00    +0.000 N 
ATOM      4  C   UNL     1      -7.175  12.336  21.949  0.00  0.00    +0.000 A 
ATOM      5  O   UNL     1      -7.892  12.329  22.945  0.00  0.00    +0.000 OA
ATOM      6  N   UNL     1      -7.169  11.253  21.127  0.00  0.00    +0.000 N 
ATOM      7  C   UNL     1      -6.440  11.127  19.991  0.00  0.00    +0.000 A 
ATOM      8  O   UNL     1      -6.396  10.066  19.374  0.00  0.00    +0.000 OA
ATOM      9  H   UNL     1      -7.723  10.463  21.413  0.00  0.00    +0.000 HD
ENDROOT
BRANCH   1  10
ATOM     10  N   UNL     1      -5.125  12.317  18.262  0.00  0.00    +0.000 N 
ATOM     11  C   UNL     1      -3.861  11.744  18.029  0.00  0.00    +0.000 C 
ATOM     12  O   UNL     1      -3.477  11.463  16.888  0.00  0.00    +0.000 OA
BRANCH  10  14
ATOM     13  C   UNL     1      -7.422  13.111  17.471  0.00  0.00    +0.000 C 
ATOM     14  C   UNL     1      -6.037  12.571  17.126  0.00  0.00    +0.000 C 
ENDBRANCH  10  14
BRANCH  11  15
ATOM     15  C   UNL     1      -2.915  11.442  19.202  0.00  0.00    +0.000 C 
BRANCH  15  16
ATOM     16  S   UNL     1      -1.164  11.718  18.756  0.00  0.00    +0.000 S 
BRANCH  16  17
ATOM     17  C   UNL     1      -0.325  10.553  19.850  0.00  0.00    +0.000 A 
ATOM     18  N   UNL     1      -0.676  10.605  21.149  0.00  0.00    +0.000 NA
ATOM     19  C   UNL     1      -0.080   9.732  21.974  0.00  0.00    +0.000 A 
ATOM     20  C   UNL     1      -0.464   9.743  23.422  0.00  0.00    +0.000 C 
ATOM     21  N   UNL     1       0.835   8.826  21.594  0.00  0.00    +0.000 NA
ATOM     22  C   UNL     1       1.161   8.773  20.304  0.00  0.00    +0.000 A 
ATOM     23  C   UNL     1       2.094   7.823  19.905  0.00  0.00    +0.000 A 
ATOM     24  C   UNL     1       2.478   7.679  18.571  0.00  0.00    +0.000 A 
ATOM     25  C   UNL     1       1.929   8.509  17.605  0.00  0.00    +0.000 A 
ATOM     26  C   UNL     1       1.001   9.478  17.984  0.00  0.00    +0.000 A 
ATOM     27  C   UNL     1       0.601   9.623  19.342  0.00  0.00    +0.000 A 
ENDBRANCH  16  17
ENDBRANCH  15  16
ENDBRANCH  11  15
ENDBRANCH   1  10
BRANCH   2  28
ATOM     28  N   UNL     1      -4.763  14.467  20.099  0.00  0.00    +0.000 N 
ATOM     29  H   UNL     1      -5.165  15.349  20.416  0.00  0.00    +0.000 HD
ATOM     30  H   UNL     1      -3.794  14.379  20.377  0.00  0.00    +0.000 HD
ENDBRANCH   2  28
BRANCH   3  31
ATOM     31  C   UNL     1      -6.433  14.578  22.444  0.00  0.00    +0.000 C 
BRANCH  31  32
ATOM     32  C   UNL     1      -5.325  14.720  23.464  0.00  0.00    +0.000 A 
ATOM     33  C   UNL     1      -5.000  15.943  24.070  0.00  0.00    +0.000 A 
ATOM     34  C   UNL     1      -3.883  16.050  24.898  0.00  0.00    +0.000 A 
ATOM     35  C   UNL     1      -3.093  14.931  25.156  0.00  0.00    +0.000 A 
ATOM     36  C   UNL     1      -3.439  13.697  24.615  0.00  0.00    +0.000 A 
ATOM     37  C   UNL     1      -4.553  13.590  23.779  0.00  0.00    +0.000 A 
ENDBRANCH  31  32
ENDBRANCH   3  31
TORSDOF 8
ENDMDL
MODEL 7
REMARK VINA RESULT:      -6.8      2.659      5.752
REMARK  Name = 
REMARK  10 active torsions:
REMARK  status: ('A' for Active; 'I' for Inactive)
REMARK    1  A    between atoms: C_1  and  C_2
REMARK    2  A    between atoms: C_2  and  N_3
REMARK    3  A    between atoms: N_3  and  C_19
REMARK    4  A    between atoms: C_4  and  C_6
REMARK    5  A    between atoms: C_6  and  S_7
REMARK    6  A    between atoms: S_7  and  C_8
REMARK    7  A    between atoms: C_10  and  C_11
REMARK    8  A    between atoms: C_20  and  N_21
REMARK    9  A    between atoms: N_22  and  C_23
REMARK   10  A    between atoms: C_23  and  C_24
REMARK                            x       y       z     vdW  Elec       q    Type
REMARK                         _______ _______ _______ _____ _____    ______ ____
ROOT
ATOM      1  C   UNL     1      -1.144  11.434  18.597  0.00  0.00    +0.000 A 
ATOM      2  C   UNL     1      -2.426  11.891  18.524  0.00  0.00    +0.000 A 
ATOM      3  N   UNL     1      -3.283  11.372  17.550  0.00  0.00    +0.000 N 
ATOM      4  C   UNL     1      -2.908  10.356  16.675  0.00  0.00    +0.000 A 
ATOM      5  O   UNL     1      -3.621   9.911  15.781  0.00  0.00    +0.000 OA
ATOM      6  N   UNL     1      -1.663   9.839  16.851  0.00  0.00    +0.000 N 
ATOM      7  C   UNL     1      -0.766  10.240  17.785  0.00  0.00    +0.000 A 
ATOM      8  O   UNL     1       0.289   9.635  17.959  0.00  0.00    +0.000 OA
ATOM      9  H   UNL     1      -1.406   9.065  16.262  0.00  0.00    +0.000 HD
ENDROOT
BRANCH   1  10
ATOM     10  N   UNL     1      -0.142  12.019  19.392  0.00  0.00    +0.000 N 
ATOM     11  C   UNL     1       0.119  11.546  20.691  0.00  0.00    +0.000 C 
ATOM     12  O   UNL     1       1.157  11.844  21.294  0.00  0.00    +0.000 OA
BRANCH  10  14
ATOM     13  C   UNL     1       0.669  14.381  18.849  0.00  0.00    +0.000 C 
ATOM     14  C   UNL     1       0.854  12.872  18.708  0.00  0.00    +0.000 C 
ENDBRANCH  10  14
BRANCH  11  15
ATOM     15  C   UNL     1      -0.890  10.631  21.404  0.00  0.00    +0.000 C 
BRANCH  15  16
ATOM     16  S   UNL     1      -1.115  11.096  23.157  0.00  0.00    +0.000 S 
BRANCH  16  17
ATOM     17  C   UNL     1      -2.295  12.456  23.020  0.00  0.00    +0.000 A 
ATOM     18  N   UNL     1      -3.594  12.127  23.160  0.00  0.00    +0.000 NA
ATOM     19  C   UNL     1      -4.484  13.127  23.083  0.00  0.00    +0.000 A 
ATOM     20  C   UNL     1      -5.936  12.804  23.259  0.00  0.00    +0.000 C 
ATOM     21  N   UNL     1      -4.168  14.415  22.875  0.00  0.00    +0.000 NA
ATOM     22  C   UNL     1      -2.880  14.729  22.756  0.00  0.00    +0.000 A 
ATOM     23  C   UNL     1      -2.549  16.065  22.560  0.00  0.00    +0.000 A 
ATOM     24  C   UNL     1      -1.224  16.491  22.448  0.00  0.00    +0.000 A 
ATOM     25  C   UNL     1      -0.197  15.562  22.523  0.00  0.00    +0.000 A 
ATOM     26  C   UNL     1      -0.505  14.215  22.707  0.00  0.00    +0.000 A 
ATOM     27  C   UNL     1      -1.854  13.779  22.828  0.00  0.00    +0.000 A 
ENDBRANCH  16  17
ENDBRANCH  15  16
ENDBRANCH  11  15
ENDBRANCH   1  10
BRANCH   2  28
ATOM     28  N   UNL     1      -2.850  12.909  19.370  0.00  0.00    +0.000 N 
ATOM     29  H   UNL     1      -3.840  12.824  19.597  0.00  0.00    +0.000 HD
ATOM     30  H   UNL     1      -2.289  13.047  20.201  0.00  0.00    +0.000 HD
ENDBRANCH   2  28
BRANCH   3  31
ATOM     31  C   UNL     1      -4.597  11.968  17.282  0.00  0.00    +0.000 C 
BRANCH  31  32
ATOM     32  C   UNL     1      -5.683  11.600  18.269  0.00  0.00    +0.000 A 
ATOM     33  C   UNL     1      -6.367  12.552  19.039  0.00  0.00    +0.000 A 
ATOM     34  C   UNL     1      -7.260  12.152  20.033  0.00  0.00    +0.000 A 
ATOM     35  C   UNL     1      -7.505  10.798  20.250  0.00  0.00    +0.000 A 
ATOM     36  C   UNL     1      -6.884   9.843  19.450  0.00  0.00    +0.000 A 
ATOM     37  C   UNL     1      -5.984  10.242  18.460  0.00  0.00    +0.000 A 
ENDBRANCH  31  32
ENDBRANCH   3  31
TORSDOF 8
ENDMDL
MODEL 8
REMARK VINA RESULT:      -6.7      4.555      7.653
REMARK  Name = 
REMARK  10 active torsions:
REMARK  status: ('A' for Active; 'I' for Inactive)
REMARK    1  A    between atoms: C_1  and  C_2
REMARK    2  A    between atoms: C_2  and  N_3
REMARK    3  A    between atoms: N_3  and  C_19
REMARK    4  A    between atoms: C_4  and  C_6
REMARK    5  A    between atoms: C_6  and  S_7
REMARK    6  A    between atoms: S_7  and  C_8
REMARK    7  A    between atoms: C_10  and  C_11
REMARK    8  A    between atoms: C_20  and  N_21
REMARK    9  A    between atoms: N_22  and  C_23
REMARK   10  A    between atoms: C_23  and  C_24
REMARK                            x       y       z     vdW  Elec       q    Type
REMARK                         _______ _______ _______ _____ _____    ______ ____
ROOT
ATOM      1  C   UNL     1       0.133  11.980  19.445  0.00  0.00    +0.000 A 
ATOM      2  C   UNL     1       0.994  12.983  19.117  0.00  0.00    +0.000 A 
ATOM      3  N   UNL     1       1.374  13.907  20.095  0.00  0.00    +0.000 N 
ATOM      4  C   UNL     1       0.958  13.819  21.420  0.00  0.00    +0.000 A 
ATOM      5  O   UNL     1       1.237  14.637  22.291  0.00  0.00    +0.000 OA
ATOM      6  N   UNL     1       0.195  12.740  21.742  0.00  0.00    +0.000 N 
ATOM      7  C   UNL     1      -0.200  11.768  20.884  0.00  0.00    +0.000 A 
ATOM      8  O   UNL     1      -0.781  10.762  21.283  0.00  0.00    +0.000 OA
ATOM      9  H   UNL     1      -0.061  12.638  22.710  0.00  0.00    +0.000 HD
ENDROOT
BRANCH   1  10
ATOM     10  N   UNL     1      -0.473  11.123  18.509  0.00  0.00    +0.000 N 
ATOM     11  C   UNL     1       0.111   9.887  18.175  0.00  0.00    +0.000 C 
ATOM     12  O   UNL     1      -0.526   9.007  17.583  0.00  0.00    +0.000 OA
BRANCH  10  14
ATOM     13  C   UNL     1      -2.245  11.416  16.690  0.00  0.00    +0.000 C 
ATOM     14  C   UNL     1      -1.891  11.379  18.174  0.00  0.00    +0.000 C 
ENDBRANCH  10  14
BRANCH  11  15
ATOM     15  C   UNL     1       1.574   9.592  18.544  0.00  0.00    +0.000 C 
BRANCH  15  16
ATOM     16  S   UNL     1       1.704   8.348  19.878  0.00  0.00    +0.000 S 
BRANCH  16  17
ATOM     17  C   UNL     1       2.513   6.982  19.020  0.00  0.00    +0.000 A 
ATOM     18  N   UNL     1       3.360   7.326  18.030  0.00  0.00    +0.000 NA
ATOM     19  C   UNL     1       3.988   6.325  17.395  0.00  0.00    +0.000 A 
ATOM     20  C   UNL     1       4.957   6.669  16.306  0.00  0.00    +0.000 C 
ATOM     21  N   UNL     1       3.824   5.022  17.675  0.00  0.00    +0.000 NA
ATOM     22  C   UNL     1       2.998   4.697  18.666  0.00  0.00    +0.000 A 
ATOM     23  C   UNL     1       2.841   3.350  18.971  0.00  0.00    +0.000 A 
ATOM     24  C   UNL     1       2.014   2.917  20.009  0.00  0.00    +0.000 A 
ATOM     25  C   UNL     1       1.313   3.847  20.761  0.00  0.00    +0.000 A 
ATOM     26  C   UNL     1       1.444   5.204  20.465  0.00  0.00    +0.000 A 
ATOM     27  C   UNL     1       2.292   5.649  19.413  0.00  0.00    +0.000 A 
ENDBRANCH  16  17
ENDBRANCH  15  16
ENDBRANCH  11  15
ENDBRANCH   1  10
BRANCH   2  28
ATOM     28  N   UNL     1       1.436  13.119  17.806  0.00  0.00    +0.000 N 
ATOM     29  H   UNL     1       2.341  13.588  17.758  0.00  0.00    +0.000 HD
ATOM     30  H   UNL     1       1.427  12.272  17.253  0.00  0.00    +0.000 HD
ENDBRANCH   2  28
BRANCH   3  31
ATOM     31  C   UNL     1       2.122  15.124  19.758  0.00  0.00    +0.000 C 
BRANCH  31  32
ATOM     32  C   UNL     1       1.385  16.107  18.876  0.00  0.00    +0.000 A 
ATOM     33  C   UNL     1       2.035  16.933  17.948  0.00  0.00    +0.000 A 
ATOM     34  C   UNL     1       1.329  17.920  17.259  0.00  0.00    +0.000 A 
ATOM     35  C   UNL     1      -0.040  18.073  17.464  0.00  0.00    +0.000 A 
ATOM     36  C   UNL     1      -0.712  17.218  18.333  0.00  0.00    +0.000 A 
ATOM     37  C   UNL     1      -0.005  16.236  19.030  0.00  0.00    +0.000 A 
ENDBRANCH  31  32
ENDBRANCH   3  31
TORSDOF 8
ENDMDL
MODEL 9
REMARK VINA RESULT:      -6.7      4.698      8.304
REMARK  Name = 
REMARK  10 active torsions:
REMARK  status: ('A' for Active; 'I' for Inactive)
REMARK    1  A    between atoms: C_1  and  C_2
REMARK    2  A    between atoms: C_2  and  N_3
REMARK    3  A    between atoms: N_3  and  C_19
REMARK    4  A    between atoms: C_4  and  C_6
REMARK    5  A    between atoms: C_6  and  S_7
REMARK    6  A    between atoms: S_7  and  C_8
REMARK    7  A    between atoms: C_10  and  C_11
REMARK    8  A    between atoms: C_20  and  N_21
REMARK    9  A    between atoms: N_22  and  C_23
REMARK   10  A    between atoms: C_23  and  C_24
REMARK                            x       y       z     vdW  Elec       q    Type
REMARK                         _______ _______ _______ _____ _____    ______ ____
ROOT
ATOM      1  C   UNL     1       0.745  12.060  19.314  0.00  0.00    +0.000 A 
ATOM      2  C   UNL     1       1.786  12.861  18.950  0.00  0.00    +0.000 A 
ATOM      3  N   UNL     1       2.347  13.726  19.892  0.00  0.00    +0.000 N 
ATOM      4  C   UNL     1       1.930  13.773  21.220  0.00  0.00    +0.000 A 
ATOM      5  O   UNL     1       2.370  14.552  22.060  0.00  0.00    +0.000 OA
ATOM      6  N   UNL     1       0.971  12.879  21.581  0.00  0.00    +0.000 N 
ATOM      7  C   UNL     1       0.386  11.973  20.760  0.00  0.00    +0.000 A 
ATOM      8  O   UNL     1      -0.380  11.117  21.196  0.00  0.00    +0.000 OA
ATOM      9  H   UNL     1       0.705  12.865  22.552  0.00  0.00    +0.000 HD
ENDROOT
BRANCH   1  10
ATOM     10  N   UNL     1      -0.024  11.306  18.410  0.00  0.00    +0.000 N 
ATOM     11  C   UNL     1       0.171   9.919  18.276  0.00  0.00    +0.000 C 
ATOM     12  O   UNL     1      -0.661   9.198  17.712  0.00  0.00    +0.000 OA
BRANCH  10  14
ATOM     13  C   UNL     1      -2.489  11.858  18.799  0.00  0.00    +0.000 C 
ATOM     14  C   UNL     1      -1.263  11.926  17.893  0.00  0.00    +0.000 C 
ENDBRANCH  10  14
BRANCH  11  15
ATOM     15  C   UNL     1       1.437   9.253  18.838  0.00  0.00    +0.000 C 
BRANCH  15  16
ATOM     16  S   UNL     1       2.420   8.438  17.529  0.00  0.00    +0.000 S 
BRANCH  16  17
ATOM     17  C   UNL     1       3.039   6.982  18.397  0.00  0.00    +0.000 A 
ATOM     18  N   UNL     1       2.193   6.416  19.280  0.00  0.00    +0.000 NA
ATOM     19  C   UNL     1       2.627   5.320  19.919  0.00  0.00    +0.000 A 
ATOM     20  C   UNL     1       1.705   4.648  20.889  0.00  0.00    +0.000 C 
ATOM     21  N   UNL     1       3.835   4.761  19.741  0.00  0.00    +0.000 NA
ATOM     22  C   UNL     1       4.655   5.320  18.853  0.00  0.00    +0.000 A 
ATOM     23  C   UNL     1       5.899   4.732  18.653  0.00  0.00    +0.000 A 
ATOM     24  C   UNL     1       6.814   5.234  17.726  0.00  0.00    +0.000 A 
ATOM     25  C   UNL     1       6.490   6.359  16.983  0.00  0.00    +0.000 A 
ATOM     26  C   UNL     1       5.254   6.973  17.176  0.00  0.00    +0.000 A 
ATOM     27  C   UNL     1       4.315   6.460  18.114  0.00  0.00    +0.000 A 
ENDBRANCH  16  17
ENDBRANCH  15  16
ENDBRANCH  11  15
ENDBRANCH   1  10
BRANCH   2  28
ATOM     28  N   UNL     1       2.238  12.857  17.635  0.00  0.00    +0.000 N 
ATOM     29  H   UNL     1       1.495  13.098  16.979  0.00  0.00    +0.000 HD
ATOM     30  H   UNL     1       3.077  13.397  17.461  0.00  0.00    +0.000 HD
ENDBRANCH   2  28
BRANCH   3  31
ATOM     31  C   UNL     1       3.319  14.758  19.512  0.00  0.00    +0.000 C 
BRANCH  31  32
ATOM     32  C   UNL     1       2.746  15.925  18.738  0.00  0.00    +0.000 A 
ATOM     33  C   UNL     1       1.648  16.672  19.189  0.00  0.00    +0.000 A 
ATOM     34  C   UNL     1       1.071  17.648  18.376  0.00  0.00    +0.000 A 
ATOM     35  C   UNL     1       1.603  17.912  17.115  0.00  0.00    +0.000 A 
ATOM     36  C   UNL     1       2.733  17.226  16.680  0.00  0.00    +0.000 A 
ATOM     37  C   UNL     1       3.306  16.243  17.490  0.00  0.00    +0.000 A 
ENDBRANCH  31  32
ENDBRANCH   3  31
TORSDOF 8
ENDMDL
