MODEL 1
REMARK VINA RESULT:      -9.5      0.000      0.000
REMARK  Name = 
REMARK  4 active torsions:
REMARK  status: ('A' for Active; 'I' for Inactive)
REMARK    1  A    between atoms: C_2  and  C_18
REMARK    2  A    between atoms: N_3  and  C_4
REMARK    3  A    between atoms: C_8  and  S_9
REMARK    4  A    between atoms: S_9  and  N_12
REMARK                            x       y       z     vdW  Elec       q    Type
REMARK                         _______ _______ _______ _____ _____    ______ ____
ROOT
ATOM      1  O   UNL     1       8.405   6.818  18.913  0.00  0.00    +0.000 OA
ATOM      2  C   UNL     1       7.917   7.709  18.224  0.00  0.00    +0.000 C 
ATOM      3  N   UNL     1       6.944   7.534  17.253  0.00  0.00    +0.000 N 
ATOM      4  H   UNL     1       6.785   8.320  16.635  0.00  0.00    +0.000 HD
ENDROOT
BRANCH   2   5
ATOM      5  C   UNL     1       8.408   9.064  18.347  0.00  0.00    +0.000 A 
ATOM      6  C   UNL     1       8.274  10.187  17.557  0.00  0.00    +0.000 A 
ATOM      7  C   UNL     1       9.095  11.213  18.098  0.00  0.00    +0.000 A 
ATOM      8  C   UNL     1       9.422  12.515  17.689  0.00  0.00    +0.000 A 
ATOM      9  C   UNL     1      10.347  13.235  18.441  0.00  0.00    +0.000 A 
ATOM     10  F   UNL     1      10.706  14.460  18.031  0.00  0.00    +0.000 F 
ATOM     11  C   UNL     1      10.926  12.712  19.591  0.00  0.00    +0.000 A 
ATOM     12  C   UNL     1      10.584  11.432  20.039  0.00  0.00    +0.000 A 
ATOM     13  C   UNL     1       9.678  10.707  19.261  0.00  0.00    +0.000 A 
ATOM     14  N   UNL     1       9.186   9.434  19.426  0.00  0.00    +0.000 N 
ATOM     15  H   UNL     1       9.423   8.806  20.185  0.00  0.00    +0.000 HD
ENDBRANCH   2   5
BRANCH   3  16
ATOM     16  C   UNL     1       6.340   6.314  16.884  0.00  0.00    +0.000 A 
ATOM     17  C   UNL     1       6.907   5.452  15.946  0.00  0.00    +0.000 A 
ATOM     18  C   UNL     1       6.195   4.358  15.459  0.00  0.00    +0.000 A 
ATOM     19  C   UNL     1       4.930   4.071  15.963  0.00  0.00    +0.000 A 
ATOM     20  C   UNL     1       4.423   4.836  17.019  0.00  0.00    +0.000 A 
ATOM     21  C   UNL     1       5.105   5.978  17.461  0.00  0.00    +0.000 A 
BRANCH  20  22
ATOM     22  S   UNL     1       2.827   4.416  17.706  0.00  0.00    +0.000 S 
ATOM     23  O   UNL     1       2.071   5.645  17.808  0.00  0.00    +0.000 OA
ATOM     24  O   UNL     1       2.321   3.288  16.950  0.00  0.00    +0.000 OA
BRANCH  22  25
ATOM     25  N   UNL     1       3.161   3.878  19.274  0.00  0.00    +0.000 NA
ATOM     26  C   UNL     1       2.969   2.463  19.626  0.00  0.00    +0.000 C 
ATOM     27  C   UNL     1       1.757   2.478  20.535  0.00  0.00    +0.000 C 
ATOM     28  C   UNL     1       1.893   3.781  21.307  0.00  0.00    +0.000 C 
ATOM     29  C   UNL     1       2.752   4.696  20.433  0.00  0.00    +0.000 C 
ENDBRANCH  22  25
ENDBRANCH  20  22
ENDBRANCH   3  16
TORSDOF 4
ENDMDL
MODEL 2
REMARK VINA RESULT:      -9.4      1.124      1.438
REMARK  Name = 
REMARK  4 active torsions:
REMARK  status: ('A' for Active; 'I' for Inactive)
REMARK    1  A    between atoms: C_2  and  C_18
REMARK    2  A    between atoms: N_3  and  C_4
REMARK    3  A    between atoms: C_8  and  S_9
REMARK    4  A    between atoms: S_9  and  N_12
REMARK                            x       y       z     vdW  Elec       q    Type
REMARK                         _______ _______ _______ _____ _____    ______ ____
ROOT
ATOM      1  O   UNL     1       8.392   6.768  18.915  0.00  0.00    +0.000 OA
ATOM      2  C   UNL     1       7.939   7.645  18.186  0.00  0.00    +0.000 C 
ATOM      3  N   UNL     1       7.045   7.445  17.146  0.00  0.00    +0.000 N 
ATOM      4  H   UNL     1       6.917   8.224  16.512  0.00  0.00    +0.000 HD
ENDROOT
BRANCH   2   5
ATOM      5  C   UNL     1       8.391   9.011  18.336  0.00  0.00    +0.000 A 
ATOM      6  C   UNL     1       8.246  10.139  17.557  0.00  0.00    +0.000 A 
ATOM      7  C   UNL     1       9.028  11.180  18.128  0.00  0.00    +0.000 A 
ATOM      8  C   UNL     1       9.330  12.494  17.741  0.00  0.00    +0.000 A 
ATOM      9  C   UNL     1      10.220  13.229  18.523  0.00  0.00    +0.000 A 
ATOM     10  F   UNL     1      10.555  14.468  18.136  0.00  0.00    +0.000 F 
ATOM     11  C   UNL     1      10.786  12.706  19.680  0.00  0.00    +0.000 A 
ATOM     12  C   UNL     1      10.467  11.413  20.104  0.00  0.00    +0.000 A 
ATOM     13  C   UNL     1       9.598  10.675  19.298  0.00  0.00    +0.000 A 
ATOM     14  N   UNL     1       9.136   9.387  19.436  0.00  0.00    +0.000 N 
ATOM     15  H   UNL     1       9.373   8.757  20.194  0.00  0.00    +0.000 HD
ENDBRANCH   2   5
BRANCH   3  16
ATOM     16  C   UNL     1       6.496   6.210  16.742  0.00  0.00    +0.000 A 
ATOM     17  C   UNL     1       6.592   5.741  15.432  0.00  0.00    +0.000 A 
ATOM     18  C   UNL     1       5.874   4.621  15.019  0.00  0.00    +0.000 A 
ATOM     19  C   UNL     1       5.105   3.912  15.937  0.00  0.00    +0.000 A 
ATOM     20  C   UNL     1       5.132   4.281  17.286  0.00  0.00    +0.000 A 
ATOM     21  C   UNL     1       5.797   5.447  17.690  0.00  0.00    +0.000 A 
BRANCH  20  22
ATOM     22  S   UNL     1       4.197   3.320  18.468  0.00  0.00    +0.000 S 
ATOM     23  O   UNL     1       3.690   2.160  17.766  0.00  0.00    +0.000 OA
ATOM     24  O   UNL     1       5.023   3.176  19.649  0.00  0.00    +0.000 OA
BRANCH  22  25
ATOM     25  N   UNL     1       2.881   4.300  18.875  0.00  0.00    +0.000 NA
ATOM     26  C   UNL     1       2.960   5.198  20.036  0.00  0.00    +0.000 C 
ATOM     27  C   UNL     1       2.031   4.562  21.050  0.00  0.00    +0.000 C 
ATOM     28  C   UNL     1       0.911   3.975  20.204  0.00  0.00    +0.000 C 
ATOM     29  C   UNL     1       1.511   3.750  18.815  0.00  0.00    +0.000 C 
ENDBRANCH  22  25
ENDBRANCH  20  22
ENDBRANCH   3  16
TORSDOF 4
ENDMDL
MODEL 3
REMARK VINA RESULT:      -8.7      0.767      1.275
REMARK  Name = 
REMARK  4 active torsions:
REMARK  status: ('A' for Active; 'I' for Inactive)
REMARK    1  A    between atoms: C_2  and  C_18
REMARK    2  A    between atoms: N_3  and  C_4
REMARK    3  A    between atoms: C_8  and  S_9
REMARK    4  A    between atoms: S_9  and  N_12
REMARK                            x       y       z     vdW  Elec       q    Type
REMARK                         _______ _______ _______ _____ _____    ______ ____
ROOT
ATOM      1  O   UNL     1       8.417   6.930  18.930  0.00  0.00    +0.000 OA
ATOM      2  C   UNL     1       7.937   7.821  18.236  0.00  0.00    +0.000 C 
ATOM      3  N   UNL     1       6.947   7.654  17.282  0.00  0.00    +0.000 N 
ATOM      4  H   UNL     1       6.794   8.434  16.655  0.00  0.00    +0.000 HD
ENDROOT
BRANCH   2   5
ATOM      5  C   UNL     1       8.458   9.168  18.332  0.00  0.00    +0.000 A 
ATOM      6  C   UNL     1       9.407   9.752  19.144  0.00  0.00    +0.000 A 
ATOM      7  C   UNL     1       9.410  11.151  18.893  0.00  0.00    +0.000 A 
ATOM      8  C   UNL     1      10.087  12.240  19.461  0.00  0.00    +0.000 A 
ATOM      9  C   UNL     1       9.783  13.522  19.007  0.00  0.00    +0.000 A 
ATOM     10  F   UNL     1      10.386  14.574  19.578  0.00  0.00    +0.000 F 
ATOM     11  C   UNL     1       8.854  13.742  17.996  0.00  0.00    +0.000 A 
ATOM     12  C   UNL     1       8.197  12.667  17.389  0.00  0.00    +0.000 A 
ATOM     13  C   UNL     1       8.489  11.390  17.871  0.00  0.00    +0.000 A 
ATOM     14  N   UNL     1       7.984  10.165  17.503  0.00  0.00    +0.000 N 
ATOM     15  H   UNL     1       7.291  10.009  16.780  0.00  0.00    +0.000 HD
ENDBRANCH   2   5
BRANCH   3  16
ATOM     16  C   UNL     1       6.312   6.441  16.940  0.00  0.00    +0.000 A 
ATOM     17  C   UNL     1       6.854   5.547  16.017  0.00  0.00    +0.000 A 
ATOM     18  C   UNL     1       6.115   4.461  15.554  0.00  0.00    +0.000 A 
ATOM     19  C   UNL     1       4.845   4.215  16.068  0.00  0.00    +0.000 A 
ATOM     20  C   UNL     1       4.360   5.013  17.110  0.00  0.00    +0.000 A 
ATOM     21  C   UNL     1       5.072   6.146  17.527  0.00  0.00    +0.000 A 
BRANCH  20  22
ATOM     22  S   UNL     1       2.758   4.645  17.812  0.00  0.00    +0.000 S 
ATOM     23  O   UNL     1       2.080   5.908  18.008  0.00  0.00    +0.000 OA
ATOM     24  O   UNL     1       2.169   3.598  17.001  0.00  0.00    +0.000 OA
BRANCH  22  25
ATOM     25  N   UNL     1       3.094   3.991  19.334  0.00  0.00    +0.000 NA
ATOM     26  C   UNL     1       2.996   2.541  19.554  0.00  0.00    +0.000 C 
ATOM     27  C   UNL     1       1.765   2.389  20.424  0.00  0.00    +0.000 C 
ATOM     28  C   UNL     1       1.789   3.623  21.313  0.00  0.00    +0.000 C 
ATOM     29  C   UNL     1       2.600   4.671  20.549  0.00  0.00    +0.000 C 
ENDBRANCH  22  25
ENDBRANCH  20  22
ENDBRANCH   3  16
TORSDOF 4
ENDMDL
MODEL 4
REMARK VINA RESULT:      -8.6      5.239      7.619
REMARK  Name = 
REMARK  4 active torsions:
REMARK  status: ('A' for Active; 'I' for Inactive)
REMARK    1  A    between atoms: C_2  and  C_18
REMARK    2  A    between atoms: N_3  and  C_4
REMARK    3  A    between atoms: C_8  and  S_9
REMARK    4  A    between atoms: S_9  and  N_12
REMARK                            x       y       z     vdW  Elec       q    Type
REMARK                         _______ _______ _______ _____ _____    ______ ____
ROOT
ATOM      1  O   UNL     1       2.035   8.550  17.622  0.00  0.00    +0.000 OA
ATOM      2  C   UNL     1       1.899   8.155  18.776  0.00  0.00    +0.000 C 
ATOM      3  N   UNL     1       2.260   6.903  19.246  0.00  0.00    +0.000 N 
ATOM      4  H   UNL     1       1.907   6.652  20.162  0.00  0.00    +0.000 HD
ENDROOT
BRANCH   2   5
ATOM      5  C   UNL     1       1.251   9.002  19.754  0.00  0.00    +0.000 A 
ATOM      6  C   UNL     1       0.908   8.816  21.077  0.00  0.00    +0.000 A 
ATOM      7  C   UNL     1       0.156   9.943  21.505  0.00  0.00    +0.000 A 
ATOM      8  C   UNL     1      -0.513  10.272  22.694  0.00  0.00    +0.000 A 
ATOM      9  C   UNL     1      -1.235  11.463  22.742  0.00  0.00    +0.000 A 
ATOM     10  F   UNL     1      -1.920  11.762  23.855  0.00  0.00    +0.000 F 
ATOM     11  C   UNL     1      -1.285  12.337  21.663  0.00  0.00    +0.000 A 
ATOM     12  C   UNL     1      -0.592  12.047  20.483  0.00  0.00    +0.000 A 
ATOM     13  C   UNL     1       0.104  10.838  20.435  0.00  0.00    +0.000 A 
ATOM     14  N   UNL     1       0.837  10.275  19.416  0.00  0.00    +0.000 N 
ATOM     15  H   UNL     1       0.988  10.688  18.503  0.00  0.00    +0.000 HD
ENDBRANCH   2   5
BRANCH   3  16
ATOM     16  C   UNL     1       2.848   5.865  18.494  0.00  0.00    +0.000 A 
ATOM     17  C   UNL     1       2.578   4.519  18.737  0.00  0.00    +0.000 A 
ATOM     18  C   UNL     1       3.318   3.517  18.115  0.00  0.00    +0.000 A 
ATOM     19  C   UNL     1       4.295   3.852  17.181  0.00  0.00    +0.000 A 
ATOM     20  C   UNL     1       4.461   5.192  16.813  0.00  0.00    +0.000 A 
ATOM     21  C   UNL     1       3.766   6.205  17.488  0.00  0.00    +0.000 A 
BRANCH  20  22
ATOM     22  S   UNL     1       5.669   5.605  15.562  0.00  0.00    +0.000 S 
ATOM     23  O   UNL     1       5.774   4.463  14.680  0.00  0.00    +0.000 OA
ATOM     24  O   UNL     1       5.321   6.915  15.051  0.00  0.00    +0.000 OA
BRANCH  22  25
ATOM     25  N   UNL     1       7.128   5.750  16.404  0.00  0.00    +0.000 NA
ATOM     26  C   UNL     1       7.656   4.611  17.169  0.00  0.00    +0.000 C 
ATOM     27  C   UNL     1       7.475   5.030  18.613  0.00  0.00    +0.000 C 
ATOM     28  C   UNL     1       7.717   6.532  18.593  0.00  0.00    +0.000 C 
ATOM     29  C   UNL     1       7.417   6.983  17.163  0.00  0.00    +0.000 C 
ENDBRANCH  22  25
ENDBRANCH  20  22
ENDBRANCH   3  16
TORSDOF 4
ENDMDL
MODEL 5
REMARK VINA RESULT:      -8.5      5.436      7.960
REMARK  Name = 
REMARK  4 active torsions:
REMARK  status: ('A' for Active; 'I' for Inactive)
REMARK    1  A    between atoms: C_2  and  C_18
REMARK    2  A    between atoms: N_3  and  C_4
REMARK    3  A    between atoms: C_8  and  S_9
REMARK    4  A    between atoms: S_9  and  N_12
REMARK                            x       y       z     vdW  Elec       q    Type
REMARK                         _______ _______ _______ _____ _____    ______ ____
ROOT
ATOM      1  O   UNL     1       1.967   8.176  18.191  0.00  0.00    +0.000 OA
ATOM      2  C   UNL     1       1.935   7.977  19.402  0.00  0.00    +0.000 C 
ATOM      3  N   UNL     1       2.528   6.911  20.059  0.00  0.00    +0.000 N 
ATOM      4  H   UNL     1       2.252   6.771  21.023  0.00  0.00    +0.000 HD
ENDROOT
BRANCH   2   5
ATOM      5  C   UNL     1       1.173   8.861  20.257  0.00  0.00    +0.000 A 
ATOM      6  C   UNL     1       0.802   8.795  21.584  0.00  0.00    +0.000 A 
ATOM      7  C   UNL     1      -0.072   9.883  21.857  0.00  0.00    +0.000 A 
ATOM      8  C   UNL     1      -0.813  10.277  22.981  0.00  0.00    +0.000 A 
ATOM      9  C   UNL     1      -1.649  11.386  22.871  0.00  0.00    +0.000 A 
ATOM     10  F   UNL     1      -2.400  11.741  23.923  0.00  0.00    +0.000 F 
ATOM     11  C   UNL     1      -1.744  12.120  21.694  0.00  0.00    +0.000 A 
ATOM     12  C   UNL     1      -0.983  11.768  20.574  0.00  0.00    +0.000 A 
ATOM     13  C   UNL     1      -0.172  10.638  20.687  0.00  0.00    +0.000 A 
ATOM     14  N   UNL     1       0.649  10.038  19.761  0.00  0.00    +0.000 N 
ATOM     15  H   UNL     1       0.792  10.357  18.809  0.00  0.00    +0.000 HD
ENDBRANCH   2   5
BRANCH   3  16
ATOM     16  C   UNL     1       3.273   5.871  19.462  0.00  0.00    +0.000 A 
ATOM     17  C   UNL     1       2.828   4.550  19.439  0.00  0.00    +0.000 A 
ATOM     18  C   UNL     1       3.668   3.520  19.023  0.00  0.00    +0.000 A 
ATOM     19  C   UNL     1       4.945   3.812  18.553  0.00  0.00    +0.000 A 
ATOM     20  C   UNL     1       5.339   5.147  18.421  0.00  0.00    +0.000 A 
ATOM     21  C   UNL     1       4.524   6.180  18.905  0.00  0.00    +0.000 A 
BRANCH  20  22
ATOM     22  S   UNL     1       6.956   5.513  17.751  0.00  0.00    +0.000 S 
ATOM     23  O   UNL     1       7.344   6.810  18.262  0.00  0.00    +0.000 OA
ATOM     24  O   UNL     1       7.782   4.344  17.972  0.00  0.00    +0.000 OA
BRANCH  22  25
ATOM     25  N   UNL     1       6.707   5.662  16.085  0.00  0.00    +0.000 NA
ATOM     26  C   UNL     1       5.364   5.947  15.561  0.00  0.00    +0.000 C 
ATOM     27  C   UNL     1       4.950   4.649  14.899  0.00  0.00    +0.000 C 
ATOM     28  C   UNL     1       6.247   4.100  14.324  0.00  0.00    +0.000 C 
ATOM     29  C   UNL     1       7.368   4.721  15.158  0.00  0.00    +0.000 C 
ENDBRANCH  22  25
ENDBRANCH  20  22
ENDBRANCH   3  16
TORSDOF 4
ENDMDL
MODEL 6
REMARK VINA RESULT:      -8.5      4.905      7.357
REMARK  Name = 
REMARK  4 active torsions:
REMARK  status: ('A' for Active; 'I' for Inactive)
REMARK    1  A    between atoms: C_2  and  C_18
REMARK    2  A    between atoms: N_3  and  C_4
REMARK    3  A    between atoms: C_8  and  S_9
REMARK    4  A    between atoms: S_9  and  N_12
REMARK                            x       y       z     vdW  Elec       q    Type
REMARK                         _______ _______ _______ _____ _____    ______ ____
ROOT
ATOM      1  O   UNL     1       2.553   8.444  17.496  0.00  0.00    +0.000 OA
ATOM      2  C   UNL     1       2.132   8.014  18.567  0.00  0.00    +0.000 C 
ATOM      3  N   UNL     1       2.263   6.712  19.019  0.00  0.00    +0.000 N 
ATOM      4  H   UNL     1       1.698   6.458  19.820  0.00  0.00    +0.000 HD
ENDROOT
BRANCH   2   5
ATOM      5  C   UNL     1       1.368   8.880  19.439  0.00  0.00    +0.000 A 
ATOM      6  C   UNL     1       1.058  10.223  19.392  0.00  0.00    +0.000 A 
ATOM      7  C   UNL     1       0.394  10.570  20.600  0.00  0.00    +0.000 A 
ATOM      8  C   UNL     1      -0.075  11.777  21.141  0.00  0.00    +0.000 A 
ATOM      9  C   UNL     1      -0.624  11.762  22.422  0.00  0.00    +0.000 A 
ATOM     10  F   UNL     1      -1.028  12.917  22.969  0.00  0.00    +0.000 F 
ATOM     11  C   UNL     1      -0.743  10.588  23.156  0.00  0.00    +0.000 A 
ATOM     12  C   UNL     1      -0.319   9.368  22.620  0.00  0.00    +0.000 A 
ATOM     13  C   UNL     1       0.256   9.399  21.348  0.00  0.00    +0.000 A 
ATOM     14  N   UNL     1       0.787   8.383  20.588  0.00  0.00    +0.000 N 
ATOM     15  H   UNL     1       0.833   7.408  20.862  0.00  0.00    +0.000 HD
ENDBRANCH   2   5
BRANCH   3  16
ATOM     16  C   UNL     1       2.902   5.652  18.342  0.00  0.00    +0.000 A 
ATOM     17  C   UNL     1       2.612   4.313  18.604  0.00  0.00    +0.000 A 
ATOM     18  C   UNL     1       3.393   3.294  18.066  0.00  0.00    +0.000 A 
ATOM     19  C   UNL     1       4.435   3.602  17.196  0.00  0.00    +0.000 A 
ATOM     20  C   UNL     1       4.629   4.930  16.802  0.00  0.00    +0.000 A 
ATOM     21  C   UNL     1       3.891   5.963  17.395  0.00  0.00    +0.000 A 
BRANCH  20  22
ATOM     22  S   UNL     1       5.925   5.306  15.629  0.00  0.00    +0.000 S 
ATOM     23  O   UNL     1       6.156   4.107  14.853  0.00  0.00    +0.000 OA
ATOM     24  O   UNL     1       5.569   6.555  14.987  0.00  0.00    +0.000 OA
BRANCH  22  25
ATOM     25  N   UNL     1       7.297   5.586  16.577  0.00  0.00    +0.000 NA
ATOM     26  C   UNL     1       7.693   4.615  17.608  0.00  0.00    +0.000 C 
ATOM     27  C   UNL     1       7.385   5.325  18.910  0.00  0.00    +0.000 C 
ATOM     28  C   UNL     1       7.695   6.785  18.616  0.00  0.00    +0.000 C 
ATOM     29  C   UNL     1       7.562   6.942  17.100  0.00  0.00    +0.000 C 
ENDBRANCH  22  25
ENDBRANCH  20  22
ENDBRANCH   3  16
TORSDOF 4
ENDMDL
MODEL 7
REMARK VINA RESULT:      -8.3      1.536      2.149
REMARK  Name = 
REMARK  4 active torsions:
REMARK  status: ('A' for Active; 'I' for Inactive)
REMARK    1  A    between atoms: C_2  and  C_18
REMARK    2  A    between atoms: N_3  and  C_4
REMARK    3  A    between atoms: C_8  and  S_9
REMARK    4  A    between atoms: S_9  and  N_12
REMARK                            x       y       z     vdW  Elec       q    Type
REMARK                         _______ _______ _______ _____ _____    ______ ____
ROOT
ATOM      1  O   UNL     1       8.288   6.768  18.894  0.00  0.00    +0.000 OA
ATOM      2  C   UNL     1       7.875   7.644  18.139  0.00  0.00    +0.000 C 
ATOM      3  N   UNL     1       6.991   7.451  17.090  0.00  0.00    +0.000 N 
ATOM      4  H   UNL     1       6.898   8.219  16.437  0.00  0.00    +0.000 HD
ENDROOT
BRANCH   2   5
ATOM      5  C   UNL     1       8.372   8.996  18.266  0.00  0.00    +0.000 A 
ATOM      6  C   UNL     1       9.292   9.584  19.109  0.00  0.00    +0.000 A 
ATOM      7  C   UNL     1       9.279  10.986  18.876  0.00  0.00    +0.000 A 
ATOM      8  C   UNL     1       9.925  12.078  19.474  0.00  0.00    +0.000 A 
ATOM      9  C   UNL     1       9.612  13.361  19.029  0.00  0.00    +0.000 A 
ATOM     10  F   UNL     1      10.185  14.415  19.628  0.00  0.00    +0.000 F 
ATOM     11  C   UNL     1       8.707  13.580  17.997  0.00  0.00    +0.000 A 
ATOM     12  C   UNL     1       8.083  12.503  17.359  0.00  0.00    +0.000 A 
ATOM     13  C   UNL     1       8.381  11.224  17.834  0.00  0.00    +0.000 A 
ATOM     14  N   UNL     1       7.905   9.997  17.436  0.00  0.00    +0.000 N 
ATOM     15  H   UNL     1       7.233   9.840  16.694  0.00  0.00    +0.000 HD
ENDBRANCH   2   5
BRANCH   3  16
ATOM     16  C   UNL     1       6.405   6.227  16.705  0.00  0.00    +0.000 A 
ATOM     17  C   UNL     1       6.409   5.778  15.385  0.00  0.00    +0.000 A 
ATOM     18  C   UNL     1       5.656   4.670  15.004  0.00  0.00    +0.000 A 
ATOM     19  C   UNL     1       4.944   3.951  15.960  0.00  0.00    +0.000 A 
ATOM     20  C   UNL     1       5.066   4.298  17.310  0.00  0.00    +0.000 A 
ATOM     21  C   UNL     1       5.765   5.453  17.686  0.00  0.00    +0.000 A 
BRANCH  20  22
ATOM     22  S   UNL     1       4.204   3.325  18.537  0.00  0.00    +0.000 S 
ATOM     23  O   UNL     1       3.723   2.134  17.873  0.00  0.00    +0.000 OA
ATOM     24  O   UNL     1       5.070   3.237  19.695  0.00  0.00    +0.000 OA
BRANCH  22  25
ATOM     25  N   UNL     1       2.863   4.261  18.966  0.00  0.00    +0.000 NA
ATOM     26  C   UNL     1       2.057   4.917  17.926  0.00  0.00    +0.000 C 
ATOM     27  C   UNL     1       2.382   6.388  18.090  0.00  0.00    +0.000 C 
ATOM     28  C   UNL     1       2.567   6.558  19.590  0.00  0.00    +0.000 C 
ATOM     29  C   UNL     1       2.947   5.176  20.123  0.00  0.00    +0.000 C 
ENDBRANCH  22  25
ENDBRANCH  20  22
ENDBRANCH   3  16
TORSDOF 4
ENDMDL
MODEL 8
REMARK VINA RESULT:      -8.3      4.911      7.419
REMARK  Name = 
REMARK  4 active torsions:
REMARK  status: ('A' for Active; 'I' for Inactive)
REMARK    1  A    between atoms: C_2  and  C_18
REMARK    2  A    between atoms: N_3  and  C_4
REMARK    3  A    between atoms: C_8  and  S_9
REMARK    4  A    between atoms: S_9  and  N_12
REMARK                            x       y       z     vdW  Elec       q    Type
REMARK                         _______ _______ _______ _____ _____    ______ ____
ROOT
ATOM      1  O   UNL     1       2.206   5.847  21.066  0.00  0.00    +0.000 OA
ATOM      2  C   UNL     1       1.986   6.736  20.248  0.00  0.00    +0.000 C 
ATOM      3  N   UNL     1       2.298   6.684  18.900  0.00  0.00    +0.000 N 
ATOM      4  H   UNL     1       2.241   7.560  18.394  0.00  0.00    +0.000 HD
ENDROOT
BRANCH   2   5
ATOM      5  C   UNL     1       1.416   7.991  20.687  0.00  0.00    +0.000 A 
ATOM      6  C   UNL     1       0.970   8.443  21.911  0.00  0.00    +0.000 A 
ATOM      7  C   UNL     1       0.372   9.720  21.724  0.00  0.00    +0.000 A 
ATOM      8  C   UNL     1      -0.310  10.608  22.568  0.00  0.00    +0.000 A 
ATOM      9  C   UNL     1      -0.844  11.771  22.018  0.00  0.00    +0.000 A 
ATOM     10  F   UNL     1      -1.542  12.602  22.805  0.00  0.00    +0.000 F 
ATOM     11  C   UNL     1      -0.695  12.082  20.671  0.00  0.00    +0.000 A 
ATOM     12  C   UNL     1       0.017  11.231  19.820  0.00  0.00    +0.000 A 
ATOM     13  C   UNL     1       0.522  10.054  20.376  0.00  0.00    +0.000 A 
ATOM     14  N   UNL     1       1.222   9.024  19.792  0.00  0.00    +0.000 N 
ATOM     15  H   UNL     1       1.488   8.976  18.815  0.00  0.00    +0.000 HD
ENDBRANCH   2   5
BRANCH   3  16
ATOM     16  C   UNL     1       2.915   5.610  18.224  0.00  0.00    +0.000 A 
ATOM     17  C   UNL     1       2.571   4.280  18.461  0.00  0.00    +0.000 A 
ATOM     18  C   UNL     1       3.329   3.239  17.929  0.00  0.00    +0.000 A 
ATOM     19  C   UNL     1       4.403   3.521  17.090  0.00  0.00    +0.000 A 
ATOM     20  C   UNL     1       4.655   4.846  16.719  0.00  0.00    +0.000 A 
ATOM     21  C   UNL     1       3.939   5.897  17.308  0.00  0.00    +0.000 A 
BRANCH  20  22
ATOM     22  S   UNL     1       5.994   5.190  15.585  0.00  0.00    +0.000 S 
ATOM     23  O   UNL     1       6.261   3.966  14.860  0.00  0.00    +0.000 OA
ATOM     24  O   UNL     1       5.657   6.413  14.887  0.00  0.00    +0.000 OA
BRANCH  22  25
ATOM     25  N   UNL     1       7.326   5.510  16.576  0.00  0.00    +0.000 NA
ATOM     26  C   UNL     1       7.656   4.605  17.686  0.00  0.00    +0.000 C 
ATOM     27  C   UNL     1       7.303   5.405  18.923  0.00  0.00    +0.000 C 
ATOM     28  C   UNL     1       7.654   6.837  18.547  0.00  0.00    +0.000 C 
ATOM     29  C   UNL     1       7.593   6.894  17.020  0.00  0.00    +0.000 C 
ENDBRANCH  22  25
ENDBRANCH  20  22
ENDBRANCH   3  16
TORSDOF 4
ENDMDL
MODEL 9
REMARK VINA RESULT:      -8.2      5.368      7.358
REMARK  Name = 
REMARK  4 active torsions:
REMARK  status: ('A' for Active; 'I' for Inactive)
REMARK    1  A    between atoms: C_2  and  C_18
REMARK    2  A    between atoms: N_3  and  C_4
REMARK    3  A    between atoms: C_8  and  S_9
REMARK    4  A    between atoms: S_9  and  N_12
REMARK                            x       y       z     vdW  Elec       q    Type
REMARK                         _______ _______ _______ _____ _____    ______ ____
ROOT
ATOM      1  O   UNL     1       1.629   8.878  17.321  0.00  0.00    +0.000 OA
ATOM      2  C   UNL     1       1.703   8.827  18.545  0.00  0.00    +0.000 C 
ATOM      3  N   UNL     1       2.255   7.787  19.275  0.00  0.00    +0.000 N 
ATOM      4  H   UNL     1       2.067   7.792  20.271  0.00  0.00    +0.000 HD
ENDROOT
BRANCH   2   5
ATOM      5  C   UNL     1       1.121   9.882  19.345  0.00  0.00    +0.000 A 
ATOM      6  C   UNL     1       1.287  11.251  19.358  0.00  0.00    +0.000 A 
ATOM      7  C   UNL     1       0.562  11.777  20.463  0.00  0.00    +0.000 A 
ATOM      8  C   UNL     1       0.427  13.060  21.016  0.00  0.00    +0.000 A 
ATOM      9  C   UNL     1      -0.324  13.205  22.181  0.00  0.00    +0.000 A 
ATOM     10  F   UNL     1      -0.417  14.417  22.746  0.00  0.00    +0.000 F 
ATOM     11  C   UNL     1      -0.959  12.127  22.785  0.00  0.00    +0.000 A 
ATOM     12  C   UNL     1      -0.871  10.847  22.227  0.00  0.00    +0.000 A 
ATOM     13  C   UNL     1      -0.091  10.707  21.077  0.00  0.00    +0.000 A 
ATOM     14  N   UNL     1       0.205   9.588  20.336  0.00  0.00    +0.000 N 
ATOM     15  H   UNL     1      -0.126   8.650  20.531  0.00  0.00    +0.000 HD
ENDBRANCH   2   5
BRANCH   3  16
ATOM     16  C   UNL     1       2.831   6.611  18.752  0.00  0.00    +0.000 A 
ATOM     17  C   UNL     1       2.613   5.355  19.317  0.00  0.00    +0.000 A 
ATOM     18  C   UNL     1       3.348   4.247  18.901  0.00  0.00    +0.000 A 
ATOM     19  C   UNL     1       4.262   4.370  17.859  0.00  0.00    +0.000 A 
ATOM     20  C   UNL     1       4.368   5.588  17.180  0.00  0.00    +0.000 A 
ATOM     21  C   UNL     1       3.683   6.721  17.641  0.00  0.00    +0.000 A 
BRANCH  20  22
ATOM     22  S   UNL     1       5.494   5.715  15.797  0.00  0.00    +0.000 S 
ATOM     23  O   UNL     1       5.434   4.459  15.083  0.00  0.00    +0.000 OA
ATOM     24  O   UNL     1       5.208   6.969  15.129  0.00  0.00    +0.000 OA
BRANCH  22  25
ATOM     25  N   UNL     1       7.027   5.843  16.500  0.00  0.00    +0.000 NA
ATOM     26  C   UNL     1       7.612   4.696  17.209  0.00  0.00    +0.000 C 
ATOM     27  C   UNL     1       7.570   5.112  18.666  0.00  0.00    +0.000 C 
ATOM     28  C   UNL     1       7.825   6.611  18.627  0.00  0.00    +0.000 C 
ATOM     29  C   UNL     1       7.398   7.071  17.232  0.00  0.00    +0.000 C 
ENDBRANCH  22  25
ENDBRANCH  20  22
ENDBRANCH   3  16
TORSDOF 4
ENDMDL
