MODEL 1
REMARK VINA RESULT:      -8.2      0.000      0.000
REMARK  Name = 
REMARK  4 active torsions:
REMARK  status: ('A' for Active; 'I' for Inactive)
REMARK    1  A    between atoms: C_1  and  C_2
REMARK    2  A    between atoms: C_6  and  C_7
REMARK    3  A    between atoms: N_9  and  C_10
REMARK    4  A    between atoms: C_13  and  C_14
REMARK                            x       y       z     vdW  Elec       q    Type
REMARK                         _______ _______ _______ _____ _____    ______ ____
ROOT
ATOM      1  C   UNL     1       0.450   9.738  19.906  0.00  0.00    +0.000 A 
ATOM      2  C   UNL     1       0.830   9.811  18.565  0.00  0.00    +0.000 A 
ATOM      3  C   UNL     1       1.690   8.856  18.008  0.00  0.00    +0.000 A 
ATOM      4  C   UNL     1       2.202   7.800  18.771  0.00  0.00    +0.000 A 
ATOM      5  C   UNL     1       1.873   7.767  20.132  0.00  0.00    +0.000 A 
ATOM      6  C   UNL     1       1.009   8.727  20.693  0.00  0.00    +0.000 A 
ENDROOT
BRANCH   4   7
ATOM      7  C   UNL     1       3.111   6.846  18.123  0.00  0.00    +0.000 A 
ATOM      8  N   UNL     1       4.148   7.207  17.381  0.00  0.00    +0.000 NA
ATOM      9  N   UNL     1       4.765   6.086  16.886  0.00  0.00    +0.000 NA
ATOM     10  C   UNL     1       4.090   5.046  17.308  0.00  0.00    +0.000 A 
ATOM     11  N   UNL     1       3.042   5.472  18.090  0.00  0.00    +0.000 N 
ATOM     12  C   UNL     1       2.018   4.579  18.587  0.00  0.00    +0.000 C 
ATOM     13  C   UNL     1       2.452   3.108  18.570  0.00  0.00    +0.000 C 
ATOM     14  C   UNL     1       3.132   2.746  17.250  0.00  0.00    +0.000 C 
ATOM     15  C   UNL     1       4.373   3.612  17.036  0.00  0.00    +0.000 C 
ENDBRANCH   4   7
BRANCH   1  18
ATOM     16  C   UNL     1      -0.106  11.717  21.312  0.00  0.00    +0.000 C 
ATOM     17  O   UNL     1       1.044  12.059  21.554  0.00  0.00    +0.000 OA
ATOM     18  N   UNL     1      -0.463  10.641  20.505  0.00  0.00    +0.000 N 
ATOM     19  H   UNL     1      -1.435  10.560  20.226  0.00  0.00    +0.000 HD
BRANCH  16  25
ATOM     20  C   UNL     1      -4.315  14.850  23.809  0.00  0.00    +0.000 C 
ATOM     21  C   UNL     1      -3.228  14.067  23.137  0.00  0.00    +0.000 A 
ATOM     22  C   UNL     1      -2.494  14.589  22.065  0.00  0.00    +0.000 A 
ATOM     23  C   UNL     1      -1.492  13.827  21.451  0.00  0.00    +0.000 A 
ATOM     24  F   UNL     1      -0.814  14.377  20.431  0.00  0.00    +0.000 F 
ATOM     25  C   UNL     1      -1.195  12.539  21.889  0.00  0.00    +0.000 A 
ATOM     26  C   UNL     1      -1.929  12.028  22.965  0.00  0.00    +0.000 A 
ATOM     27  F   UNL     1      -1.719  10.788  23.429  0.00  0.00    +0.000 F 
ATOM     28  C   UNL     1      -2.931  12.776  23.582  0.00  0.00    +0.000 A 
ENDBRANCH  16  25
ENDBRANCH   1  18
TORSDOF 3
ENDMDL
MODEL 2
REMARK VINA RESULT:      -8.2      1.559      2.753
REMARK  Name = 
REMARK  4 active torsions:
REMARK  status: ('A' for Active; 'I' for Inactive)
REMARK    1  A    between atoms: C_1  and  C_2
REMARK    2  A    between atoms: C_6  and  C_7
REMARK    3  A    between atoms: N_9  and  C_10
REMARK    4  A    between atoms: C_13  and  C_14
REMARK                            x       y       z     vdW  Elec       q    Type
REMARK                         _______ _______ _______ _____ _____    ______ ____
ROOT
ATOM      1  C   UNL     1       1.306   8.968  19.625  0.00  0.00    +0.000 A 
ATOM      2  C   UNL     1       1.803   9.048  18.324  0.00  0.00    +0.000 A 
ATOM      3  C   UNL     1       2.485   7.970  17.747  0.00  0.00    +0.000 A 
ATOM      4  C   UNL     1       2.699   6.779  18.452  0.00  0.00    +0.000 A 
ATOM      5  C   UNL     1       2.258   6.726  19.779  0.00  0.00    +0.000 A 
ATOM      6  C   UNL     1       1.571   7.810  20.361  0.00  0.00    +0.000 A 
ENDROOT
BRANCH   4   7
ATOM      7  C   UNL     1       3.437   5.698  17.788  0.00  0.00    +0.000 A 
ATOM      8  N   UNL     1       2.902   4.527  17.473  0.00  0.00    +0.000 NA
ATOM      9  N   UNL     1       3.860   3.725  16.907  0.00  0.00    +0.000 NA
ATOM     10  C   UNL     1       4.984   4.400  16.899  0.00  0.00    +0.000 A 
ATOM     11  N   UNL     1       4.768   5.645  17.441  0.00  0.00    +0.000 N 
ATOM     12  C   UNL     1       5.839   6.579  17.714  0.00  0.00    +0.000 C 
ATOM     13  C   UNL     1       7.119   6.263  16.932  0.00  0.00    +0.000 C 
ATOM     14  C   UNL     1       7.446   4.771  16.986  0.00  0.00    +0.000 C 
ATOM     15  C   UNL     1       6.304   3.954  16.383  0.00  0.00    +0.000 C 
ENDBRANCH   4   7
BRANCH   1  18
ATOM     16  C   UNL     1       0.712  10.434  21.550  0.00  0.00    +0.000 C 
ATOM     17  O   UNL     1       1.561  10.015  22.326  0.00  0.00    +0.000 OA
ATOM     18  N   UNL     1       0.556  10.005  20.235  0.00  0.00    +0.000 N 
ATOM     19  H   UNL     1      -0.053  10.544  19.630  0.00  0.00    +0.000 HD
BRANCH  16  25
ATOM     20  C   UNL     1      -2.800  14.749  23.228  0.00  0.00    +0.000 C 
ATOM     21  C   UNL     1      -1.908  13.614  22.822  0.00  0.00    +0.000 A 
ATOM     22  C   UNL     1      -2.099  12.313  23.305  0.00  0.00    +0.000 A 
ATOM     23  C   UNL     1      -1.242  11.277  22.915  0.00  0.00    +0.000 A 
ATOM     24  F   UNL     1      -1.473  10.048  23.401  0.00  0.00    +0.000 F 
ATOM     25  C   UNL     1      -0.185  11.507  22.038  0.00  0.00    +0.000 A 
ATOM     26  C   UNL     1      -0.006  12.808  21.556  0.00  0.00    +0.000 A 
ATOM     27  F   UNL     1       1.003  13.115  20.728  0.00  0.00    +0.000 F 
ATOM     28  C   UNL     1      -0.851  13.849  21.940  0.00  0.00    +0.000 A 
ENDBRANCH  16  25
ENDBRANCH   1  18
TORSDOF 3
ENDMDL
MODEL 3
REMARK VINA RESULT:      -8.1      1.544      2.249
REMARK  Name = 
REMARK  4 active torsions:
REMARK  status: ('A' for Active; 'I' for Inactive)
REMARK    1  A    between atoms: C_1  and  C_2
REMARK    2  A    between atoms: C_6  and  C_7
REMARK    3  A    between atoms: N_9  and  C_10
REMARK    4  A    between atoms: C_13  and  C_14
REMARK                            x       y       z     vdW  Elec       q    Type
REMARK                         _______ _______ _______ _____ _____    ______ ____
ROOT
ATOM      1  C   UNL     1       1.298   9.051  19.592  0.00  0.00    +0.000 A 
ATOM      2  C   UNL     1       1.741   9.090  18.270  0.00  0.00    +0.000 A 
ATOM      3  C   UNL     1       2.419   8.002  17.705  0.00  0.00    +0.000 A 
ATOM      4  C   UNL     1       2.681   6.842  18.443  0.00  0.00    +0.000 A 
ATOM      5  C   UNL     1       2.295   6.831  19.788  0.00  0.00    +0.000 A 
ATOM      6  C   UNL     1       1.614   7.924  20.358  0.00  0.00    +0.000 A 
ENDROOT
BRANCH   4   7
ATOM      7  C   UNL     1       3.411   5.749  17.789  0.00  0.00    +0.000 A 
ATOM      8  N   UNL     1       2.868   4.579  17.487  0.00  0.00    +0.000 NA
ATOM      9  N   UNL     1       3.820   3.765  16.928  0.00  0.00    +0.000 NA
ATOM     10  C   UNL     1       4.948   4.432  16.911  0.00  0.00    +0.000 A 
ATOM     11  N   UNL     1       4.741   5.684  17.441  0.00  0.00    +0.000 N 
ATOM     12  C   UNL     1       5.818   6.614  17.702  0.00  0.00    +0.000 C 
ATOM     13  C   UNL     1       7.095   6.281  16.921  0.00  0.00    +0.000 C 
ATOM     14  C   UNL     1       7.412   4.787  16.990  0.00  0.00    +0.000 C 
ATOM     15  C   UNL     1       6.264   3.971  16.398  0.00  0.00    +0.000 C 
ENDBRANCH   4   7
BRANCH   1  18
ATOM     16  C   UNL     1       0.675  10.497  21.522  0.00  0.00    +0.000 C 
ATOM     17  O   UNL     1       1.482  10.040  22.321  0.00  0.00    +0.000 OA
ATOM     18  N   UNL     1       0.556  10.097  20.194  0.00  0.00    +0.000 N 
ATOM     19  H   UNL     1      -0.016  10.664  19.577  0.00  0.00    +0.000 HD
BRANCH  16  25
ATOM     20  C   UNL     1      -2.797  14.659  23.619  0.00  0.00    +0.000 C 
ATOM     21  C   UNL     1      -1.888  13.609  23.052  0.00  0.00    +0.000 A 
ATOM     22  C   UNL     1      -0.881  13.921  22.132  0.00  0.00    +0.000 A 
ATOM     23  C   UNL     1      -0.056  12.916  21.612  0.00  0.00    +0.000 A 
ATOM     24  F   UNL     1       0.899  13.270  20.738  0.00  0.00    +0.000 F 
ATOM     25  C   UNL     1      -0.209  11.586  21.997  0.00  0.00    +0.000 A 
ATOM     26  C   UNL     1      -1.215  11.285  22.922  0.00  0.00    +0.000 A 
ATOM     27  F   UNL     1      -1.442  10.027  23.324  0.00  0.00    +0.000 F 
ATOM     28  C   UNL     1      -2.045  12.277  23.443  0.00  0.00    +0.000 A 
ENDBRANCH  16  25
ENDBRANCH   1  18
TORSDOF 3
ENDMDL
MODEL 4
REMARK VINA RESULT:      -8.1      1.571      2.275
REMARK  Name = 
REMARK  4 active torsions:
REMARK  status: ('A' for Active; 'I' for Inactive)
REMARK    1  A    between atoms: C_1  and  C_2
REMARK    2  A    between atoms: C_6  and  C_7
REMARK    3  A    between atoms: N_9  and  C_10
REMARK    4  A    between atoms: C_13  and  C_14
REMARK                            x       y       z     vdW  Elec       q    Type
REMARK                         _______ _______ _______ _____ _____    ______ ____
ROOT
ATOM      1  C   UNL     1       1.413   8.999  19.835  0.00  0.00    +0.000 A 
ATOM      2  C   UNL     1       1.813   9.067  18.500  0.00  0.00    +0.000 A 
ATOM      3  C   UNL     1       2.395   7.961  17.866  0.00  0.00    +0.000 A 
ATOM      4  C   UNL     1       2.600   6.755  18.546  0.00  0.00    +0.000 A 
ATOM      5  C   UNL     1       2.259   6.711  19.903  0.00  0.00    +0.000 A 
ATOM      6  C   UNL     1       1.674   7.822  20.541  0.00  0.00    +0.000 A 
ENDROOT
BRANCH   4   7
ATOM      7  C   UNL     1       3.231   5.644  17.821  0.00  0.00    +0.000 A 
ATOM      8  N   UNL     1       2.630   4.488  17.580  0.00  0.00    +0.000 NA
ATOM      9  N   UNL     1       3.498   3.651  16.926  0.00  0.00    +0.000 NA
ATOM     10  C   UNL     1       4.633   4.290  16.790  0.00  0.00    +0.000 A 
ATOM     11  N   UNL     1       4.515   5.547  17.335  0.00  0.00    +0.000 N 
ATOM     12  C   UNL     1       5.636   6.450  17.480  0.00  0.00    +0.000 C 
ATOM     13  C   UNL     1       6.815   6.086  16.570  0.00  0.00    +0.000 C 
ATOM     14  C   UNL     1       7.101   4.585  16.609  0.00  0.00    +0.000 C 
ATOM     15  C   UNL     1       5.877   3.798  16.142  0.00  0.00    +0.000 C 
ENDBRANCH   4   7
BRANCH   1  18
ATOM     16  C   UNL     1      -0.501  10.553  20.195  0.00  0.00    +0.000 C 
ATOM     17  O   UNL     1      -1.243  10.079  19.344  0.00  0.00    +0.000 OA
ATOM     18  N   UNL     1       0.765  10.067  20.506  0.00  0.00    +0.000 N 
ATOM     19  H   UNL     1       1.215  10.417  21.345  0.00  0.00    +0.000 HD
BRANCH  16  25
ATOM     20  C   UNL     1      -2.361  14.984  23.462  0.00  0.00    +0.000 C 
ATOM     21  C   UNL     1      -1.887  13.861  22.589  0.00  0.00    +0.000 A 
ATOM     22  C   UNL     1      -1.617  14.047  21.227  0.00  0.00    +0.000 A 
ATOM     23  C   UNL     1      -1.186  12.975  20.436  0.00  0.00    +0.000 A 
ATOM     24  F   UNL     1      -0.934  13.208  19.138  0.00  0.00    +0.000 F 
ATOM     25  C   UNL     1      -1.010  11.704  20.977  0.00  0.00    +0.000 A 
ATOM     26  C   UNL     1      -1.278  11.530  22.339  0.00  0.00    +0.000 A 
ATOM     27  F   UNL     1      -1.156  10.332  22.928  0.00  0.00    +0.000 F 
ATOM     28  C   UNL     1      -1.710  12.588  23.136  0.00  0.00    +0.000 A 
ENDBRANCH  16  25
ENDBRANCH   1  18
TORSDOF 3
ENDMDL
MODEL 5
REMARK VINA RESULT:      -8.1      1.564      2.745
REMARK  Name = 
REMARK  4 active torsions:
REMARK  status: ('A' for Active; 'I' for Inactive)
REMARK    1  A    between atoms: C_1  and  C_2
REMARK    2  A    between atoms: C_6  and  C_7
REMARK    3  A    between atoms: N_9  and  C_10
REMARK    4  A    between atoms: C_13  and  C_14
REMARK                            x       y       z     vdW  Elec       q    Type
REMARK                         _______ _______ _______ _____ _____    ______ ____
ROOT
ATOM      1  C   UNL     1       1.414   8.965  19.894  0.00  0.00    +0.000 A 
ATOM      2  C   UNL     1       1.810   9.049  18.558  0.00  0.00    +0.000 A 
ATOM      3  C   UNL     1       2.392   7.953  17.910  0.00  0.00    +0.000 A 
ATOM      4  C   UNL     1       2.603   6.739  18.575  0.00  0.00    +0.000 A 
ATOM      5  C   UNL     1       2.267   6.678  19.932  0.00  0.00    +0.000 A 
ATOM      6  C   UNL     1       1.682   7.780  20.585  0.00  0.00    +0.000 A 
ENDROOT
BRANCH   4   7
ATOM      7  C   UNL     1       3.234   5.639  17.835  0.00  0.00    +0.000 A 
ATOM      8  N   UNL     1       2.633   4.487  17.575  0.00  0.00    +0.000 NA
ATOM      9  N   UNL     1       3.501   3.659  16.910  0.00  0.00    +0.000 NA
ATOM     10  C   UNL     1       4.638   4.299  16.786  0.00  0.00    +0.000 A 
ATOM     11  N   UNL     1       4.519   5.547  17.350  0.00  0.00    +0.000 N 
ATOM     12  C   UNL     1       5.641   6.447  17.511  0.00  0.00    +0.000 C 
ATOM     13  C   UNL     1       6.822   6.095  16.598  0.00  0.00    +0.000 C 
ATOM     14  C   UNL     1       7.106   4.593  16.615  0.00  0.00    +0.000 C 
ATOM     15  C   UNL     1       5.882   3.815  16.134  0.00  0.00    +0.000 C 
ENDBRANCH   4   7
BRANCH   1  18
ATOM     16  C   UNL     1      -0.498  10.516  20.273  0.00  0.00    +0.000 C 
ATOM     17  O   UNL     1      -1.238  10.056  19.413  0.00  0.00    +0.000 OA
ATOM     18  N   UNL     1       0.766  10.023  20.580  0.00  0.00    +0.000 N 
ATOM     19  H   UNL     1       1.215  10.360  21.425  0.00  0.00    +0.000 HD
BRANCH  16  25
ATOM     20  C   UNL     1      -2.640  15.056  23.199  0.00  0.00    +0.000 C 
ATOM     21  C   UNL     1      -2.081  13.867  22.477  0.00  0.00    +0.000 A 
ATOM     22  C   UNL     1      -1.861  12.645  23.123  0.00  0.00    +0.000 A 
ATOM     23  C   UNL     1      -1.328  11.556  22.423  0.00  0.00    +0.000 A 
ATOM     24  F   UNL     1      -1.142  10.405  23.088  0.00  0.00    +0.000 F 
ATOM     25  C   UNL     1      -1.008  11.655  21.071  0.00  0.00    +0.000 A 
ATOM     26  C   UNL     1      -1.238  12.878  20.432  0.00  0.00    +0.000 A 
ATOM     27  F   UNL     1      -0.934  13.060  19.139  0.00  0.00    +0.000 F 
ATOM     28  C   UNL     1      -1.765  13.970  21.120  0.00  0.00    +0.000 A 
ENDBRANCH  16  25
ENDBRANCH   1  18
TORSDOF 3
ENDMDL
MODEL 6
REMARK VINA RESULT:      -8.0      0.501      1.049
REMARK  Name = 
REMARK  4 active torsions:
REMARK  status: ('A' for Active; 'I' for Inactive)
REMARK    1  A    between atoms: C_1  and  C_2
REMARK    2  A    between atoms: C_6  and  C_7
REMARK    3  A    between atoms: N_9  and  C_10
REMARK    4  A    between atoms: C_13  and  C_14
REMARK                            x       y       z     vdW  Elec       q    Type
REMARK                         _______ _______ _______ _____ _____    ______ ____
ROOT
ATOM      1  C   UNL     1       0.586   9.684  19.908  0.00  0.00    +0.000 A 
ATOM      2  C   UNL     1       1.095   8.610  20.638  0.00  0.00    +0.000 A 
ATOM      3  C   UNL     1       1.928   7.659  20.034  0.00  0.00    +0.000 A 
ATOM      4  C   UNL     1       2.275   7.748  18.680  0.00  0.00    +0.000 A 
ATOM      5  C   UNL     1       1.710   8.789  17.935  0.00  0.00    +0.000 A 
ATOM      6  C   UNL     1       0.872   9.745  18.541  0.00  0.00    +0.000 A 
ENDROOT
BRANCH   4   7
ATOM      7  C   UNL     1       3.139   6.706  18.112  0.00  0.00    +0.000 A 
ATOM      8  N   UNL     1       4.247   6.960  17.430  0.00  0.00    +0.000 NA
ATOM      9  N   UNL     1       4.798   5.780  17.000  0.00  0.00    +0.000 NA
ATOM     10  C   UNL     1       4.012   4.810  17.399  0.00  0.00    +0.000 A 
ATOM     11  N   UNL     1       2.957   5.342  18.102  0.00  0.00    +0.000 N 
ATOM     12  C   UNL     1       1.832   4.550  18.550  0.00  0.00    +0.000 C 
ATOM     13  C   UNL     1       2.141   3.048  18.593  0.00  0.00    +0.000 C 
ATOM     14  C   UNL     1       2.869   2.597  17.327  0.00  0.00    +0.000 C 
ATOM     15  C   UNL     1       4.190   3.351  17.175  0.00  0.00    +0.000 C 
ENDBRANCH   4   7
BRANCH   1  18
ATOM     16  C   UNL     1       0.284  11.830  21.136  0.00  0.00    +0.000 C 
ATOM     17  O   UNL     1       1.471  12.113  21.240  0.00  0.00    +0.000 OA
ATOM     18  N   UNL     1      -0.211  10.706  20.483  0.00  0.00    +0.000 N 
ATOM     19  H   UNL     1      -1.208  10.664  20.299  0.00  0.00    +0.000 HD
BRANCH  16  25
ATOM     20  C   UNL     1      -3.475  15.489  23.637  0.00  0.00    +0.000 C 
ATOM     21  C   UNL     1      -2.505  14.566  22.961  0.00  0.00    +0.000 A 
ATOM     22  C   UNL     1      -1.848  14.922  21.777  0.00  0.00    +0.000 A 
ATOM     23  C   UNL     1      -0.956  14.033  21.164  0.00  0.00    +0.000 A 
ATOM     24  F   UNL     1      -0.348  14.426  20.034  0.00  0.00    +0.000 F 
ATOM     25  C   UNL     1      -0.694  12.781  21.714  0.00  0.00    +0.000 A 
ATOM     26  C   UNL     1      -1.351  12.437  22.900  0.00  0.00    +0.000 A 
ATOM     27  F   UNL     1      -1.171  11.241  23.478  0.00  0.00    +0.000 F 
ATOM     28  C   UNL     1      -2.244  13.312  23.518  0.00  0.00    +0.000 A 
ENDBRANCH  16  25
ENDBRANCH   1  18
TORSDOF 3
ENDMDL
MODEL 7
REMARK VINA RESULT:      -8.0      3.779     10.145
REMARK  Name = 
REMARK  4 active torsions:
REMARK  status: ('A' for Active; 'I' for Inactive)
REMARK    1  A    between atoms: C_1  and  C_2
REMARK    2  A    between atoms: C_6  and  C_7
REMARK    3  A    between atoms: N_9  and  C_10
REMARK    4  A    between atoms: C_13  and  C_14
REMARK                            x       y       z     vdW  Elec       q    Type
REMARK                         _______ _______ _______ _____ _____    ______ ____
ROOT
ATOM      1  C   UNL     1       2.385   7.464  18.649  0.00  0.00    +0.000 A 
ATOM      2  C   UNL     1       2.155   6.994  19.942  0.00  0.00    +0.000 A 
ATOM      3  C   UNL     1       1.469   7.774  20.881  0.00  0.00    +0.000 A 
ATOM      4  C   UNL     1       0.995   9.052  20.561  0.00  0.00    +0.000 A 
ATOM      5  C   UNL     1       1.285   9.549  19.285  0.00  0.00    +0.000 A 
ATOM      6  C   UNL     1       1.975   8.765  18.340  0.00  0.00    +0.000 A 
ENDROOT
BRANCH   4   7
ATOM      7  C   UNL     1       0.299   9.819  21.602  0.00  0.00    +0.000 A 
ATOM      8  N   UNL     1       0.409   9.567  22.898  0.00  0.00    +0.000 NA
ATOM      9  N   UNL     1      -0.396  10.428  23.600  0.00  0.00    +0.000 NA
ATOM     10  C   UNL     1      -1.013  11.188  22.728  0.00  0.00    +0.000 A 
ATOM     11  N   UNL     1      -0.608  10.844  21.461  0.00  0.00    +0.000 N 
ATOM     12  C   UNL     1      -1.214  11.393  20.266  0.00  0.00    +0.000 C 
ATOM     13  C   UNL     1      -1.980  12.695  20.532  0.00  0.00    +0.000 C 
ATOM     14  C   UNL     1      -2.851  12.579  21.782  0.00  0.00    +0.000 C 
ATOM     15  C   UNL     1      -1.988  12.275  23.006  0.00  0.00    +0.000 C 
ENDBRANCH   4   7
BRANCH   1  18
ATOM     16  C   UNL     1       4.253   6.064  17.780  0.00  0.00    +0.000 C 
ATOM     17  O   UNL     1       4.916   6.042  18.809  0.00  0.00    +0.000 OA
ATOM     18  N   UNL     1       3.019   6.693  17.643  0.00  0.00    +0.000 N 
ATOM     19  H   UNL     1       2.476   6.496  16.809  0.00  0.00    +0.000 HD
BRANCH  16  25
ATOM     20  C   UNL     1       6.508   3.381  13.145  0.00  0.00    +0.000 C 
ATOM     21  C   UNL     1       5.917   4.040  14.356  0.00  0.00    +0.000 A 
ATOM     22  C   UNL     1       5.576   3.312  15.502  0.00  0.00    +0.000 A 
ATOM     23  C   UNL     1       5.016   3.955  16.612  0.00  0.00    +0.000 A 
ATOM     24  F   UNL     1       4.712   3.213  17.688  0.00  0.00    +0.000 F 
ATOM     25  C   UNL     1       4.788   5.329  16.610  0.00  0.00    +0.000 A 
ATOM     26  C   UNL     1       5.137   6.049  15.463  0.00  0.00    +0.000 A 
ATOM     27  F   UNL     1       4.927   7.370  15.374  0.00  0.00    +0.000 F 
ATOM     28  C   UNL     1       5.693   5.419  14.350  0.00  0.00    +0.000 A 
ENDBRANCH  16  25
ENDBRANCH   1  18
TORSDOF 3
ENDMDL
MODEL 8
REMARK VINA RESULT:      -8.0      0.737      1.740
REMARK  Name = 
REMARK  4 active torsions:
REMARK  status: ('A' for Active; 'I' for Inactive)
REMARK    1  A    between atoms: C_1  and  C_2
REMARK    2  A    between atoms: C_6  and  C_7
REMARK    3  A    between atoms: N_9  and  C_10
REMARK    4  A    between atoms: C_13  and  C_14
REMARK                            x       y       z     vdW  Elec       q    Type
REMARK                         _______ _______ _______ _____ _____    ______ ____
ROOT
ATOM      1  C   UNL     1       0.717   9.769  19.644  0.00  0.00    +0.000 A 
ATOM      2  C   UNL     1       1.124   9.696  18.312  0.00  0.00    +0.000 A 
ATOM      3  C   UNL     1       1.889   8.617  17.851  0.00  0.00    +0.000 A 
ATOM      4  C   UNL     1       2.275   7.577  18.706  0.00  0.00    +0.000 A 
ATOM      5  C   UNL     1       1.921   7.686  20.056  0.00  0.00    +0.000 A 
ATOM      6  C   UNL     1       1.153   8.771  20.520  0.00  0.00    +0.000 A 
ENDROOT
BRANCH   4   7
ATOM      7  C   UNL     1       3.090   6.487  18.156  0.00  0.00    +0.000 A 
ATOM      8  N   UNL     1       4.185   6.679  17.433  0.00  0.00    +0.000 NA
ATOM      9  N   UNL     1       4.687   5.467  17.035  0.00  0.00    +0.000 NA
ATOM     10  C   UNL     1       3.885   4.538  17.496  0.00  0.00    +0.000 A 
ATOM     11  N   UNL     1       2.868   5.130  18.207  0.00  0.00    +0.000 N 
ATOM     12  C   UNL     1       1.734   4.392  18.720  0.00  0.00    +0.000 C 
ATOM     13  C   UNL     1       1.999   2.884  18.814  0.00  0.00    +0.000 C 
ATOM     14  C   UNL     1       2.675   2.361  17.547  0.00  0.00    +0.000 C 
ATOM     15  C   UNL     1       4.012   3.067  17.327  0.00  0.00    +0.000 C 
ENDBRANCH   4   7
BRANCH   1  18
ATOM     16  C   UNL     1       0.342  11.882  20.908  0.00  0.00    +0.000 C 
ATOM     17  O   UNL     1       1.514  12.105  21.182  0.00  0.00    +0.000 OA
ATOM     18  N   UNL     1      -0.107  10.806  20.148  0.00  0.00    +0.000 N 
ATOM     19  H   UNL     1      -1.071  10.818  19.831  0.00  0.00    +0.000 HD
BRANCH  16  25
ATOM     20  C   UNL     1      -3.694  15.728  22.548  0.00  0.00    +0.000 C 
ATOM     21  C   UNL     1      -2.653  14.721  22.159  0.00  0.00    +0.000 A 
ATOM     22  C   UNL     1      -2.328  13.637  22.984  0.00  0.00    +0.000 A 
ATOM     23  C   UNL     1      -1.343  12.720  22.597  0.00  0.00    +0.000 A 
ATOM     24  F   UNL     1      -1.074  11.695  23.420  0.00  0.00    +0.000 F 
ATOM     25  C   UNL     1      -0.665  12.857  21.388  0.00  0.00    +0.000 A 
ATOM     26  C   UNL     1      -1.001  13.940  20.569  0.00  0.00    +0.000 A 
ATOM     27  F   UNL     1      -0.378  14.154  19.401  0.00  0.00    +0.000 F 
ATOM     28  C   UNL     1      -1.978  14.861  20.944  0.00  0.00    +0.000 A 
ENDBRANCH  16  25
ENDBRANCH   1  18
TORSDOF 3
ENDMDL
MODEL 9
REMARK VINA RESULT:      -7.8      1.659      2.176
REMARK  Name = 
REMARK  4 active torsions:
REMARK  status: ('A' for Active; 'I' for Inactive)
REMARK    1  A    between atoms: C_1  and  C_2
REMARK    2  A    between atoms: C_6  and  C_7
REMARK    3  A    between atoms: N_9  and  C_10
REMARK    4  A    between atoms: C_13  and  C_14
REMARK                            x       y       z     vdW  Elec       q    Type
REMARK                         _______ _______ _______ _____ _____    ______ ____
ROOT
ATOM      1  C   UNL     1       1.032   9.528  19.456  0.00  0.00    +0.000 A 
ATOM      2  C   UNL     1       1.093   8.622  20.515  0.00  0.00    +0.000 A 
ATOM      3  C   UNL     1       1.826   7.433  20.404  0.00  0.00    +0.000 A 
ATOM      4  C   UNL     1       2.517   7.108  19.230  0.00  0.00    +0.000 A 
ATOM      5  C   UNL     1       2.400   7.986  18.147  0.00  0.00    +0.000 A 
ATOM      6  C   UNL     1       1.663   9.182  18.257  0.00  0.00    +0.000 A 
ENDROOT
BRANCH   4   7
ATOM      7  C   UNL     1       3.250   5.837  19.181  0.00  0.00    +0.000 A 
ATOM      8  N   UNL     1       4.561   5.736  19.350  0.00  0.00    +0.000 NA
ATOM      9  N   UNL     1       4.940   4.427  19.203  0.00  0.00    +0.000 NA
ATOM     10  C   UNL     1       3.863   3.734  18.921  0.00  0.00    +0.000 A 
ATOM     11  N   UNL     1       2.777   4.576  18.898  0.00  0.00    +0.000 N 
ATOM     12  C   UNL     1       1.461   4.150  18.472  0.00  0.00    +0.000 C 
ATOM     13  C   UNL     1       1.288   2.627  18.510  0.00  0.00    +0.000 C 
ATOM     14  C   UNL     1       2.498   1.917  17.903  0.00  0.00    +0.000 C 
ATOM     15  C   UNL     1       3.767   2.272  18.676  0.00  0.00    +0.000 C 
ENDBRANCH   4   7
BRANCH   1  18
ATOM     16  C   UNL     1       0.652  11.782  20.444  0.00  0.00    +0.000 C 
ATOM     17  O   UNL     1       1.575  11.753  21.248  0.00  0.00    +0.000 OA
ATOM     18  N   UNL     1       0.356  10.771  19.535  0.00  0.00    +0.000 N 
ATOM     19  H   UNL     1      -0.311  10.976  18.799  0.00  0.00    +0.000 HD
BRANCH  16  25
ATOM     20  C   UNL     1      -2.660  16.555  20.577  0.00  0.00    +0.000 C 
ATOM     21  C   UNL     1      -1.788  15.337  20.512  0.00  0.00    +0.000 A 
ATOM     22  C   UNL     1      -0.670  15.271  19.672  0.00  0.00    +0.000 A 
ATOM     23  C   UNL     1       0.118  14.115  19.626  0.00  0.00    +0.000 A 
ATOM     24  F   UNL     1       1.182  14.106  18.810  0.00  0.00    +0.000 F 
ATOM     25  C   UNL     1      -0.183  13.005  20.413  0.00  0.00    +0.000 A 
ATOM     26  C   UNL     1      -1.299  13.083  21.253  0.00  0.00    +0.000 A 
ATOM     27  F   UNL     1      -1.669  12.049  22.023  0.00  0.00    +0.000 F 
ATOM     28  C   UNL     1      -2.093  14.228  21.305  0.00  0.00    +0.000 A 
ENDBRANCH  16  25
ENDBRANCH   1  18
TORSDOF 3
ENDMDL
