MODEL 1
REMARK VINA RESULT:      -8.6      0.000      0.000
REMARK  Name = 
REMARK  6 active torsions:
REMARK  status: ('A' for Active; 'I' for Inactive)
REMARK    1  A    between atoms: C_1  and  C_2
REMARK    2  A    between atoms: C_6  and  N_7
REMARK    3  A    between atoms: C_10  and  C_11
REMARK    4  A    between atoms: N_13  and  C_14
REMARK    5  A    between atoms: C_17  and  C_18
REMARK    6  A    between atoms: C_25  and  C_26
REMARK                            x       y       z     vdW  Elec       q    Type
REMARK                         _______ _______ _______ _____ _____    ______ ____
ROOT
ATOM      1  C   UNL     1       1.500   6.696  20.596  0.00  0.00    +0.000 C 
ATOM      2  O   UNL     1       0.352   6.309  20.809  0.00  0.00    +0.000 OA
ATOM      3  N   UNL     1       1.871   8.011  20.827  0.00  0.00    +0.000 N 
ATOM      4  H   UNL     1       2.611   8.357  20.239  0.00  0.00    +0.000 HD
ENDROOT
BRANCH   3   5
ATOM      5  C   UNL     1       0.934   9.000  21.299  0.00  0.00    +0.000 A 
ATOM      6  C   UNL     1       0.694   8.994  22.679  0.00  0.00    +0.000 A 
ATOM      7  C   UNL     1      -0.173   9.919  23.255  0.00  0.00    +0.000 A 
ATOM      8  C   UNL     1      -0.882  10.821  22.455  0.00  0.00    +0.000 A 
ATOM      9  C   UNL     1      -1.827  11.815  23.084  0.00  0.00    +0.000 C 
ATOM     10  C   UNL     1      -0.714  10.820  21.072  0.00  0.00    +0.000 A 
ATOM     11  N   UNL     1      -1.476  11.682  20.367  0.00  0.00    +0.000 NA
ATOM     12  C   UNL     1      -1.324  11.752  19.036  0.00  0.00    +0.000 A 
ATOM     13  C   UNL     1      -0.412  10.991  18.345  0.00  0.00    +0.000 A 
ATOM     14  C   UNL     1       0.350  10.070  19.065  0.00  0.00    +0.000 A 
ATOM     15  C   UNL     1       0.229   9.939  20.470  0.00  0.00    +0.000 A 
ENDBRANCH   3   5
BRANCH   1  19
ATOM     16  N   UNL     1       4.135   4.976  18.686  0.00  0.00    +0.000 N 
ATOM     17  N   UNL     1       3.798   3.945  19.504  0.00  0.00    +0.000 NA
ATOM     18  C   UNL     1       2.878   4.455  20.333  0.00  0.00    +0.000 A 
ATOM     19  C   UNL     1       2.506   5.781  20.018  0.00  0.00    +0.000 A 
ATOM     20  C   UNL     1       3.300   6.067  18.905  0.00  0.00    +0.000 A 
ATOM     21  C   UNL     1       3.237   7.231  17.975  0.00  0.00    +0.000 C 
BRANCH  16  27
ATOM     22  C   UNL     1       5.532   4.068  13.986  0.00  0.00    +0.000 C 
ATOM     23  C   UNL     1       5.888   4.337  15.421  0.00  0.00    +0.000 A 
ATOM     24  C   UNL     1       7.220   4.356  15.840  0.00  0.00    +0.000 A 
ATOM     25  C   UNL     1       7.531   4.661  17.167  0.00  0.00    +0.000 A 
ATOM     26  C   UNL     1       6.518   4.924  18.098  0.00  0.00    +0.000 A 
ATOM     27  C   UNL     1       5.176   4.836  17.711  0.00  0.00    +0.000 A 
ATOM     28  C   UNL     1       4.874   4.584  16.361  0.00  0.00    +0.000 A 
ENDBRANCH  16  27
ENDBRANCH   1  19
TORSDOF 3
ENDMDL
MODEL 2
REMARK VINA RESULT:      -8.5      1.947      9.391
REMARK  Name = 
REMARK  6 active torsions:
REMARK  status: ('A' for Active; 'I' for Inactive)
REMARK    1  A    between atoms: C_1  and  C_2
REMARK    2  A    between atoms: C_6  and  N_7
REMARK    3  A    between atoms: C_10  and  C_11
REMARK    4  A    between atoms: N_13  and  C_14
REMARK    5  A    between atoms: C_17  and  C_18
REMARK    6  A    between atoms: C_25  and  C_26
REMARK                            x       y       z     vdW  Elec       q    Type
REMARK                         _______ _______ _______ _____ _____    ______ ____
ROOT
ATOM      1  C   UNL     1       1.197   8.551  20.363  0.00  0.00    +0.000 C 
ATOM      2  O   UNL     1       1.068   8.903  19.192  0.00  0.00    +0.000 OA
ATOM      3  N   UNL     1       1.850   7.374  20.694  0.00  0.00    +0.000 N 
ATOM      4  H   UNL     1       1.535   6.933  21.543  0.00  0.00    +0.000 HD
ENDROOT
BRANCH   3   5
ATOM      5  C   UNL     1       2.386   6.487  19.691  0.00  0.00    +0.000 A 
ATOM      6  C   UNL     1       3.283   7.070  18.787  0.00  0.00    +0.000 A 
ATOM      7  C   UNL     1       3.885   6.307  17.789  0.00  0.00    +0.000 A 
ATOM      8  C   UNL     1       3.543   4.962  17.622  0.00  0.00    +0.000 A 
ATOM      9  C   UNL     1       4.193   4.143  16.533  0.00  0.00    +0.000 C 
ATOM     10  C   UNL     1       2.612   4.360  18.465  0.00  0.00    +0.000 A 
ATOM     11  N   UNL     1       2.295   3.076  18.202  0.00  0.00    +0.000 NA
ATOM     12  C   UNL     1       1.435   2.435  19.008  0.00  0.00    +0.000 A 
ATOM     13  C   UNL     1       0.861   3.023  20.110  0.00  0.00    +0.000 A 
ATOM     14  C   UNL     1       1.155   4.363  20.363  0.00  0.00    +0.000 A 
ATOM     15  C   UNL     1       2.046   5.099  19.543  0.00  0.00    +0.000 A 
ENDBRANCH   3   5
BRANCH   1  19
ATOM     16  N   UNL     1      -0.530  10.968  22.537  0.00  0.00    +0.000 N 
ATOM     17  N   UNL     1      -0.008  10.183  23.515  0.00  0.00    +0.000 NA
ATOM     18  C   UNL     1       0.602   9.186  22.860  0.00  0.00    +0.000 A 
ATOM     19  C   UNL     1       0.596   9.343  21.456  0.00  0.00    +0.000 A 
ATOM     20  C   UNL     1      -0.097  10.544  21.284  0.00  0.00    +0.000 A 
ATOM     21  C   UNL     1      -0.267  11.367  20.053  0.00  0.00    +0.000 C 
BRANCH  16  27
ATOM     22  C   UNL     1      -4.987  12.869  23.718  0.00  0.00    +0.000 C 
ATOM     23  C   UNL     1      -3.536  13.065  23.382  0.00  0.00    +0.000 A 
ATOM     24  C   UNL     1      -2.988  14.346  23.279  0.00  0.00    +0.000 A 
ATOM     25  C   UNL     1      -1.625  14.506  23.019  0.00  0.00    +0.000 A 
ATOM     26  C   UNL     1      -0.798  13.391  22.830  0.00  0.00    +0.000 A 
ATOM     27  C   UNL     1      -1.345  12.103  22.857  0.00  0.00    +0.000 A 
ATOM     28  C   UNL     1      -2.706  11.951  23.175  0.00  0.00    +0.000 A 
ENDBRANCH  16  27
ENDBRANCH   1  19
TORSDOF 3
ENDMDL
MODEL 3
REMARK VINA RESULT:      -8.4      1.994      9.405
REMARK  Name = 
REMARK  6 active torsions:
REMARK  status: ('A' for Active; 'I' for Inactive)
REMARK    1  A    between atoms: C_1  and  C_2
REMARK    2  A    between atoms: C_6  and  N_7
REMARK    3  A    between atoms: C_10  and  C_11
REMARK    4  A    between atoms: N_13  and  C_14
REMARK    5  A    between atoms: C_17  and  C_18
REMARK    6  A    between atoms: C_25  and  C_26
REMARK                            x       y       z     vdW  Elec       q    Type
REMARK                         _______ _______ _______ _____ _____    ______ ____
ROOT
ATOM      1  C   UNL     1       1.221   8.548  20.382  0.00  0.00    +0.000 C 
ATOM      2  O   UNL     1       1.108   8.905  19.211  0.00  0.00    +0.000 OA
ATOM      3  N   UNL     1       1.860   7.365  20.716  0.00  0.00    +0.000 N 
ATOM      4  H   UNL     1       1.533   6.923  21.560  0.00  0.00    +0.000 HD
ENDROOT
BRANCH   3   5
ATOM      5  C   UNL     1       2.399   6.476  19.716  0.00  0.00    +0.000 A 
ATOM      6  C   UNL     1       3.292   7.059  18.808  0.00  0.00    +0.000 A 
ATOM      7  C   UNL     1       3.896   6.295  17.813  0.00  0.00    +0.000 A 
ATOM      8  C   UNL     1       3.560   4.947  17.651  0.00  0.00    +0.000 A 
ATOM      9  C   UNL     1       4.212   4.127  16.565  0.00  0.00    +0.000 C 
ATOM     10  C   UNL     1       2.633   4.345  18.498  0.00  0.00    +0.000 A 
ATOM     11  N   UNL     1       2.322   3.058  18.240  0.00  0.00    +0.000 NA
ATOM     12  C   UNL     1       1.466   2.416  19.050  0.00  0.00    +0.000 A 
ATOM     13  C   UNL     1       0.891   3.007  20.150  0.00  0.00    +0.000 A 
ATOM     14  C   UNL     1       1.179   4.349  20.398  0.00  0.00    +0.000 A 
ATOM     15  C   UNL     1       2.065   5.085  19.574  0.00  0.00    +0.000 A 
ENDBRANCH   3   5
BRANCH   1  19
ATOM     16  N   UNL     1      -0.516  10.968  22.544  0.00  0.00    +0.000 N 
ATOM     17  N   UNL     1       0.004  10.185  23.526  0.00  0.00    +0.000 NA
ATOM     18  C   UNL     1       0.616   9.187  22.875  0.00  0.00    +0.000 A 
ATOM     19  C   UNL     1       0.615   9.342  21.471  0.00  0.00    +0.000 A 
ATOM     20  C   UNL     1      -0.077  10.542  21.295  0.00  0.00    +0.000 A 
ATOM     21  C   UNL     1      -0.244  11.363  20.061  0.00  0.00    +0.000 C 
BRANCH  16  27
ATOM     22  C   UNL     1      -0.937  15.866  23.388  0.00  0.00    +0.000 C 
ATOM     23  C   UNL     1      -1.553  14.496  23.333  0.00  0.00    +0.000 A 
ATOM     24  C   UNL     1      -2.891  14.295  23.679  0.00  0.00    +0.000 A 
ATOM     25  C   UNL     1      -3.459  13.024  23.569  0.00  0.00    +0.000 A 
ATOM     26  C   UNL     1      -2.693  11.933  23.139  0.00  0.00    +0.000 A 
ATOM     27  C   UNL     1      -1.332  12.103  22.859  0.00  0.00    +0.000 A 
ATOM     28  C   UNL     1      -0.784  13.396  22.919  0.00  0.00    +0.000 A 
ENDBRANCH  16  27
ENDBRANCH   1  19
TORSDOF 3
ENDMDL
MODEL 4
REMARK VINA RESULT:      -8.1      1.168      1.436
REMARK  Name = 
REMARK  6 active torsions:
REMARK  status: ('A' for Active; 'I' for Inactive)
REMARK    1  A    between atoms: C_1  and  C_2
REMARK    2  A    between atoms: C_6  and  N_7
REMARK    3  A    between atoms: C_10  and  C_11
REMARK    4  A    between atoms: N_13  and  C_14
REMARK    5  A    between atoms: C_17  and  C_18
REMARK    6  A    between atoms: C_25  and  C_26
REMARK                            x       y       z     vdW  Elec       q    Type
REMARK                         _______ _______ _______ _____ _____    ______ ____
ROOT
ATOM      1  C   UNL     1       1.370   7.696  20.319  0.00  0.00    +0.000 C 
ATOM      2  O   UNL     1       0.491   7.453  21.144  0.00  0.00    +0.000 OA
ATOM      3  N   UNL     1       1.455   8.933  19.701  0.00  0.00    +0.000 N 
ATOM      4  H   UNL     1       1.849   8.924  18.774  0.00  0.00    +0.000 HD
ENDROOT
BRANCH   3   5
ATOM      5  C   UNL     1       0.509   9.990  19.966  0.00  0.00    +0.000 A 
ATOM      6  C   UNL     1       0.665  10.646  21.193  0.00  0.00    +0.000 A 
ATOM      7  C   UNL     1      -0.173  11.700  21.549  0.00  0.00    +0.000 A 
ATOM      8  C   UNL     1      -1.239  12.068  20.722  0.00  0.00    +0.000 A 
ATOM      9  C   UNL     1      -2.149  13.205  21.118  0.00  0.00    +0.000 C 
ATOM     10  C   UNL     1      -1.463  11.401  19.520  0.00  0.00    +0.000 A 
ATOM     11  N   UNL     1      -2.544  11.780  18.808  0.00  0.00    +0.000 NA
ATOM     12  C   UNL     1      -2.783  11.199  17.622  0.00  0.00    +0.000 A 
ATOM     13  C   UNL     1      -1.966  10.235  17.082  0.00  0.00    +0.000 A 
ATOM     14  C   UNL     1      -0.868   9.812  17.833  0.00  0.00    +0.000 A 
ATOM     15  C   UNL     1      -0.568  10.377  19.097  0.00  0.00    +0.000 A 
ENDBRANCH   3   5
BRANCH   1  19
ATOM     16  N   UNL     1       3.952   5.574  18.776  0.00  0.00    +0.000 N 
ATOM     17  N   UNL     1       3.486   4.670  19.678  0.00  0.00    +0.000 NA
ATOM     18  C   UNL     1       2.568   5.340  20.387  0.00  0.00    +0.000 A 
ATOM     19  C   UNL     1       2.325   6.647  19.908  0.00  0.00    +0.000 A 
ATOM     20  C   UNL     1       3.200   6.744  18.823  0.00  0.00    +0.000 A 
ATOM     21  C   UNL     1       3.286   7.797  17.771  0.00  0.00    +0.000 C 
BRANCH  16  27
ATOM     22  C   UNL     1       5.528   4.173  14.257  0.00  0.00    +0.000 C 
ATOM     23  C   UNL     1       5.820   4.502  15.693  0.00  0.00    +0.000 A 
ATOM     24  C   UNL     1       7.115   4.399  16.206  0.00  0.00    +0.000 A 
ATOM     25  C   UNL     1       7.376   4.761  17.529  0.00  0.00    +0.000 A 
ATOM     26  C   UNL     1       6.343   5.206  18.366  0.00  0.00    +0.000 A 
ATOM     27  C   UNL     1       5.028   5.245  17.889  0.00  0.00    +0.000 A 
ATOM     28  C   UNL     1       4.785   4.932  16.540  0.00  0.00    +0.000 A 
ENDBRANCH  16  27
ENDBRANCH   1  19
TORSDOF 3
ENDMDL
MODEL 5
REMARK VINA RESULT:      -7.9      1.800      9.224
REMARK  Name = 
REMARK  6 active torsions:
REMARK  status: ('A' for Active; 'I' for Inactive)
REMARK    1  A    between atoms: C_1  and  C_2
REMARK    2  A    between atoms: C_6  and  N_7
REMARK    3  A    between atoms: C_10  and  C_11
REMARK    4  A    between atoms: N_13  and  C_14
REMARK    5  A    between atoms: C_17  and  C_18
REMARK    6  A    between atoms: C_25  and  C_26
REMARK                            x       y       z     vdW  Elec       q    Type
REMARK                         _______ _______ _______ _____ _____    ______ ____
ROOT
ATOM      1  C   UNL     1       1.796   8.217  19.355  0.00  0.00    +0.000 C 
ATOM      2  O   UNL     1       2.243   7.565  20.297  0.00  0.00    +0.000 OA
ATOM      3  N   UNL     1       2.172   7.946  18.049  0.00  0.00    +0.000 N 
ATOM      4  H   UNL     1       2.159   8.736  17.425  0.00  0.00    +0.000 HD
ENDROOT
BRANCH   3   5
ATOM      5  C   UNL     1       3.123   6.910  17.724  0.00  0.00    +0.000 A 
ATOM      6  C   UNL     1       4.380   7.356  17.301  0.00  0.00    +0.000 A 
ATOM      7  C   UNL     1       5.389   6.450  16.984  0.00  0.00    +0.000 A 
ATOM      8  C   UNL     1       5.137   5.074  17.006  0.00  0.00    +0.000 A 
ATOM      9  C   UNL     1       6.232   4.096  16.653  0.00  0.00    +0.000 C 
ATOM     10  C   UNL     1       3.881   4.592  17.366  0.00  0.00    +0.000 A 
ATOM     11  N   UNL     1       3.704   3.256  17.307  0.00  0.00    +0.000 NA
ATOM     12  C   UNL     1       2.527   2.735  17.684  0.00  0.00    +0.000 A 
ATOM     13  C   UNL     1       1.482   3.500  18.143  0.00  0.00    +0.000 A 
ATOM     14  C   UNL     1       1.647   4.885  18.169  0.00  0.00    +0.000 A 
ATOM     15  C   UNL     1       2.861   5.498  17.773  0.00  0.00    +0.000 A 
ENDBRANCH   3   5
BRANCH   1  19
ATOM     16  N   UNL     1      -0.230  11.001  20.656  0.00  0.00    +0.000 N 
ATOM     17  N   UNL     1      -0.685  11.026  19.376  0.00  0.00    +0.000 NA
ATOM     18  C   UNL     1       0.037  10.093  18.741  0.00  0.00    +0.000 A 
ATOM     19  C   UNL     1       0.893   9.362  19.594  0.00  0.00    +0.000 A 
ATOM     20  C   UNL     1       0.649   9.939  20.843  0.00  0.00    +0.000 A 
ATOM     21  C   UNL     1       1.086   9.485  22.194  0.00  0.00    +0.000 C 
BRANCH  16  27
ATOM     22  C   UNL     1      -3.670  12.344  24.008  0.00  0.00    +0.000 C 
ATOM     23  C   UNL     1      -2.415  12.645  23.238  0.00  0.00    +0.000 A 
ATOM     24  C   UNL     1      -1.758  13.869  23.383  0.00  0.00    +0.000 A 
ATOM     25  C   UNL     1      -0.565  14.108  22.699  0.00  0.00    +0.000 A 
ATOM     26  C   UNL     1      -0.025  13.140  21.841  0.00  0.00    +0.000 A 
ATOM     27  C   UNL     1      -0.709  11.938  21.629  0.00  0.00    +0.000 A 
ATOM     28  C   UNL     1      -1.880  11.684  22.364  0.00  0.00    +0.000 A 
ENDBRANCH  16  27
ENDBRANCH   1  19
TORSDOF 3
ENDMDL
MODEL 6
REMARK VINA RESULT:      -7.9      1.975      9.400
REMARK  Name = 
REMARK  6 active torsions:
REMARK  status: ('A' for Active; 'I' for Inactive)
REMARK    1  A    between atoms: C_1  and  C_2
REMARK    2  A    between atoms: C_6  and  N_7
REMARK    3  A    between atoms: C_10  and  C_11
REMARK    4  A    between atoms: N_13  and  C_14
REMARK    5  A    between atoms: C_17  and  C_18
REMARK    6  A    between atoms: C_25  and  C_26
REMARK                            x       y       z     vdW  Elec       q    Type
REMARK                         _______ _______ _______ _____ _____    ______ ____
ROOT
ATOM      1  C   UNL     1       1.407   8.948  19.304  0.00  0.00    +0.000 C 
ATOM      2  O   UNL     1       1.334   9.032  18.079  0.00  0.00    +0.000 OA
ATOM      3  N   UNL     1       2.010   7.862  19.917  0.00  0.00    +0.000 N 
ATOM      4  H   UNL     1       1.649   7.628  20.828  0.00  0.00    +0.000 HD
ENDROOT
BRANCH   3   5
ATOM      5  C   UNL     1       2.557   6.761  19.162  0.00  0.00    +0.000 A 
ATOM      6  C   UNL     1       3.417   7.116  18.115  0.00  0.00    +0.000 A 
ATOM      7  C   UNL     1       4.026   6.139  17.331  0.00  0.00    +0.000 A 
ATOM      8  C   UNL     1       3.725   4.787  17.524  0.00  0.00    +0.000 A 
ATOM      9  C   UNL     1       4.381   3.733  16.665  0.00  0.00    +0.000 C 
ATOM     10  C   UNL     1       2.830   4.397  18.517  0.00  0.00    +0.000 A 
ATOM     11  N   UNL     1       2.551   3.080  18.601  0.00  0.00    +0.000 NA
ATOM     12  C   UNL     1       1.728   2.645  19.567  0.00  0.00    +0.000 A 
ATOM     13  C   UNL     1       1.155   3.481  20.495  0.00  0.00    +0.000 A 
ATOM     14  C   UNL     1       1.409   4.849  20.388  0.00  0.00    +0.000 A 
ATOM     15  C   UNL     1       2.260   5.373  19.384  0.00  0.00    +0.000 A 
ENDBRANCH   3   5
BRANCH   1  19
ATOM     16  N   UNL     1      -0.732  11.399  21.026  0.00  0.00    +0.000 N 
ATOM     17  N   UNL     1       0.415  11.644  21.711  0.00  0.00    +0.000 NA
ATOM     18  C   UNL     1       1.291  10.749  21.237  0.00  0.00    +0.000 A 
ATOM     19  C   UNL     1       0.789   9.977  20.165  0.00  0.00    +0.000 A 
ATOM     20  C   UNL     1      -0.510  10.470  20.015  0.00  0.00    +0.000 A 
ATOM     21  C   UNL     1      -1.496  10.214  18.926  0.00  0.00    +0.000 C 
BRANCH  16  27
ATOM     22  C   UNL     1      -4.287  12.648  24.294  0.00  0.00    +0.000 C 
ATOM     23  C   UNL     1      -3.726  12.690  22.900  0.00  0.00    +0.000 A 
ATOM     24  C   UNL     1      -4.414  13.332  21.868  0.00  0.00    +0.000 A 
ATOM     25  C   UNL     1      -3.851  13.407  20.592  0.00  0.00    +0.000 A 
ATOM     26  C   UNL     1      -2.607  12.819  20.323  0.00  0.00    +0.000 A 
ATOM     27  C   UNL     1      -1.940  12.110  21.328  0.00  0.00    +0.000 A 
ATOM     28  C   UNL     1      -2.488  12.088  22.623  0.00  0.00    +0.000 A 
ENDBRANCH  16  27
ENDBRANCH   1  19
TORSDOF 3
ENDMDL
MODEL 7
REMARK VINA RESULT:      -7.8      1.565      9.512
REMARK  Name = 
REMARK  6 active torsions:
REMARK  status: ('A' for Active; 'I' for Inactive)
REMARK    1  A    between atoms: C_1  and  C_2
REMARK    2  A    between atoms: C_6  and  N_7
REMARK    3  A    between atoms: C_10  and  C_11
REMARK    4  A    between atoms: N_13  and  C_14
REMARK    5  A    between atoms: C_17  and  C_18
REMARK    6  A    between atoms: C_25  and  C_26
REMARK                            x       y       z     vdW  Elec       q    Type
REMARK                         _______ _______ _______ _____ _____    ______ ____
ROOT
ATOM      1  C   UNL     1       1.282   8.749  20.476  0.00  0.00    +0.000 C 
ATOM      2  O   UNL     1       1.952   8.317  21.413  0.00  0.00    +0.000 OA
ATOM      3  N   UNL     1       1.410   8.226  19.199  0.00  0.00    +0.000 N 
ATOM      4  H   UNL     1       1.218   8.872  18.450  0.00  0.00    +0.000 HD
ENDROOT
BRANCH   3   5
ATOM      5  C   UNL     1       2.349   7.175  18.891  0.00  0.00    +0.000 A 
ATOM      6  C   UNL     1       3.324   7.495  17.939  0.00  0.00    +0.000 A 
ATOM      7  C   UNL     1       4.300   6.569  17.579  0.00  0.00    +0.000 A 
ATOM      8  C   UNL     1       4.275   5.273  18.104  0.00  0.00    +0.000 A 
ATOM      9  C   UNL     1       5.330   4.271  17.703  0.00  0.00    +0.000 C 
ATOM     10  C   UNL     1       3.287   4.898  19.011  0.00  0.00    +0.000 A 
ATOM     11  N   UNL     1       3.299   3.614  19.426  0.00  0.00    +0.000 NA
ATOM     12  C   UNL     1       2.396   3.210  20.331  0.00  0.00    +0.000 A 
ATOM     13  C   UNL     1       1.452   4.050  20.874  0.00  0.00    +0.000 A 
ATOM     14  C   UNL     1       1.410   5.368  20.418  0.00  0.00    +0.000 A 
ATOM     15  C   UNL     1       2.329   5.853  19.456  0.00  0.00    +0.000 A 
ENDBRANCH   3   5
BRANCH   1  19
ATOM     16  N   UNL     1      -0.929  11.432  21.683  0.00  0.00    +0.000 N 
ATOM     17  N   UNL     1      -1.110  11.630  20.351  0.00  0.00    +0.000 NA
ATOM     18  C   UNL     1      -0.286  10.754  19.762  0.00  0.00    +0.000 A 
ATOM     19  C   UNL     1       0.366   9.891  20.671  0.00  0.00    +0.000 A 
ATOM     20  C   UNL     1      -0.122  10.321  21.907  0.00  0.00    +0.000 A 
ATOM     21  C   UNL     1       0.021   9.689  23.250  0.00  0.00    +0.000 C 
BRANCH  16  27
ATOM     22  C   UNL     1      -4.856  12.340  24.620  0.00  0.00    +0.000 C 
ATOM     23  C   UNL     1      -3.527  12.758  24.057  0.00  0.00    +0.000 A 
ATOM     24  C   UNL     1      -2.963  13.993  24.385  0.00  0.00    +0.000 A 
ATOM     25  C   UNL     1      -1.703  14.340  23.894  0.00  0.00    +0.000 A 
ATOM     26  C   UNL     1      -1.002  13.472  23.047  0.00  0.00    +0.000 A 
ATOM     27  C   UNL     1      -1.585  12.263  22.649  0.00  0.00    +0.000 A 
ATOM     28  C   UNL     1      -2.828  11.898  23.193  0.00  0.00    +0.000 A 
ENDBRANCH  16  27
ENDBRANCH   1  19
TORSDOF 3
ENDMDL
MODEL 8
REMARK VINA RESULT:      -7.7      2.492      3.521
REMARK  Name = 
REMARK  6 active torsions:
REMARK  status: ('A' for Active; 'I' for Inactive)
REMARK    1  A    between atoms: C_1  and  C_2
REMARK    2  A    between atoms: C_6  and  N_7
REMARK    3  A    between atoms: C_10  and  C_11
REMARK    4  A    between atoms: N_13  and  C_14
REMARK    5  A    between atoms: C_17  and  C_18
REMARK    6  A    between atoms: C_25  and  C_26
REMARK                            x       y       z     vdW  Elec       q    Type
REMARK                         _______ _______ _______ _____ _____    ______ ____
ROOT
ATOM      1  C   UNL     1       0.542   9.925  19.685  0.00  0.00    +0.000 C 
ATOM      2  O   UNL     1      -0.502  10.276  19.137  0.00  0.00    +0.000 OA
ATOM      3  N   UNL     1       0.906  10.424  20.926  0.00  0.00    +0.000 N 
ATOM      4  H   UNL     1       1.897  10.475  21.094  0.00  0.00    +0.000 HD
ENDROOT
BRANCH   3   5
ATOM      5  C   UNL     1       0.103  11.395  21.628  0.00  0.00    +0.000 A 
ATOM      6  C   UNL     1      -0.858  10.868  22.499  0.00  0.00    +0.000 A 
ATOM      7  C   UNL     1      -1.676  11.709  23.250  0.00  0.00    +0.000 A 
ATOM      8  C   UNL     1      -1.607  13.096  23.087  0.00  0.00    +0.000 A 
ATOM      9  C   UNL     1      -2.502  14.001  23.898  0.00  0.00    +0.000 C 
ATOM     10  C   UNL     1      -0.704  13.657  22.188  0.00  0.00    +0.000 A 
ATOM     11  N   UNL     1      -0.739  14.998  22.048  0.00  0.00    +0.000 NA
ATOM     12  C   UNL     1       0.138  15.594  21.226  0.00  0.00    +0.000 A 
ATOM     13  C   UNL     1       1.090  14.901  20.518  0.00  0.00    +0.000 A 
ATOM     14  C   UNL     1       1.105  13.511  20.629  0.00  0.00    +0.000 A 
ATOM     15  C   UNL     1       0.199  12.821  21.470  0.00  0.00    +0.000 A 
ENDBRANCH   3   5
BRANCH   1  19
ATOM     16  N   UNL     1       2.729   7.190  18.553  0.00  0.00    +0.000 N 
ATOM     17  N   UNL     1       3.043   8.089  17.584  0.00  0.00    +0.000 NA
ATOM     18  C   UNL     1       2.246   9.138  17.823  0.00  0.00    +0.000 A 
ATOM     19  C   UNL     1       1.478   9.010  19.002  0.00  0.00    +0.000 A 
ATOM     20  C   UNL     1       1.863   7.756  19.484  0.00  0.00    +0.000 A 
ATOM     21  C   UNL     1       1.569   7.119  20.799  0.00  0.00    +0.000 C 
BRANCH  16  27
ATOM     22  C   UNL     1       2.370   2.290  17.691  0.00  0.00    +0.000 C 
ATOM     23  C   UNL     1       3.147   3.468  18.208  0.00  0.00    +0.000 A 
ATOM     24  C   UNL     1       4.403   3.299  18.797  0.00  0.00    +0.000 A 
ATOM     25  C   UNL     1       5.132   4.411  19.222  0.00  0.00    +0.000 A 
ATOM     26  C   UNL     1       4.607   5.704  19.091  0.00  0.00    +0.000 A 
ATOM     27  C   UNL     1       3.321   5.884  18.570  0.00  0.00    +0.000 A 
ATOM     28  C   UNL     1       2.618   4.764  18.094  0.00  0.00    +0.000 A 
ENDBRANCH  16  27
ENDBRANCH   1  19
TORSDOF 3
ENDMDL
MODEL 9
REMARK VINA RESULT:      -7.7      1.528      2.299
REMARK  Name = 
REMARK  6 active torsions:
REMARK  status: ('A' for Active; 'I' for Inactive)
REMARK    1  A    between atoms: C_1  and  C_2
REMARK    2  A    between atoms: C_6  and  N_7
REMARK    3  A    between atoms: C_10  and  C_11
REMARK    4  A    between atoms: N_13  and  C_14
REMARK    5  A    between atoms: C_17  and  C_18
REMARK    6  A    between atoms: C_25  and  C_26
REMARK                            x       y       z     vdW  Elec       q    Type
REMARK                         _______ _______ _______ _____ _____    ______ ____
ROOT
ATOM      1  C   UNL     1       0.883   8.123  20.685  0.00  0.00    +0.000 C 
ATOM      2  O   UNL     1       0.026   8.056  21.564  0.00  0.00    +0.000 OA
ATOM      3  N   UNL     1       1.063   9.277  19.939  0.00  0.00    +0.000 N 
ATOM      4  H   UNL     1       1.409   9.135  19.004  0.00  0.00    +0.000 HD
ENDROOT
BRANCH   3   5
ATOM      5  C   UNL     1       0.242  10.448  20.130  0.00  0.00    +0.000 A 
ATOM      6  C   UNL     1       0.671  11.331  21.128  0.00  0.00    +0.000 A 
ATOM      7  C   UNL     1      -0.026  12.508  21.386  0.00  0.00    +0.000 A 
ATOM      8  C   UNL     1      -1.216  12.791  20.707  0.00  0.00    +0.000 A 
ATOM      9  C   UNL     1      -1.972  14.064  20.998  0.00  0.00    +0.000 C 
ATOM     10  C   UNL     1      -1.707  11.909  19.747  0.00  0.00    +0.000 A 
ATOM     11  N   UNL     1      -2.889  12.226  19.179  0.00  0.00    +0.000 NA
ATOM     12  C   UNL     1      -3.387  11.434  18.218  0.00  0.00    +0.000 A 
ATOM     13  C   UNL     1      -2.742  10.306  17.769  0.00  0.00    +0.000 A 
ATOM     14  C   UNL     1      -1.540   9.952  18.381  0.00  0.00    +0.000 A 
ATOM     15  C   UNL     1      -0.967  10.740  19.409  0.00  0.00    +0.000 A 
ENDBRANCH   3   5
BRANCH   1  19
ATOM     16  N   UNL     1       3.173   5.605  19.282  0.00  0.00    +0.000 N 
ATOM     17  N   UNL     1       2.642   4.839  20.271  0.00  0.00    +0.000 NA
ATOM     18  C   UNL     1       1.824   5.665  20.937  0.00  0.00    +0.000 A 
ATOM     19  C   UNL     1       1.708   6.944  20.349  0.00  0.00    +0.000 A 
ATOM     20  C   UNL     1       2.552   6.849  19.240  0.00  0.00    +0.000 A 
ATOM     21  C   UNL     1       2.717   7.792  18.097  0.00  0.00    +0.000 C 
BRANCH  16  27
ATOM     22  C   UNL     1       7.988   4.851  18.223  0.00  0.00    +0.000 C 
ATOM     23  C   UNL     1       6.539   4.754  17.836  0.00  0.00    +0.000 A 
ATOM     24  C   UNL     1       6.159   4.252  16.590  0.00  0.00    +0.000 A 
ATOM     25  C   UNL     1       4.806   4.119  16.271  0.00  0.00    +0.000 A 
ATOM     26  C   UNL     1       3.815   4.512  17.181  0.00  0.00    +0.000 A 
ATOM     27  C   UNL     1       4.179   5.084  18.405  0.00  0.00    +0.000 A 
ATOM     28  C   UNL     1       5.542   5.161  18.739  0.00  0.00    +0.000 A 
ENDBRANCH  16  27
ENDBRANCH   1  19
TORSDOF 3
ENDMDL
