MODEL 1
REMARK VINA RESULT:      -8.8      0.000      0.000
REMARK  Name = 
REMARK  1 active torsions:
REMARK  status: ('A' for Active; 'I' for Inactive)
REMARK    1  A    between atoms: C_9  and  C_11
REMARK                            x       y       z     vdW  Elec       q    Type
REMARK                         _______ _______ _______ _____ _____    ______ ____
ROOT
ATOM      1  O   UNL     1       3.711   1.870  17.817  0.00  0.00    +0.000 OA
ATOM      2  C   UNL     1       3.656   3.094  17.700  0.00  0.00    +0.000 C 
ATOM      3  N   UNL     1       2.606   3.808  18.218  0.00  0.00    +0.000 N 
ATOM      4  C   UNL     1       2.355   5.195  17.887  0.00  0.00    +0.000 C 
ATOM      5  C   UNL     1       3.378   6.165  18.539  0.00  0.00    +0.000 C 
ATOM      6  C   UNL     1       3.354   7.548  17.864  0.00  0.00    +0.000 C 
ATOM      7  C   UNL     1       2.023   8.266  18.052  0.00  0.00    +0.000 C 
ATOM      8  N   UNL     1       1.658   8.367  19.465  0.00  0.00    +0.000 N 
ATOM      9  C   UNL     1       0.848   9.378  20.024  0.00  0.00    +0.000 C 
ATOM     10  O   UNL     1       0.463   9.299  21.191  0.00  0.00    +0.000 OA
ATOM     11  C   UNL     1       1.748   7.133  20.247  0.00  0.00    +0.000 C 
ATOM     12  C   UNL     1       3.048   6.371  20.029  0.00  0.00    +0.000 C 
ATOM     13  O   UNL     1       4.744   5.672  18.506  0.00  0.00    +0.000 OA
ATOM     14  C   UNL     1       5.128   5.094  17.327  0.00  0.00    +0.000 A 
ATOM     15  C   UNL     1       6.090   5.763  16.571  0.00  0.00    +0.000 A 
ATOM     16  C   UNL     1       6.547   5.206  15.374  0.00  0.00    +0.000 A 
ATOM     17  C   UNL     1       6.068   3.965  14.952  0.00  0.00    +0.000 A 
ATOM     18  C   UNL     1       5.142   3.272  15.730  0.00  0.00    +0.000 A 
ATOM     19  C   UNL     1       4.667   3.837  16.919  0.00  0.00    +0.000 A 
ATOM     20  H   UNL     1       1.923   3.264  18.730  0.00  0.00    +0.000 HD
ENDROOT
BRANCH   9  21
ATOM     21  C   UNL     1       0.453  10.606  19.254  0.00  0.00    +0.000 A 
ATOM     22  N   UNL     1       1.284  11.678  19.364  0.00  0.00    +0.000 NA
ATOM     23  C   UNL     1       0.821  12.864  18.937  0.00  0.00    +0.000 A 
ATOM     24  C   UNL     1      -0.456  13.053  18.459  0.00  0.00    +0.000 A 
ATOM     25  C   UNL     1      -1.220  11.929  18.161  0.00  0.00    +0.000 A 
ATOM     26  C   UNL     1      -2.394  12.071  17.406  0.00  0.00    +0.000 A 
ATOM     27  C   UNL     1      -3.136  10.957  17.020  0.00  0.00    +0.000 A 
ATOM     28  C   UNL     1      -2.758   9.692  17.454  0.00  0.00    +0.000 A 
ATOM     29  C   UNL     1      -1.611   9.538  18.238  0.00  0.00    +0.000 A 
ATOM     30  C   UNL     1      -0.785  10.646  18.568  0.00  0.00    +0.000 A 
ENDBRANCH   9  21
TORSDOF 1
ENDMDL
MODEL 2
REMARK VINA RESULT:      -8.3      1.031      2.357
REMARK  Name = 
REMARK  1 active torsions:
REMARK  status: ('A' for Active; 'I' for Inactive)
REMARK    1  A    between atoms: C_9  and  C_11
REMARK                            x       y       z     vdW  Elec       q    Type
REMARK                         _______ _______ _______ _____ _____    ______ ____
ROOT
ATOM      1  O   UNL     1       3.695   2.211  17.815  0.00  0.00    +0.000 OA
ATOM      2  C   UNL     1       3.530   3.426  17.726  0.00  0.00    +0.000 C 
ATOM      3  N   UNL     1       2.473   4.045  18.343  0.00  0.00    +0.000 N 
ATOM      4  C   UNL     1       2.084   5.411  18.060  0.00  0.00    +0.000 C 
ATOM      5  C   UNL     1       3.076   6.454  18.642  0.00  0.00    +0.000 C 
ATOM      6  C   UNL     1       2.883   7.839  17.998  0.00  0.00    +0.000 C 
ATOM      7  C   UNL     1       1.518   8.442  18.309  0.00  0.00    +0.000 C 
ATOM      8  N   UNL     1       1.267   8.496  19.749  0.00  0.00    +0.000 N 
ATOM      9  C   UNL     1       0.428   9.430  20.393  0.00  0.00    +0.000 C 
ATOM     10  O   UNL     1       0.151   9.306  21.587  0.00  0.00    +0.000 OA
ATOM     11  C   UNL     1       1.523   7.264  20.498  0.00  0.00    +0.000 C 
ATOM     12  C   UNL     1       2.857   6.614  20.159  0.00  0.00    +0.000 C 
ATOM     13  O   UNL     1       4.470   6.076  18.486  0.00  0.00    +0.000 OA
ATOM     14  C   UNL     1       4.799   5.545  17.269  0.00  0.00    +0.000 A 
ATOM     15  C   UNL     1       5.636   6.301  16.448  0.00  0.00    +0.000 A 
ATOM     16  C   UNL     1       6.033   5.798  15.207  0.00  0.00    +0.000 A 
ATOM     17  C   UNL     1       5.623   4.526  14.804  0.00  0.00    +0.000 A 
ATOM     18  C   UNL     1       4.826   3.750  15.643  0.00  0.00    +0.000 A 
ATOM     19  C   UNL     1       4.408   4.260  16.878  0.00  0.00    +0.000 A 
ATOM     20  H   UNL     1       1.883   3.441  18.900  0.00  0.00    +0.000 HD
ENDROOT
BRANCH   9  21
ATOM     21  C   UNL     1      -0.130  10.630  19.682  0.00  0.00    +0.000 A 
ATOM     22  N   UNL     1      -1.278  10.432  18.979  0.00  0.00    +0.000 NA
ATOM     23  C   UNL     1      -1.640  11.388  18.107  0.00  0.00    +0.000 A 
ATOM     24  C   UNL     1      -0.884  12.509  17.853  0.00  0.00    +0.000 A 
ATOM     25  C   UNL     1       0.170  12.802  18.714  0.00  0.00    +0.000 A 
ATOM     26  C   UNL     1       0.768  14.070  18.668  0.00  0.00    +0.000 A 
ATOM     27  C   UNL     1       1.769  14.421  19.573  0.00  0.00    +0.000 A 
ATOM     28  C   UNL     1       2.240  13.481  20.481  0.00  0.00    +0.000 A 
ATOM     29  C   UNL     1       1.678  12.202  20.515  0.00  0.00    +0.000 A 
ATOM     30  C   UNL     1       0.594  11.846  19.667  0.00  0.00    +0.000 A 
ENDBRANCH   9  21
TORSDOF 1
ENDMDL
MODEL 3
REMARK VINA RESULT:      -7.3      2.437      8.533
REMARK  Name = 
REMARK  1 active torsions:
REMARK  status: ('A' for Active; 'I' for Inactive)
REMARK    1  A    between atoms: C_9  and  C_11
REMARK                            x       y       z     vdW  Elec       q    Type
REMARK                         _______ _______ _______ _____ _____    ______ ____
ROOT
ATOM      1  O   UNL     1      -2.730  12.397  18.362  0.00  0.00    +0.000 OA
ATOM      2  C   UNL     1      -1.905  11.638  18.869  0.00  0.00    +0.000 C 
ATOM      3  N   UNL     1      -1.322  10.635  18.137  0.00  0.00    +0.000 N 
ATOM      4  C   UNL     1      -0.556   9.563  18.737  0.00  0.00    +0.000 C 
ATOM      5  C   UNL     1       0.830  10.031  19.258  0.00  0.00    +0.000 C 
ATOM      6  C   UNL     1       1.440   9.010  20.236  0.00  0.00    +0.000 C 
ATOM      7  C   UNL     1       1.749   7.675  19.568  0.00  0.00    +0.000 C 
ATOM      8  N   UNL     1       2.601   7.845  18.391  0.00  0.00    +0.000 N 
ATOM      9  C   UNL     1       3.491   6.873  17.886  0.00  0.00    +0.000 C 
ATOM     10  O   UNL     1       4.052   7.040  16.802  0.00  0.00    +0.000 OA
ATOM     11  C   UNL     1       2.185   8.871  17.433  0.00  0.00    +0.000 C 
ATOM     12  C   UNL     1       1.816  10.196  18.086  0.00  0.00    +0.000 C 
ATOM     13  O   UNL     1       0.792  11.322  19.922  0.00  0.00    +0.000 OA
ATOM     14  C   UNL     1      -0.266  11.514  20.767  0.00  0.00    +0.000 A 
ATOM     15  C   UNL     1       0.014  11.603  22.131  0.00  0.00    +0.000 A 
ATOM     16  C   UNL     1      -1.021  11.830  23.041  0.00  0.00    +0.000 A 
ATOM     17  C   UNL     1      -2.328  12.005  22.586  0.00  0.00    +0.000 A 
ATOM     18  C   UNL     1      -2.603  11.964  21.220  0.00  0.00    +0.000 A 
ATOM     19  C   UNL     1      -1.572  11.715  20.307  0.00  0.00    +0.000 A 
ATOM     20  H   UNL     1      -1.588  10.601  17.161  0.00  0.00    +0.000 HD
ENDROOT
BRANCH   9  21
ATOM     21  C   UNL     1       3.831   5.624  18.648  0.00  0.00    +0.000 A 
ATOM     22  N   UNL     1       5.049   5.604  19.254  0.00  0.00    +0.000 NA
ATOM     23  C   UNL     1       5.502   4.416  19.689  0.00  0.00    +0.000 A 
ATOM     24  C   UNL     1       4.829   3.231  19.496  0.00  0.00    +0.000 A 
ATOM     25  C   UNL     1       3.507   3.286  19.065  0.00  0.00    +0.000 A 
ATOM     26  C   UNL     1       2.706   2.138  19.141  0.00  0.00    +0.000 A 
ATOM     27  C   UNL     1       1.357   2.183  18.795  0.00  0.00    +0.000 A 
ATOM     28  C   UNL     1       0.812   3.357  18.291  0.00  0.00    +0.000 A 
ATOM     29  C   UNL     1       1.607   4.501  18.176  0.00  0.00    +0.000 A 
ATOM     30  C   UNL     1       2.961   4.509  18.607  0.00  0.00    +0.000 A 
ENDBRANCH   9  21
TORSDOF 1
ENDMDL
MODEL 4
REMARK VINA RESULT:      -7.0      1.717      2.294
REMARK  Name = 
REMARK  1 active torsions:
REMARK  status: ('A' for Active; 'I' for Inactive)
REMARK    1  A    between atoms: C_9  and  C_11
REMARK                            x       y       z     vdW  Elec       q    Type
REMARK                         _______ _______ _______ _____ _____    ______ ____
ROOT
ATOM      1  O   UNL     1       3.584   1.815  17.424  0.00  0.00    +0.000 OA
ATOM      2  C   UNL     1       3.587   3.036  17.572  0.00  0.00    +0.000 C 
ATOM      3  N   UNL     1       2.502   3.688  18.099  0.00  0.00    +0.000 N 
ATOM      4  C   UNL     1       2.346   5.127  18.052  0.00  0.00    +0.000 C 
ATOM      5  C   UNL     1       3.304   5.869  19.023  0.00  0.00    +0.000 C 
ATOM      6  C   UNL     1       3.419   7.363  18.670  0.00  0.00    +0.000 C 
ATOM      7  C   UNL     1       2.101   8.107  18.844  0.00  0.00    +0.000 C 
ATOM      8  N   UNL     1       1.552   7.928  20.188  0.00  0.00    +0.000 N 
ATOM      9  C   UNL     1       0.709   8.846  20.850  0.00  0.00    +0.000 C 
ATOM     10  O   UNL     1       0.168   8.544  21.915  0.00  0.00    +0.000 OA
ATOM     11  C   UNL     1       1.493   6.552  20.686  0.00  0.00    +0.000 C 
ATOM     12  C   UNL     1       2.783   5.773  20.469  0.00  0.00    +0.000 C 
ATOM     13  O   UNL     1       4.645   5.310  19.052  0.00  0.00    +0.000 OA
ATOM     14  C   UNL     1       5.164   4.972  17.833  0.00  0.00    +0.000 A 
ATOM     15  C   UNL     1       6.242   5.725  17.367  0.00  0.00    +0.000 A 
ATOM     16  C   UNL     1       6.836   5.409  16.144  0.00  0.00    +0.000 A 
ATOM     17  C   UNL     1       6.377   4.318  15.404  0.00  0.00    +0.000 A 
ATOM     18  C   UNL     1       5.331   3.535  15.890  0.00  0.00    +0.000 A 
ATOM     19  C   UNL     1       4.719   3.863  17.105  0.00  0.00    +0.000 A 
ATOM     20  H   UNL     1       1.738   3.092  18.391  0.00  0.00    +0.000 HD
ENDROOT
BRANCH   9  21
ATOM     21  C   UNL     1       0.464  10.231  20.325  0.00  0.00    +0.000 A 
ATOM     22  N   UNL     1       0.919  10.487  19.069  0.00  0.00    +0.000 NA
ATOM     23  C   UNL     1       0.980  11.774  18.685  0.00  0.00    +0.000 A 
ATOM     24  C   UNL     1       0.666  12.828  19.512  0.00  0.00    +0.000 A 
ATOM     25  C   UNL     1       0.013  12.554  20.710  0.00  0.00    +0.000 A 
ATOM     26  C   UNL     1      -0.580  13.601  21.430  0.00  0.00    +0.000 A 
ATOM     27  C   UNL     1      -1.312  13.348  22.588  0.00  0.00    +0.000 A 
ATOM     28  C   UNL     1      -1.391  12.054  23.087  0.00  0.00    +0.000 A 
ATOM     29  C   UNL     1      -0.774  11.004  22.400  0.00  0.00    +0.000 A 
ATOM     30  C   UNL     1      -0.100  11.220  21.168  0.00  0.00    +0.000 A 
ENDBRANCH   9  21
TORSDOF 1
ENDMDL
MODEL 5
REMARK VINA RESULT:      -7.0      2.379      3.703
REMARK  Name = 
REMARK  1 active torsions:
REMARK  status: ('A' for Active; 'I' for Inactive)
REMARK    1  A    between atoms: C_9  and  C_11
REMARK                            x       y       z     vdW  Elec       q    Type
REMARK                         _______ _______ _______ _____ _____    ______ ____
ROOT
ATOM      1  O   UNL     1       5.778   4.008  16.748  0.00  0.00    +0.000 OA
ATOM      2  C   UNL     1       4.853   4.445  17.431  0.00  0.00    +0.000 C 
ATOM      3  N   UNL     1       4.815   5.762  17.813  0.00  0.00    +0.000 N 
ATOM      4  C   UNL     1       3.906   6.265  18.822  0.00  0.00    +0.000 C 
ATOM      5  C   UNL     1       2.435   6.333  18.328  0.00  0.00    +0.000 C 
ATOM      6  C   UNL     1       1.450   6.468  19.503  0.00  0.00    +0.000 C 
ATOM      7  C   UNL     1       1.625   7.777  20.264  0.00  0.00    +0.000 C 
ATOM      8  N   UNL     1       1.538   8.934  19.374  0.00  0.00    +0.000 N 
ATOM      9  C   UNL     1       1.117  10.225  19.759  0.00  0.00    +0.000 C 
ATOM     10  O   UNL     1       1.223  11.176  18.983  0.00  0.00    +0.000 OA
ATOM     11  C   UNL     1       2.348   8.878  18.156  0.00  0.00    +0.000 C 
ATOM     12  C   UNL     1       2.232   7.554  17.412  0.00  0.00    +0.000 C 
ATOM     13  O   UNL     1       2.037   5.181  17.538  0.00  0.00    +0.000 OA
ATOM     14  C   UNL     1       2.457   3.970  18.016  0.00  0.00    +0.000 A 
ATOM     15  C   UNL     1       1.480   3.100  18.499  0.00  0.00    +0.000 A 
ATOM     16  C   UNL     1       1.844   1.837  18.971  0.00  0.00    +0.000 A 
ATOM     17  C   UNL     1       3.178   1.431  18.927  0.00  0.00    +0.000 A 
ATOM     18  C   UNL     1       4.150   2.280  18.400  0.00  0.00    +0.000 A 
ATOM     19  C   UNL     1       3.791   3.555  17.947  0.00  0.00    +0.000 A 
ATOM     20  H   UNL     1       5.568   6.338  17.457  0.00  0.00    +0.000 HD
ENDROOT
BRANCH   9  21
ATOM     21  C   UNL     1       0.488  10.498  21.095  0.00  0.00    +0.000 A 
ATOM     22  N   UNL     1       0.912   9.720  22.128  0.00  0.00    +0.000 NA
ATOM     23  C   UNL     1       0.176   9.734  23.253  0.00  0.00    +0.000 A 
ATOM     24  C   UNL     1      -1.000  10.439  23.382  0.00  0.00    +0.000 A 
ATOM     25  C   UNL     1      -1.314  11.381  22.407  0.00  0.00    +0.000 A 
ATOM     26  C   UNL     1      -2.332  12.314  22.649  0.00  0.00    +0.000 A 
ATOM     27  C   UNL     1      -2.613  13.321  21.728  0.00  0.00    +0.000 A 
ATOM     28  C   UNL     1      -1.934  13.359  20.517  0.00  0.00    +0.000 A 
ATOM     29  C   UNL     1      -0.941  12.413  20.245  0.00  0.00    +0.000 A 
ATOM     30  C   UNL     1      -0.570  11.432  21.204  0.00  0.00    +0.000 A 
ENDBRANCH   9  21
TORSDOF 1
ENDMDL
MODEL 6
REMARK VINA RESULT:      -6.9      5.597      8.740
REMARK  Name = 
REMARK  1 active torsions:
REMARK  status: ('A' for Active; 'I' for Inactive)
REMARK    1  A    between atoms: C_9  and  C_11
REMARK                            x       y       z     vdW  Elec       q    Type
REMARK                         _______ _______ _______ _____ _____    ______ ____
ROOT
ATOM      1  O   UNL     1       1.541  10.140  18.179  0.00  0.00    +0.000 OA
ATOM      2  C   UNL     1       1.104  11.035  18.901  0.00  0.00    +0.000 C 
ATOM      3  N   UNL     1      -0.146  10.948  19.459  0.00  0.00    +0.000 N 
ATOM      4  C   UNL     1      -0.809  12.070  20.090  0.00  0.00    +0.000 C 
ATOM      5  C   UNL     1      -0.187  12.443  21.463  0.00  0.00    +0.000 C 
ATOM      6  C   UNL     1      -0.615  13.851  21.913  0.00  0.00    +0.000 C 
ATOM      7  C   UNL     1      -2.114  13.951  22.169  0.00  0.00    +0.000 C 
ATOM      8  N   UNL     1      -2.568  12.937  23.121  0.00  0.00    +0.000 N 
ATOM      9  C   UNL     1      -3.689  13.064  23.969  0.00  0.00    +0.000 C 
ATOM     10  O   UNL     1      -4.091  12.102  24.624  0.00  0.00    +0.000 OA
ATOM     11  C   UNL     1      -2.132  11.564  22.863  0.00  0.00    +0.000 C 
ATOM     12  C   UNL     1      -0.646  11.450  22.547  0.00  0.00    +0.000 C 
ATOM     13  O   UNL     1       1.265  12.389  21.474  0.00  0.00    +0.000 OA
ATOM     14  C   UNL     1       1.878  12.918  20.372  0.00  0.00    +0.000 A 
ATOM     15  C   UNL     1       2.615  14.088  20.550  0.00  0.00    +0.000 A 
ATOM     16  C   UNL     1       3.290  14.658  19.468  0.00  0.00    +0.000 A 
ATOM     17  C   UNL     1       3.258  14.039  18.218  0.00  0.00    +0.000 A 
ATOM     18  C   UNL     1       2.561  12.843  18.048  0.00  0.00    +0.000 A 
ATOM     19  C   UNL     1       1.866  12.282  19.125  0.00  0.00    +0.000 A 
ATOM     20  H   UNL     1      -0.646  10.088  19.269  0.00  0.00    +0.000 HD
ENDROOT
BRANCH   9  21
ATOM     21  C   UNL     1      -4.414  14.367  24.151  0.00  0.00    +0.000 A 
ATOM     22  N   UNL     1      -5.700  14.406  23.708  0.00  0.00    +0.000 NA
ATOM     23  C   UNL     1      -6.275  15.614  23.586  0.00  0.00    +0.000 A 
ATOM     24  C   UNL     1      -5.612  16.797  23.826  0.00  0.00    +0.000 A 
ATOM     25  C   UNL     1      -4.379  16.743  24.467  0.00  0.00    +0.000 A 
ATOM     26  C   UNL     1      -3.818  17.918  24.988  0.00  0.00    +0.000 A 
ATOM     27  C   UNL     1      -2.625  17.884  25.708  0.00  0.00    +0.000 A 
ATOM     28  C   UNL     1      -1.936  16.685  25.846  0.00  0.00    +0.000 A 
ATOM     29  C   UNL     1      -2.465  15.511  25.301  0.00  0.00    +0.000 A 
ATOM     30  C   UNL     1      -3.723  15.501  24.642  0.00  0.00    +0.000 A 
ENDBRANCH   9  21
TORSDOF 1
ENDMDL
MODEL 7
REMARK VINA RESULT:      -6.9      2.354      3.589
REMARK  Name = 
REMARK  1 active torsions:
REMARK  status: ('A' for Active; 'I' for Inactive)
REMARK    1  A    between atoms: C_9  and  C_11
REMARK                            x       y       z     vdW  Elec       q    Type
REMARK                         _______ _______ _______ _____ _____    ______ ____
ROOT
ATOM      1  O   UNL     1       5.483   3.275  19.099  0.00  0.00    +0.000 OA
ATOM      2  C   UNL     1       4.573   4.061  19.357  0.00  0.00    +0.000 C 
ATOM      3  N   UNL     1       4.720   5.408  19.144  0.00  0.00    +0.000 N 
ATOM      4  C   UNL     1       3.797   6.395  19.666  0.00  0.00    +0.000 C 
ATOM      5  C   UNL     1       2.432   6.395  18.927  0.00  0.00    +0.000 C 
ATOM      6  C   UNL     1       1.351   7.134  19.736  0.00  0.00    +0.000 C 
ATOM      7  C   UNL     1       1.658   8.617  19.903  0.00  0.00    +0.000 C 
ATOM      8  N   UNL     1       1.884   9.270  18.614  0.00  0.00    +0.000 N 
ATOM      9  C   UNL     1       1.652  10.636  18.344  0.00  0.00    +0.000 C 
ATOM     10  O   UNL     1       2.016  11.135  17.279  0.00  0.00    +0.000 OA
ATOM     11  C   UNL     1       2.813   8.602  17.702  0.00  0.00    +0.000 C 
ATOM     12  C   UNL     1       2.558   7.106  17.566  0.00  0.00    +0.000 C 
ATOM     13  O   UNL     1       1.937   5.063  18.627  0.00  0.00    +0.000 OA
ATOM     14  C   UNL     1       2.078   4.147  19.632  0.00  0.00    +0.000 A 
ATOM     15  C   UNL     1       0.913   3.684  20.243  0.00  0.00    +0.000 A 
ATOM     16  C   UNL     1       0.990   2.724  21.255  0.00  0.00    +0.000 A 
ATOM     17  C   UNL     1       2.228   2.201  21.630  0.00  0.00    +0.000 A 
ATOM     18  C   UNL     1       3.390   2.626  20.987  0.00  0.00    +0.000 A 
ATOM     19  C   UNL     1       3.317   3.604  19.989  0.00  0.00    +0.000 A 
ATOM     20  H   UNL     1       5.599   5.687  18.727  0.00  0.00    +0.000 HD
ENDROOT
BRANCH   9  21
ATOM     21  C   UNL     1       0.923  11.531  19.306  0.00  0.00    +0.000 A 
ATOM     22  N   UNL     1       1.682  12.125  20.266  0.00  0.00    +0.000 NA
ATOM     23  C   UNL     1       1.037  12.687  21.302  0.00  0.00    +0.000 A 
ATOM     24  C   UNL     1      -0.329  12.635  21.464  0.00  0.00    +0.000 A 
ATOM     25  C   UNL     1      -1.104  12.211  20.389  0.00  0.00    +0.000 A 
ATOM     26  C   UNL     1      -2.491  12.422  20.410  0.00  0.00    +0.000 A 
ATOM     27  C   UNL     1      -3.282  12.085  19.314  0.00  0.00    +0.000 A 
ATOM     28  C   UNL     1      -2.709  11.457  18.215  0.00  0.00    +0.000 A 
ATOM     29  C   UNL     1      -1.334  11.207  18.194  0.00  0.00    +0.000 A 
ATOM     30  C   UNL     1      -0.489  11.623  19.258  0.00  0.00    +0.000 A 
ENDBRANCH   9  21
TORSDOF 1
ENDMDL
MODEL 8
REMARK VINA RESULT:      -6.8      7.696     11.599
REMARK  Name = 
REMARK  1 active torsions:
REMARK  status: ('A' for Active; 'I' for Inactive)
REMARK    1  A    between atoms: C_9  and  C_11
REMARK                            x       y       z     vdW  Elec       q    Type
REMARK                         _______ _______ _______ _____ _____    ______ ____
ROOT
ATOM      1  O   UNL     1       0.870  17.206  17.902  0.00  0.00    +0.000 OA
ATOM      2  C   UNL     1       1.872  16.552  18.188  0.00  0.00    +0.000 C 
ATOM      3  N   UNL     1       3.103  16.887  17.684  0.00  0.00    +0.000 N 
ATOM      4  C   UNL     1       4.255  16.013  17.769  0.00  0.00    +0.000 C 
ATOM      5  C   UNL     1       4.834  15.917  19.206  0.00  0.00    +0.000 C 
ATOM      6  C   UNL     1       5.766  14.702  19.360  0.00  0.00    +0.000 C 
ATOM      7  C   UNL     1       7.012  14.808  18.487  0.00  0.00    +0.000 C 
ATOM      8  N   UNL     1       7.735  16.056  18.729  0.00  0.00    +0.000 N 
ATOM      9  C   UNL     1       9.122  16.240  18.541  0.00  0.00    +0.000 C 
ATOM     10  O   UNL     1       9.621  17.363  18.618  0.00  0.00    +0.000 OA
ATOM     11  C   UNL     1       6.935  17.282  18.719  0.00  0.00    +0.000 C 
ATOM     12  C   UNL     1       5.656  17.177  19.539  0.00  0.00    +0.000 C 
ATOM     13  O   UNL     1       3.813  15.833  20.236  0.00  0.00    +0.000 OA
ATOM     14  C   UNL     1       2.763  15.004  19.952  0.00  0.00    +0.000 A 
ATOM     15  C   UNL     1       2.641  13.843  20.717  0.00  0.00    +0.000 A 
ATOM     16  C   UNL     1       1.571  12.973  20.496  0.00  0.00    +0.000 A 
ATOM     17  C   UNL     1       0.605  13.280  19.537  0.00  0.00    +0.000 A 
ATOM     18  C   UNL     1       0.699  14.463  18.805  0.00  0.00    +0.000 A 
ATOM     19  C   UNL     1       1.782  15.326  19.009  0.00  0.00    +0.000 A 
ATOM     20  H   UNL     1       3.124  17.721  17.111  0.00  0.00    +0.000 HD
ENDROOT
BRANCH   9  21
ATOM     21  C   UNL     1      10.056  15.092  18.286  0.00  0.00    +0.000 A 
ATOM     22  N   UNL     1      10.719  15.109  17.098  0.00  0.00    +0.000 NA
ATOM     23  C   UNL     1      11.326  13.974  16.713  0.00  0.00    +0.000 A 
ATOM     24  C   UNL     1      11.257  12.798  17.425  0.00  0.00    +0.000 A 
ATOM     25  C   UNL     1      10.758  12.842  18.723  0.00  0.00    +0.000 A 
ATOM     26  C   UNL     1      10.943  11.742  19.573  0.00  0.00    +0.000 A 
ATOM     27  C   UNL     1      10.529  11.787  20.903  0.00  0.00    +0.000 A 
ATOM     28  C   UNL     1       9.850  12.903  21.377  0.00  0.00    +0.000 A 
ATOM     29  C   UNL     1       9.626  13.994  20.532  0.00  0.00    +0.000 A 
ATOM     30  C   UNL     1      10.118  14.011  19.199  0.00  0.00    +0.000 A 
ENDBRANCH   9  21
TORSDOF 1
ENDMDL
MODEL 9
REMARK VINA RESULT:      -6.8      1.521      1.647
REMARK  Name = 
REMARK  1 active torsions:
REMARK  status: ('A' for Active; 'I' for Inactive)
REMARK    1  A    between atoms: C_9  and  C_11
REMARK                            x       y       z     vdW  Elec       q    Type
REMARK                         _______ _______ _______ _____ _____    ______ ____
ROOT
ATOM      1  O   UNL     1       3.091   2.013  17.563  0.00  0.00    +0.000 OA
ATOM      2  C   UNL     1       3.203   3.238  17.559  0.00  0.00    +0.000 C 
ATOM      3  N   UNL     1       2.203   4.042  18.042  0.00  0.00    +0.000 N 
ATOM      4  C   UNL     1       2.166   5.473  17.824  0.00  0.00    +0.000 C 
ATOM      5  C   UNL     1       3.228   6.238  18.660  0.00  0.00    +0.000 C 
ATOM      6  C   UNL     1       3.451   7.663  18.123  0.00  0.00    +0.000 C 
ATOM      7  C   UNL     1       2.209   8.537  18.252  0.00  0.00    +0.000 C 
ATOM      8  N   UNL     1       1.712   8.568  19.627  0.00  0.00    +0.000 N 
ATOM      9  C   UNL     1       0.981   9.630  20.202  0.00  0.00    +0.000 C 
ATOM     10  O   UNL     1       0.468   9.507  21.315  0.00  0.00    +0.000 OA
ATOM     11  C   UNL     1       1.561   7.273  20.292  0.00  0.00    +0.000 C 
ATOM     12  C   UNL     1       2.770   6.362  20.126  0.00  0.00    +0.000 C 
ATOM     13  O   UNL     1       4.517   5.570  18.708  0.00  0.00    +0.000 OA
ATOM     14  C   UNL     1       4.947   5.044  17.521  0.00  0.00    +0.000 A 
ATOM     15  C   UNL     1       6.061   5.637  16.927  0.00  0.00    +0.000 A 
ATOM     16  C   UNL     1       6.568   5.125  15.731  0.00  0.00    +0.000 A 
ATOM     17  C   UNL     1       5.984   3.999  15.148  0.00  0.00    +0.000 A 
ATOM     18  C   UNL     1       4.901   3.376  15.765  0.00  0.00    +0.000 A 
ATOM     19  C   UNL     1       4.377   3.900  16.953  0.00  0.00    +0.000 A 
ATOM     20  H   UNL     1       1.406   3.555  18.433  0.00  0.00    +0.000 HD
ENDROOT
BRANCH   9  21
ATOM     21  C   UNL     1       0.827  10.960  19.521  0.00  0.00    +0.000 A 
ATOM     22  N   UNL     1       1.784  11.280  18.607  0.00  0.00    +0.000 NA
ATOM     23  C   UNL     1       1.844  12.559  18.200  0.00  0.00    +0.000 A 
ATOM     24  C   UNL     1       1.037  13.554  18.702  0.00  0.00    +0.000 A 
ATOM     25  C   UNL     1      -0.061  13.185  19.474  0.00  0.00    +0.000 A 
ATOM     26  C   UNL     1      -1.060  14.130  19.752  0.00  0.00    +0.000 A 
ATOM     27  C   UNL     1      -2.211  13.769  20.450  0.00  0.00    +0.000 A 
ATOM     28  C   UNL     1      -2.340  12.479  20.950  0.00  0.00    +0.000 A 
ATOM     29  C   UNL     1      -1.336  11.536  20.712  0.00  0.00    +0.000 A 
ATOM     30  C   UNL     1      -0.195  11.851  19.925  0.00  0.00    +0.000 A 
ENDBRANCH   9  21
TORSDOF 1
ENDMDL
