MODEL 1
REMARK VINA RESULT:      -9.1      0.000      0.000
REMARK  Name = 
REMARK  5 active torsions:
REMARK  status: ('A' for Active; 'I' for Inactive)
REMARK    1  A    between atoms: C_1  and  N_2
REMARK    2  A    between atoms: C_6  and  C_7
REMARK    3  A    between atoms: C_8  and  C_9
REMARK    4  A    between atoms: C_13  and  N_14
REMARK    5  A    between atoms: C_21  and  C_22
REMARK                            x       y       z     vdW  Elec       q    Type
REMARK                         _______ _______ _______ _____ _____    ______ ____
ROOT
ATOM      1  C   UNL     1       2.162   7.488  19.611  0.00  0.00    +0.000 A 
ATOM      2  C   UNL     1       2.546   8.198  18.470  0.00  0.00    +0.000 A 
ATOM      3  C   UNL     1       3.106   7.527  17.386  0.00  0.00    +0.000 A 
ATOM      4  C   UNL     1       3.389   6.168  17.481  0.00  0.00    +0.000 A 
ATOM      5  C   UNL     1       3.252   5.518  18.717  0.00  0.00    +0.000 A 
ATOM      6  C   UNL     1       2.516   6.139  19.728  0.00  0.00    +0.000 A 
ENDROOT
BRANCH   5   7
ATOM      7  N   UNL     1       4.217   4.500  19.118  0.00  0.00    +0.000 N 
ATOM      8  C   UNL     1       5.557   5.121  19.273  0.00  0.00    +0.000 C 
ATOM      9  C   UNL     1       6.119   4.983  17.889  0.00  0.00    +0.000 A 
ATOM     10  C   UNL     1       5.525   3.854  17.315  0.00  0.00    +0.000 A 
ATOM     11  C   UNL     1       5.667   3.524  15.980  0.00  0.00    +0.000 A 
ATOM     12  C   UNL     1       6.424   4.385  15.190  0.00  0.00    +0.000 A 
ATOM     13  C   UNL     1       7.008   5.540  15.747  0.00  0.00    +0.000 A 
ATOM     14  C   UNL     1       6.866   5.864  17.114  0.00  0.00    +0.000 A 
ATOM     15  C   UNL     1       4.404   3.441  18.193  0.00  0.00    +0.000 C 
ATOM     16  O   UNL     1       3.686   2.481  17.988  0.00  0.00    +0.000 OA
BRANCH  14  17
ATOM     17  C   UNL     1       7.408   7.177  17.620  0.00  0.00    +0.000 C 
ATOM     18  F   UNL     1       6.452   8.102  17.904  0.00  0.00    +0.000 F 
ATOM     19  F   UNL     1       8.127   7.028  18.765  0.00  0.00    +0.000 F 
ATOM     20  F   UNL     1       8.246   7.770  16.726  0.00  0.00    +0.000 F 
ENDBRANCH  14  17
ENDBRANCH   5   7
BRANCH   1  22
ATOM     21  C   UNL     1       0.751   9.289  20.476  0.00  0.00    +0.000 C 
ATOM     22  C   UNL     1       1.502   8.195  20.710  0.00  0.00    +0.000 C 
BRANCH  21  28
ATOM     23  C   UNL     1      -1.203  11.521  20.038  0.00  0.00    +0.000 C 
ATOM     24  N   UNL     1      -0.745  11.007  21.303  0.00  0.00    +0.000 N 
ATOM     25  C   UNL     1      -1.139  11.467  22.526  0.00  0.00    +0.000 A 
ATOM     26  N   UNL     1      -0.552  10.766  23.465  0.00  0.00    +0.000 NA
ATOM     27  N   UNL     1       0.248   9.832  22.842  0.00  0.00    +0.000 NA
ATOM     28  C   UNL     1       0.138   9.985  21.540  0.00  0.00    +0.000 A 
ENDBRANCH  21  28
ENDBRANCH   1  22
TORSDOF 4
ENDMDL
MODEL 2
REMARK VINA RESULT:      -8.8      4.388      6.481
REMARK  Name = 
REMARK  5 active torsions:
REMARK  status: ('A' for Active; 'I' for Inactive)
REMARK    1  A    between atoms: C_1  and  N_2
REMARK    2  A    between atoms: C_6  and  C_7
REMARK    3  A    between atoms: C_8  and  C_9
REMARK    4  A    between atoms: C_13  and  N_14
REMARK    5  A    between atoms: C_21  and  C_22
REMARK                            x       y       z     vdW  Elec       q    Type
REMARK                         _______ _______ _______ _____ _____    ______ ____
ROOT
ATOM      1  C   UNL     1       7.803   7.733  17.795  0.00  0.00    +0.000 A 
ATOM      2  C   UNL     1       7.866   6.938  18.943  0.00  0.00    +0.000 A 
ATOM      3  C   UNL     1       7.749   5.554  18.841  0.00  0.00    +0.000 A 
ATOM      4  C   UNL     1       7.455   4.969  17.613  0.00  0.00    +0.000 A 
ATOM      5  C   UNL     1       7.128   5.786  16.520  0.00  0.00    +0.000 A 
ATOM      6  C   UNL     1       7.436   7.147  16.578  0.00  0.00    +0.000 A 
ENDROOT
BRANCH   5   7
ATOM      7  N   UNL     1       6.086   5.373  15.586  0.00  0.00    +0.000 N 
ATOM      8  C   UNL     1       4.885   6.226  15.774  0.00  0.00    +0.000 C 
ATOM      9  C   UNL     1       4.129   5.462  16.819  0.00  0.00    +0.000 A 
ATOM     10  C   UNL     1       4.467   4.112  16.668  0.00  0.00    +0.000 A 
ATOM     11  C   UNL     1       4.100   3.137  17.576  0.00  0.00    +0.000 A 
ATOM     12  C   UNL     1       3.379   3.549  18.693  0.00  0.00    +0.000 A 
ATOM     13  C   UNL     1       3.051   4.907  18.874  0.00  0.00    +0.000 A 
ATOM     14  C   UNL     1       3.421   5.895  17.936  0.00  0.00    +0.000 A 
ATOM     15  C   UNL     1       5.623   4.041  15.742  0.00  0.00    +0.000 C 
ATOM     16  O   UNL     1       6.158   3.008  15.386  0.00  0.00    +0.000 OA
BRANCH  14  17
ATOM     17  C   UNL     1       3.152   7.346  18.249  0.00  0.00    +0.000 C 
ATOM     18  F   UNL     1       2.734   7.574  19.522  0.00  0.00    +0.000 F 
ATOM     19  F   UNL     1       4.258   8.120  18.081  0.00  0.00    +0.000 F 
ATOM     20  F   UNL     1       2.195   7.880  17.440  0.00  0.00    +0.000 F 
ENDBRANCH  14  17
ENDBRANCH   5   7
BRANCH   1  22
ATOM     21  C   UNL     1       9.061   9.676  18.583  0.00  0.00    +0.000 C 
ATOM     22  C   UNL     1       8.007   9.177  17.907  0.00  0.00    +0.000 C 
BRANCH  21  28
ATOM     23  C   UNL     1       9.153  11.055  21.245  0.00  0.00    +0.000 C 
ATOM     24  N   UNL     1       9.270  11.669  19.947  0.00  0.00    +0.000 N 
ATOM     25  C   UNL     1       9.445  13.003  19.723  0.00  0.00    +0.000 A 
ATOM     26  N   UNL     1       9.536  13.220  18.434  0.00  0.00    +0.000 NA
ATOM     27  N   UNL     1       9.411  12.002  17.802  0.00  0.00    +0.000 NA
ATOM     28  C   UNL     1       9.242  11.069  18.714  0.00  0.00    +0.000 A 
ENDBRANCH  21  28
ENDBRANCH   1  22
TORSDOF 4
ENDMDL
MODEL 3
REMARK VINA RESULT:      -8.5      2.118      2.908
REMARK  Name = 
REMARK  5 active torsions:
REMARK  status: ('A' for Active; 'I' for Inactive)
REMARK    1  A    between atoms: C_1  and  N_2
REMARK    2  A    between atoms: C_6  and  C_7
REMARK    3  A    between atoms: C_8  and  C_9
REMARK    4  A    between atoms: C_13  and  N_14
REMARK    5  A    between atoms: C_21  and  C_22
REMARK                            x       y       z     vdW  Elec       q    Type
REMARK                         _______ _______ _______ _____ _____    ______ ____
ROOT
ATOM      1  C   UNL     1       1.253   8.719  19.906  0.00  0.00    +0.000 A 
ATOM      2  C   UNL     1       1.776   9.242  18.720  0.00  0.00    +0.000 A 
ATOM      3  C   UNL     1       2.482   8.420  17.846  0.00  0.00    +0.000 A 
ATOM      4  C   UNL     1       2.766   7.105  18.204  0.00  0.00    +0.000 A 
ATOM      5  C   UNL     1       2.473   6.665  19.505  0.00  0.00    +0.000 A 
ATOM      6  C   UNL     1       1.603   7.421  20.293  0.00  0.00    +0.000 A 
ENDROOT
BRANCH   5   7
ATOM      7  N   UNL     1       3.388   5.761  20.192  0.00  0.00    +0.000 N 
ATOM      8  C   UNL     1       4.538   5.450  19.306  0.00  0.00    +0.000 C 
ATOM      9  C   UNL     1       4.039   4.244  18.569  0.00  0.00    +0.000 A 
ATOM     10  C   UNL     1       3.136   3.590  19.414  0.00  0.00    +0.000 A 
ATOM     11  C   UNL     1       2.341   2.538  18.998  0.00  0.00    +0.000 A 
ATOM     12  C   UNL     1       2.450   2.148  17.666  0.00  0.00    +0.000 A 
ATOM     13  C   UNL     1       3.336   2.811  16.795  0.00  0.00    +0.000 A 
ATOM     14  C   UNL     1       4.152   3.878  17.231  0.00  0.00    +0.000 A 
ATOM     15  C   UNL     1       2.844   4.500  20.548  0.00  0.00    +0.000 C 
ATOM     16  O   UNL     1       2.102   4.229  21.473  0.00  0.00    +0.000 OA
BRANCH  14  17
ATOM     17  C   UNL     1       4.985   4.629  16.222  0.00  0.00    +0.000 C 
ATOM     18  F   UNL     1       4.630   5.932  16.065  0.00  0.00    +0.000 F 
ATOM     19  F   UNL     1       6.303   4.645  16.556  0.00  0.00    +0.000 F 
ATOM     20  F   UNL     1       4.920   4.072  14.981  0.00  0.00    +0.000 F 
ENDBRANCH  14  17
ENDBRANCH   5   7
BRANCH   1  22
ATOM     21  C   UNL     1       0.603  10.914  20.766  0.00  0.00    +0.000 C 
ATOM     22  C   UNL     1       0.446   9.576  20.775  0.00  0.00    +0.000 C 
BRANCH  21  28
ATOM     23  C   UNL     1      -0.696  13.456  19.845  0.00  0.00    +0.000 C 
ATOM     24  N   UNL     1      -0.730  12.897  21.172  0.00  0.00    +0.000 N 
ATOM     25  C   UNL     1      -1.373  13.452  22.241  0.00  0.00    +0.000 A 
ATOM     26  N   UNL     1      -1.224  12.678  23.288  0.00  0.00    +0.000 NA
ATOM     27  N   UNL     1      -0.462  11.598  22.897  0.00  0.00    +0.000 NA
ATOM     28  C   UNL     1      -0.156  11.737  21.625  0.00  0.00    +0.000 A 
ENDBRANCH  21  28
ENDBRANCH   1  22
TORSDOF 4
ENDMDL
MODEL 4
REMARK VINA RESULT:      -8.4      6.696      9.767
REMARK  Name = 
REMARK  5 active torsions:
REMARK  status: ('A' for Active; 'I' for Inactive)
REMARK    1  A    between atoms: C_1  and  N_2
REMARK    2  A    between atoms: C_6  and  C_7
REMARK    3  A    between atoms: C_8  and  C_9
REMARK    4  A    between atoms: C_13  and  N_14
REMARK    5  A    between atoms: C_21  and  C_22
REMARK                            x       y       z     vdW  Elec       q    Type
REMARK                         _______ _______ _______ _____ _____    ______ ____
ROOT
ATOM      1  C   UNL     1       8.986  10.336  18.250  0.00  0.00    +0.000 A 
ATOM      2  C   UNL     1       7.998  11.186  17.746  0.00  0.00    +0.000 A 
ATOM      3  C   UNL     1       8.321  12.488  17.371  0.00  0.00    +0.000 A 
ATOM      4  C   UNL     1       9.602  12.981  17.603  0.00  0.00    +0.000 A 
ATOM      5  C   UNL     1      10.511  12.217  18.352  0.00  0.00    +0.000 A 
ATOM      6  C   UNL     1      10.250  10.859  18.548  0.00  0.00    +0.000 A 
ENDROOT
BRANCH   5   7
ATOM      7  N   UNL     1      11.412  12.870  19.294  0.00  0.00    +0.000 N 
ATOM      8  C   UNL     1      11.084  12.437  20.676  0.00  0.00    +0.000 C 
ATOM      9  C   UNL     1      10.061  13.456  21.081  0.00  0.00    +0.000 A 
ATOM     10  C   UNL     1      10.342  14.627  20.368  0.00  0.00    +0.000 A 
ATOM     11  C   UNL     1       9.496  15.720  20.351  0.00  0.00    +0.000 A 
ATOM     12  C   UNL     1       8.308  15.615  21.069  0.00  0.00    +0.000 A 
ATOM     13  C   UNL     1       7.997  14.434  21.772  0.00  0.00    +0.000 A 
ATOM     14  C   UNL     1       8.872  13.326  21.793  0.00  0.00    +0.000 A 
ATOM     15  C   UNL     1      11.338  14.287  19.323  0.00  0.00    +0.000 C 
ATOM     16  O   UNL     1      11.808  15.085  18.535  0.00  0.00    +0.000 OA
BRANCH  14  17
ATOM     17  C   UNL     1       8.426  12.048  22.457  0.00  0.00    +0.000 C 
ATOM     18  F   UNL     1       8.720  10.921  21.754  0.00  0.00    +0.000 F 
ATOM     19  F   UNL     1       9.000  11.878  23.679  0.00  0.00    +0.000 F 
ATOM     20  F   UNL     1       7.081  12.016  22.668  0.00  0.00    +0.000 F 
ENDBRANCH  14  17
ENDBRANCH   5   7
BRANCH   1  22
ATOM     21  C   UNL     1       7.848   8.230  17.754  0.00  0.00    +0.000 C 
ATOM     22  C   UNL     1       8.649   8.948  18.565  0.00  0.00    +0.000 C 
BRANCH  21  28
ATOM     23  C   UNL     1       5.542   6.804  16.472  0.00  0.00    +0.000 C 
ATOM     24  N   UNL     1       6.435   6.281  17.473  0.00  0.00    +0.000 N 
ATOM     25  C   UNL     1       6.368   5.026  18.006  0.00  0.00    +0.000 A 
ATOM     26  N   UNL     1       7.340   4.868  18.870  0.00  0.00    +0.000 NA
ATOM     27  N   UNL     1       8.054   6.046  18.908  0.00  0.00    +0.000 NA
ATOM     28  C   UNL     1       7.502   6.900  18.073  0.00  0.00    +0.000 A 
ENDBRANCH  21  28
ENDBRANCH   1  22
TORSDOF 4
ENDMDL
MODEL 5
REMARK VINA RESULT:      -8.3      1.841      3.027
REMARK  Name = 
REMARK  5 active torsions:
REMARK  status: ('A' for Active; 'I' for Inactive)
REMARK    1  A    between atoms: C_1  and  N_2
REMARK    2  A    between atoms: C_6  and  C_7
REMARK    3  A    between atoms: C_8  and  C_9
REMARK    4  A    between atoms: C_13  and  N_14
REMARK    5  A    between atoms: C_21  and  C_22
REMARK                            x       y       z     vdW  Elec       q    Type
REMARK                         _______ _______ _______ _____ _____    ______ ____
ROOT
ATOM      1  C   UNL     1       2.155   4.955  20.714  0.00  0.00    +0.000 A 
ATOM      2  C   UNL     1       1.697   3.881  21.481  0.00  0.00    +0.000 A 
ATOM      3  C   UNL     1       2.378   2.667  21.459  0.00  0.00    +0.000 A 
ATOM      4  C   UNL     1       3.449   2.486  20.589  0.00  0.00    +0.000 A 
ATOM      5  C   UNL     1       3.736   3.472  19.632  0.00  0.00    +0.000 A 
ATOM      6  C   UNL     1       3.185   4.745  19.789  0.00  0.00    +0.000 A 
ENDROOT
BRANCH   5   7
ATOM      7  N   UNL     1       4.164   3.086  18.292  0.00  0.00    +0.000 N 
ATOM      8  C   UNL     1       5.619   3.346  18.142  0.00  0.00    +0.000 C 
ATOM      9  C   UNL     1       5.627   4.759  17.642  0.00  0.00    +0.000 A 
ATOM     10  C   UNL     1       4.430   4.956  16.945  0.00  0.00    +0.000 A 
ATOM     11  C   UNL     1       4.011   6.196  16.501  0.00  0.00    +0.000 A 
ATOM     12  C   UNL     1       4.828   7.284  16.793  0.00  0.00    +0.000 A 
ATOM     13  C   UNL     1       6.025   7.108  17.516  0.00  0.00    +0.000 A 
ATOM     14  C   UNL     1       6.450   5.836  17.957  0.00  0.00    +0.000 A 
ATOM     15  C   UNL     1       3.550   3.796  17.229  0.00  0.00    +0.000 C 
ATOM     16  O   UNL     1       2.435   3.648  16.765  0.00  0.00    +0.000 OA
BRANCH  14  17
ATOM     17  C   UNL     1       7.672   5.731  18.835  0.00  0.00    +0.000 C 
ATOM     18  F   UNL     1       8.500   4.700  18.517  0.00  0.00    +0.000 F 
ATOM     19  F   UNL     1       8.442   6.851  18.777  0.00  0.00    +0.000 F 
ATOM     20  F   UNL     1       7.353   5.563  20.148  0.00  0.00    +0.000 F 
ENDBRANCH  14  17
ENDBRANCH   5   7
BRANCH   1  22
ATOM     21  C   UNL     1       1.997   7.347  20.227  0.00  0.00    +0.000 C 
ATOM     22  C   UNL     1       1.475   6.248  20.807  0.00  0.00    +0.000 C 
BRANCH  21  28
ATOM     23  C   UNL     1       1.643   9.204  17.899  0.00  0.00    +0.000 C 
ATOM     24  N   UNL     1       1.217   9.426  19.256  0.00  0.00    +0.000 N 
ATOM     25  C   UNL     1       0.572  10.543  19.704  0.00  0.00    +0.000 A 
ATOM     26  N   UNL     1       0.310  10.412  20.981  0.00  0.00    +0.000 NA
ATOM     27  N   UNL     1       0.799   9.186  21.378  0.00  0.00    +0.000 NA
ATOM     28  C   UNL     1       1.354   8.598  20.341  0.00  0.00    +0.000 A 
ENDBRANCH  21  28
ENDBRANCH   1  22
TORSDOF 4
ENDMDL
MODEL 6
REMARK VINA RESULT:      -8.3      2.083      3.044
REMARK  Name = 
REMARK  5 active torsions:
REMARK  status: ('A' for Active; 'I' for Inactive)
REMARK    1  A    between atoms: C_1  and  N_2
REMARK    2  A    between atoms: C_6  and  C_7
REMARK    3  A    between atoms: C_8  and  C_9
REMARK    4  A    between atoms: C_13  and  N_14
REMARK    5  A    between atoms: C_21  and  C_22
REMARK                            x       y       z     vdW  Elec       q    Type
REMARK                         _______ _______ _______ _____ _____    ______ ____
ROOT
ATOM      1  C   UNL     1       1.427   8.807  19.167  0.00  0.00    +0.000 A 
ATOM      2  C   UNL     1       2.171   9.223  18.060  0.00  0.00    +0.000 A 
ATOM      3  C   UNL     1       2.996   8.320  17.395  0.00  0.00    +0.000 A 
ATOM      4  C   UNL     1       3.169   7.034  17.899  0.00  0.00    +0.000 A 
ATOM      5  C   UNL     1       2.634   6.706  19.154  0.00  0.00    +0.000 A 
ATOM      6  C   UNL     1       1.660   7.538  19.711  0.00  0.00    +0.000 A 
ENDROOT
BRANCH   5   7
ATOM      7  N   UNL     1       3.381   5.846  20.064  0.00  0.00    +0.000 N 
ATOM      8  C   UNL     1       4.625   5.381  19.399  0.00  0.00    +0.000 C 
ATOM      9  C   UNL     1       4.161   4.122  18.729  0.00  0.00    +0.000 A 
ATOM     10  C   UNL     1       3.106   3.614  19.494  0.00  0.00    +0.000 A 
ATOM     11  C   UNL     1       2.313   2.560  19.080  0.00  0.00    +0.000 A 
ATOM     12  C   UNL     1       2.587   2.013  17.829  0.00  0.00    +0.000 A 
ATOM     13  C   UNL     1       3.630   2.529  17.034  0.00  0.00    +0.000 A 
ATOM     14  C   UNL     1       4.441   3.599  17.470  0.00  0.00    +0.000 A 
ATOM     15  C   UNL     1       2.712   4.661  20.468  0.00  0.00    +0.000 C 
ATOM     16  O   UNL     1       1.830   4.535  21.295  0.00  0.00    +0.000 OA
BRANCH  14  17
ATOM     17  C   UNL     1       5.456   4.188  16.523  0.00  0.00    +0.000 C 
ATOM     18  F   UNL     1       6.636   4.525  17.108  0.00  0.00    +0.000 F 
ATOM     19  F   UNL     1       5.776   3.330  15.517  0.00  0.00    +0.000 F 
ATOM     20  F   UNL     1       5.002   5.321  15.918  0.00  0.00    +0.000 F 
ENDBRANCH  14  17
ENDBRANCH   5   7
BRANCH   1  22
ATOM     21  C   UNL     1       0.934  10.600  20.757  0.00  0.00    +0.000 C 
ATOM     22  C   UNL     1       0.504   9.745  19.808  0.00  0.00    +0.000 C 
BRANCH  21  28
ATOM     23  C   UNL     1      -0.520   9.895  23.283  0.00  0.00    +0.000 C 
ATOM     24  N   UNL     1      -0.617  11.127  22.543  0.00  0.00    +0.000 N 
ATOM     25  C   UNL     1      -1.404  12.188  22.884  0.00  0.00    +0.000 A 
ATOM     26  N   UNL     1      -1.239  13.151  22.012  0.00  0.00    +0.000 NA
ATOM     27  N   UNL     1      -0.328  12.708  21.076  0.00  0.00    +0.000 NA
ATOM     28  C   UNL     1       0.038  11.485  21.392  0.00  0.00    +0.000 A 
ENDBRANCH  21  28
ENDBRANCH   1  22
TORSDOF 4
ENDMDL
MODEL 7
REMARK VINA RESULT:      -8.2      1.657      2.600
REMARK  Name = 
REMARK  5 active torsions:
REMARK  status: ('A' for Active; 'I' for Inactive)
REMARK    1  A    between atoms: C_1  and  N_2
REMARK    2  A    between atoms: C_6  and  C_7
REMARK    3  A    between atoms: C_8  and  C_9
REMARK    4  A    between atoms: C_13  and  N_14
REMARK    5  A    between atoms: C_21  and  C_22
REMARK                            x       y       z     vdW  Elec       q    Type
REMARK                         _______ _______ _______ _____ _____    ______ ____
ROOT
ATOM      1  C   UNL     1       2.292   5.845  20.208  0.00  0.00    +0.000 A 
ATOM      2  C   UNL     1       1.385   5.047  20.912  0.00  0.00    +0.000 A 
ATOM      3  C   UNL     1       1.662   3.700  21.128  0.00  0.00    +0.000 A 
ATOM      4  C   UNL     1       2.785   3.119  20.547  0.00  0.00    +0.000 A 
ATOM      5  C   UNL     1       3.545   3.855  19.624  0.00  0.00    +0.000 A 
ATOM      6  C   UNL     1       3.379   5.240  19.567  0.00  0.00    +0.000 A 
ENDROOT
BRANCH   5   7
ATOM      7  N   UNL     1       4.105   3.197  18.450  0.00  0.00    +0.000 N 
ATOM      8  C   UNL     1       5.581   3.367  18.441  0.00  0.00    +0.000 C 
ATOM      9  C   UNL     1       5.736   4.653  17.686  0.00  0.00    +0.000 A 
ATOM     10  C   UNL     1       4.645   4.753  16.815  0.00  0.00    +0.000 A 
ATOM     11  C   UNL     1       4.360   5.895  16.092  0.00  0.00    +0.000 A 
ATOM     12  C   UNL     1       5.202   6.989  16.274  0.00  0.00    +0.000 A 
ATOM     13  C   UNL     1       6.290   6.914  17.166  0.00  0.00    +0.000 A 
ATOM     14  C   UNL     1       6.580   5.739  17.893  0.00  0.00    +0.000 A 
ATOM     15  C   UNL     1       3.667   3.706  17.200  0.00  0.00    +0.000 C 
ATOM     16  O   UNL     1       2.609   3.511  16.632  0.00  0.00    +0.000 OA
BRANCH  14  17
ATOM     17  C   UNL     1       7.680   5.763  18.924  0.00  0.00    +0.000 C 
ATOM     18  F   UNL     1       8.410   6.911  18.936  0.00  0.00    +0.000 F 
ATOM     19  F   UNL     1       7.200   5.622  20.189  0.00  0.00    +0.000 F 
ATOM     20  F   UNL     1       8.576   4.753  18.749  0.00  0.00    +0.000 F 
ENDBRANCH  14  17
ENDBRANCH   5   7
BRANCH   1  22
ATOM     21  C   UNL     1       1.177   7.913  20.889  0.00  0.00    +0.000 C 
ATOM     22  C   UNL     1       2.026   7.276  20.058  0.00  0.00    +0.000 C 
BRANCH  21  28
ATOM     23  C   UNL     1       0.028   9.605  23.082  0.00  0.00    +0.000 C 
ATOM     24  N   UNL     1       0.367  10.029  21.748  0.00  0.00    +0.000 N 
ATOM     25  C   UNL     1       0.214  11.296  21.264  0.00  0.00    +0.000 A 
ATOM     26  N   UNL     1       0.639  11.344  20.026  0.00  0.00    +0.000 NA
ATOM     27  N   UNL     1       1.074  10.079  19.690  0.00  0.00    +0.000 NA
ATOM     28  C   UNL     1       0.900   9.286  20.726  0.00  0.00    +0.000 A 
ENDBRANCH  21  28
ENDBRANCH   1  22
TORSDOF 4
ENDMDL
MODEL 8
REMARK VINA RESULT:      -8.2      2.151      3.122
REMARK  Name = 
REMARK  5 active torsions:
REMARK  status: ('A' for Active; 'I' for Inactive)
REMARK    1  A    between atoms: C_1  and  N_2
REMARK    2  A    between atoms: C_6  and  C_7
REMARK    3  A    between atoms: C_8  and  C_9
REMARK    4  A    between atoms: C_13  and  N_14
REMARK    5  A    between atoms: C_21  and  C_22
REMARK                            x       y       z     vdW  Elec       q    Type
REMARK                         _______ _______ _______ _____ _____    ______ ____
ROOT
ATOM      1  C   UNL     1       1.537   8.768  19.309  0.00  0.00    +0.000 A 
ATOM      2  C   UNL     1       2.202   9.121  18.131  0.00  0.00    +0.000 A 
ATOM      3  C   UNL     1       2.931   8.166  17.428  0.00  0.00    +0.000 A 
ATOM      4  C   UNL     1       3.092   6.888  17.954  0.00  0.00    +0.000 A 
ATOM      5  C   UNL     1       2.651   6.617  19.259  0.00  0.00    +0.000 A 
ATOM      6  C   UNL     1       1.764   7.505  19.869  0.00  0.00    +0.000 A 
ENDROOT
BRANCH   5   7
ATOM      7  N   UNL     1       3.436   5.749  20.129  0.00  0.00    +0.000 N 
ATOM      8  C   UNL     1       4.656   5.299  19.412  0.00  0.00    +0.000 C 
ATOM      9  C   UNL     1       4.173   4.046  18.745  0.00  0.00    +0.000 A 
ATOM     10  C   UNL     1       3.150   3.523  19.543  0.00  0.00    +0.000 A 
ATOM     11  C   UNL     1       2.348   2.470  19.146  0.00  0.00    +0.000 A 
ATOM     12  C   UNL     1       2.577   1.940  17.879  0.00  0.00    +0.000 A 
ATOM     13  C   UNL     1       3.586   2.471  17.052  0.00  0.00    +0.000 A 
ATOM     14  C   UNL     1       4.408   3.540  17.470  0.00  0.00    +0.000 A 
ATOM     15  C   UNL     1       2.789   4.557  20.543  0.00  0.00    +0.000 C 
ATOM     16  O   UNL     1       1.939   4.416  21.402  0.00  0.00    +0.000 OA
BRANCH  14  17
ATOM     17  C   UNL     1       5.383   4.145  16.492  0.00  0.00    +0.000 C 
ATOM     18  F   UNL     1       5.725   3.325  15.463  0.00  0.00    +0.000 F 
ATOM     19  F   UNL     1       4.894   5.275  15.913  0.00  0.00    +0.000 F 
ATOM     20  F   UNL     1       6.554   4.506  17.086  0.00  0.00    +0.000 F 
ENDBRANCH  14  17
ENDBRANCH   5   7
BRANCH   1  22
ATOM     21  C   UNL     1      -0.380  10.284  19.400  0.00  0.00    +0.000 C 
ATOM     22  C   UNL     1       0.711   9.762  19.995  0.00  0.00    +0.000 C 
BRANCH  21  28
ATOM     23  C   UNL     1      -2.742  11.600  18.103  0.00  0.00    +0.000 C 
ATOM     24  N   UNL     1      -2.229  11.850  19.425  0.00  0.00    +0.000 N 
ATOM     25  C   UNL     1      -2.751  12.746  20.313  0.00  0.00    +0.000 A 
ATOM     26  N   UNL     1      -2.061  12.707  21.426  0.00  0.00    +0.000 NA
ATOM     27  N   UNL     1      -1.063  11.771  21.261  0.00  0.00    +0.000 NA
ATOM     28  C   UNL     1      -1.160  11.262  20.051  0.00  0.00    +0.000 A 
ENDBRANCH  21  28
ENDBRANCH   1  22
TORSDOF 4
ENDMDL
MODEL 9
REMARK VINA RESULT:      -8.2      4.648      6.509
REMARK  Name = 
REMARK  5 active torsions:
REMARK  status: ('A' for Active; 'I' for Inactive)
REMARK    1  A    between atoms: C_1  and  N_2
REMARK    2  A    between atoms: C_6  and  C_7
REMARK    3  A    between atoms: C_8  and  C_9
REMARK    4  A    between atoms: C_13  and  N_14
REMARK    5  A    between atoms: C_21  and  C_22
REMARK                            x       y       z     vdW  Elec       q    Type
REMARK                         _______ _______ _______ _____ _____    ______ ____
ROOT
ATOM      1  C   UNL     1       8.093   7.381  18.382  0.00  0.00    +0.000 A 
ATOM      2  C   UNL     1       8.123   6.267  19.226  0.00  0.00    +0.000 A 
ATOM      3  C   UNL     1       7.727   5.020  18.750  0.00  0.00    +0.000 A 
ATOM      4  C   UNL     1       7.194   4.901  17.470  0.00  0.00    +0.000 A 
ATOM      5  C   UNL     1       6.916   6.059  16.727  0.00  0.00    +0.000 A 
ATOM      6  C   UNL     1       7.489   7.268  17.124  0.00  0.00    +0.000 A 
ENDROOT
BRANCH   5   7
ATOM      7  N   UNL     1       5.719   6.123  15.896  0.00  0.00    +0.000 N 
ATOM      8  C   UNL     1       4.560   6.538  16.727  0.00  0.00    +0.000 C 
ATOM      9  C   UNL     1       4.045   5.217  17.214  0.00  0.00    +0.000 A 
ATOM     10  C   UNL     1       4.377   4.263  16.245  0.00  0.00    +0.000 A 
ATOM     11  C   UNL     1       4.220   2.904  16.440  0.00  0.00    +0.000 A 
ATOM     12  C   UNL     1       3.727   2.492  17.676  0.00  0.00    +0.000 A 
ATOM     13  C   UNL     1       3.411   3.437  18.672  0.00  0.00    +0.000 A 
ATOM     14  C   UNL     1       3.564   4.825  18.459  0.00  0.00    +0.000 A 
ATOM     15  C   UNL     1       5.327   4.897  15.299  0.00  0.00    +0.000 C 
ATOM     16  O   UNL     1       5.803   4.343  14.327  0.00  0.00    +0.000 OA
BRANCH  14  17
ATOM     17  C   UNL     1       3.330   5.776  19.606  0.00  0.00    +0.000 C 
ATOM     18  F   UNL     1       2.763   5.202  20.701  0.00  0.00    +0.000 F 
ATOM     19  F   UNL     1       4.486   6.343  20.046  0.00  0.00    +0.000 F 
ATOM     20  F   UNL     1       2.513   6.810  19.262  0.00  0.00    +0.000 F 
ENDBRANCH  14  17
ENDBRANCH   5   7
BRANCH   1  22
ATOM     21  C   UNL     1       8.746   9.712  18.033  0.00  0.00    +0.000 C 
ATOM     22  C   UNL     1       8.587   8.669  18.871  0.00  0.00    +0.000 C 
BRANCH  21  28
ATOM     23  C   UNL     1       7.645  12.354  17.138  0.00  0.00    +0.000 C 
ATOM     24  N   UNL     1       8.726  12.135  18.064  0.00  0.00    +0.000 N 
ATOM     25  C   UNL     1       9.433  13.119  18.692  0.00  0.00    +0.000 A 
ATOM     26  N   UNL     1      10.327  12.577  19.481  0.00  0.00    +0.000 NA
ATOM     27  N   UNL     1      10.206  11.209  19.363  0.00  0.00    +0.000 NA
ATOM     28  C   UNL     1       9.248  10.944  18.501  0.00  0.00    +0.000 A 
ENDBRANCH  21  28
ENDBRANCH   1  22
TORSDOF 4
ENDMDL
