MODEL 1
REMARK VINA RESULT:      -8.8      0.000      0.000
REMARK  Name = 
REMARK  3 active torsions:
REMARK  status: ('A' for Active; 'I' for Inactive)
REMARK    1  A    between atoms: C_2  and  C_16
REMARK    2  A    between atoms: N_3  and  C_4
REMARK    3  A    between atoms: C_8  and  C_9
REMARK                            x       y       z     vdW  Elec       q    Type
REMARK                         _______ _______ _______ _____ _____    ______ ____
ROOT
ATOM      1  O   UNL     1       4.114   6.079  17.001  0.00  0.00    +0.000 OA
ATOM      2  C   UNL     1       4.103   4.853  17.086  0.00  0.00    +0.000 C 
ATOM      3  N   UNL     1       4.886   3.981  16.363  0.00  0.00    +0.000 N 
ATOM      4  H   UNL     1       4.774   2.984  16.499  0.00  0.00    +0.000 HD
ENDROOT
BRANCH   2   5
ATOM      5  C   UNL     1       3.159   4.228  18.057  0.00  0.00    +0.000 A 
ATOM      6  C   UNL     1       1.835   4.053  17.639  0.00  0.00    +0.000 A 
ATOM      7  C   UNL     1       0.864   3.528  18.493  0.00  0.00    +0.000 A 
ATOM      8  C   UNL     1       1.264   3.196  19.791  0.00  0.00    +0.000 A 
ATOM      9  N   UNL     1       0.525   2.699  20.841  0.00  0.00    +0.000 N 
ATOM     10  C   UNL     1       1.319   2.542  21.945  0.00  0.00    +0.000 A 
ATOM     11  C   UNL     1       2.595   2.932  21.605  0.00  0.00    +0.000 A 
ATOM     12  C   UNL     1       2.574   3.355  20.245  0.00  0.00    +0.000 A 
ATOM     13  C   UNL     1       3.545   3.877  19.364  0.00  0.00    +0.000 A 
ATOM     14  H   UNL     1      -0.465   2.499  20.799  0.00  0.00    +0.000 HD
ENDBRANCH   2   5
BRANCH   3  15
ATOM     15  C   UNL     1       5.810   4.352  15.396  0.00  0.00    +0.000 A 
ATOM     16  C   UNL     1       5.835   3.953  14.083  0.00  0.00    +0.000 A 
ATOM     17  N   UNL     1       6.900   4.572  13.514  0.00  0.00    +0.000 N 
ATOM     18  N   UNL     1       7.576   5.366  14.357  0.00  0.00    +0.000 NA
ATOM     19  C   UNL     1       6.939   5.230  15.537  0.00  0.00    +0.000 A 
ATOM     20  H   UNL     1       7.221   4.499  12.556  0.00  0.00    +0.000 HD
BRANCH  19  21
ATOM     21  C   UNL     1       7.392   5.983  16.713  0.00  0.00    +0.000 A 
ATOM     22  C   UNL     1       7.519   7.382  16.649  0.00  0.00    +0.000 A 
ATOM     23  C   UNL     1       7.933   8.118  17.765  0.00  0.00    +0.000 A 
ATOM     24  C   UNL     1       8.226   7.469  18.963  0.00  0.00    +0.000 A 
ATOM     25  C   UNL     1       8.111   6.085  19.041  0.00  0.00    +0.000 A 
ATOM     26  C   UNL     1       7.704   5.358  17.925  0.00  0.00    +0.000 A 
ATOM     27  F   UNL     1       7.616   4.025  18.060  0.00  0.00    +0.000 F 
ENDBRANCH  19  21
ENDBRANCH   3  15
TORSDOF 3
ENDMDL
MODEL 2
REMARK VINA RESULT:      -8.7      4.140      5.292
REMARK  Name = 
REMARK  3 active torsions:
REMARK  status: ('A' for Active; 'I' for Inactive)
REMARK    1  A    between atoms: C_2  and  C_16
REMARK    2  A    between atoms: N_3  and  C_4
REMARK    3  A    between atoms: C_8  and  C_9
REMARK                            x       y       z     vdW  Elec       q    Type
REMARK                         _______ _______ _______ _____ _____    ______ ____
ROOT
ATOM      1  O   UNL     1       3.397   5.759  20.111  0.00  0.00    +0.000 OA
ATOM      2  C   UNL     1       2.591   6.040  19.227  0.00  0.00    +0.000 C 
ATOM      3  N   UNL     1       2.096   5.177  18.274  0.00  0.00    +0.000 N 
ATOM      4  H   UNL     1       1.451   5.526  17.577  0.00  0.00    +0.000 HD
ENDROOT
BRANCH   2   5
ATOM      5  C   UNL     1       2.088   7.442  19.160  0.00  0.00    +0.000 A 
ATOM      6  C   UNL     1       2.273   8.130  17.956  0.00  0.00    +0.000 A 
ATOM      7  C   UNL     1       1.886   9.464  17.811  0.00  0.00    +0.000 A 
ATOM      8  C   UNL     1       1.318  10.091  18.924  0.00  0.00    +0.000 A 
ATOM      9  N   UNL     1       0.881  11.386  19.078  0.00  0.00    +0.000 N 
ATOM     10  C   UNL     1       0.414  11.580  20.350  0.00  0.00    +0.000 A 
ATOM     11  C   UNL     1       0.539  10.389  21.030  0.00  0.00    +0.000 A 
ATOM     12  C   UNL     1       1.115   9.438  20.140  0.00  0.00    +0.000 A 
ATOM     13  C   UNL     1       1.503   8.086  20.265  0.00  0.00    +0.000 A 
ATOM     14  H   UNL     1       0.920  12.093  18.356  0.00  0.00    +0.000 HD
ENDBRANCH   2   5
BRANCH   3  15
ATOM     15  C   UNL     1       2.449   3.841  18.147  0.00  0.00    +0.000 A 
ATOM     16  C   UNL     1       1.682   2.751  18.476  0.00  0.00    +0.000 A 
ATOM     17  N   UNL     1       2.425   1.656  18.172  0.00  0.00    +0.000 N 
ATOM     18  N   UNL     1       3.627   1.945  17.653  0.00  0.00    +0.000 NA
ATOM     19  C   UNL     1       3.681   3.291  17.650  0.00  0.00    +0.000 A 
ATOM     20  H   UNL     1       2.171   0.681  18.293  0.00  0.00    +0.000 HD
BRANCH  19  21
ATOM     21  C   UNL     1       4.862   3.983  17.119  0.00  0.00    +0.000 A 
ATOM     22  C   UNL     1       4.984   4.209  15.737  0.00  0.00    +0.000 A 
ATOM     23  C   UNL     1       6.095   4.881  15.214  0.00  0.00    +0.000 A 
ATOM     24  C   UNL     1       7.101   5.338  16.063  0.00  0.00    +0.000 A 
ATOM     25  C   UNL     1       6.998   5.116  17.433  0.00  0.00    +0.000 A 
ATOM     26  C   UNL     1       5.892   4.442  17.946  0.00  0.00    +0.000 A 
ATOM     27  F   UNL     1       5.851   4.253  19.274  0.00  0.00    +0.000 F 
ENDBRANCH  19  21
ENDBRANCH   3  15
TORSDOF 3
ENDMDL
MODEL 3
REMARK VINA RESULT:      -8.5      5.017      6.449
REMARK  Name = 
REMARK  3 active torsions:
REMARK  status: ('A' for Active; 'I' for Inactive)
REMARK    1  A    between atoms: C_2  and  C_16
REMARK    2  A    between atoms: N_3  and  C_4
REMARK    3  A    between atoms: C_8  and  C_9
REMARK                            x       y       z     vdW  Elec       q    Type
REMARK                         _______ _______ _______ _____ _____    ______ ____
ROOT
ATOM      1  O   UNL     1       2.117   9.102  17.203  0.00  0.00    +0.000 OA
ATOM      2  C   UNL     1       1.990   8.624  18.328  0.00  0.00    +0.000 C 
ATOM      3  N   UNL     1       2.601   7.484  18.801  0.00  0.00    +0.000 N 
ATOM      4  H   UNL     1       2.404   7.170  19.742  0.00  0.00    +0.000 HD
ENDROOT
BRANCH   2   5
ATOM      5  C   UNL     1       1.094   9.329  19.290  0.00  0.00    +0.000 A 
ATOM      6  C   UNL     1       0.437  10.475  18.828  0.00  0.00    +0.000 A 
ATOM      7  C   UNL     1      -0.380  11.235  19.667  0.00  0.00    +0.000 A 
ATOM      8  C   UNL     1      -0.505  10.814  20.994  0.00  0.00    +0.000 A 
ATOM      9  N   UNL     1      -1.206  11.378  22.035  0.00  0.00    +0.000 N 
ATOM     10  C   UNL     1      -1.031  10.641  23.176  0.00  0.00    +0.000 A 
ATOM     11  C   UNL     1      -0.214   9.577  22.869  0.00  0.00    +0.000 A 
ATOM     12  C   UNL     1       0.132   9.676  21.491  0.00  0.00    +0.000 A 
ATOM     13  C   UNL     1       0.945   8.913  20.625  0.00  0.00    +0.000 A 
ATOM     14  H   UNL     1      -1.753  12.225  21.964  0.00  0.00    +0.000 HD
ENDBRANCH   2   5
BRANCH   3  15
ATOM     15  C   UNL     1       3.453   6.672  18.064  0.00  0.00    +0.000 A 
ATOM     16  C   UNL     1       4.405   7.079  17.164  0.00  0.00    +0.000 A 
ATOM     17  N   UNL     1       5.000   5.951  16.700  0.00  0.00    +0.000 N 
ATOM     18  N   UNL     1       4.517   4.823  17.242  0.00  0.00    +0.000 NA
ATOM     19  C   UNL     1       3.539   5.237  18.071  0.00  0.00    +0.000 A 
ATOM     20  H   UNL     1       5.744   5.878  16.015  0.00  0.00    +0.000 HD
BRANCH  19  21
ATOM     21  C   UNL     1       2.786   4.263  18.871  0.00  0.00    +0.000 A 
ATOM     22  C   UNL     1       3.342   3.739  20.050  0.00  0.00    +0.000 A 
ATOM     23  C   UNL     1       2.632   2.822  20.834  0.00  0.00    +0.000 A 
ATOM     24  C   UNL     1       1.355   2.415  20.452  0.00  0.00    +0.000 A 
ATOM     25  C   UNL     1       0.793   2.919  19.284  0.00  0.00    +0.000 A 
ATOM     26  C   UNL     1       1.507   3.828  18.506  0.00  0.00    +0.000 A 
ATOM     27  F   UNL     1       0.915   4.276  17.388  0.00  0.00    +0.000 F 
ENDBRANCH  19  21
ENDBRANCH   3  15
TORSDOF 3
ENDMDL
MODEL 4
REMARK VINA RESULT:      -8.5      4.283      4.980
REMARK  Name = 
REMARK  3 active torsions:
REMARK  status: ('A' for Active; 'I' for Inactive)
REMARK    1  A    between atoms: C_2  and  C_16
REMARK    2  A    between atoms: N_3  and  C_4
REMARK    3  A    between atoms: C_8  and  C_9
REMARK                            x       y       z     vdW  Elec       q    Type
REMARK                         _______ _______ _______ _____ _____    ______ ____
ROOT
ATOM      1  O   UNL     1       2.491   6.380  17.915  0.00  0.00    +0.000 OA
ATOM      2  C   UNL     1       2.553   6.593  19.124  0.00  0.00    +0.000 C 
ATOM      3  N   UNL     1       3.243   5.839  20.047  0.00  0.00    +0.000 N 
ATOM      4  H   UNL     1       3.204   6.096  21.026  0.00  0.00    +0.000 HD
ENDROOT
BRANCH   2   5
ATOM      5  C   UNL     1       1.819   7.773  19.664  0.00  0.00    +0.000 A 
ATOM      6  C   UNL     1       1.681   8.880  18.820  0.00  0.00    +0.000 A 
ATOM      7  C   UNL     1       1.059  10.053  19.252  0.00  0.00    +0.000 A 
ATOM      8  C   UNL     1       0.590  10.083  20.568  0.00  0.00    +0.000 A 
ATOM      9  N   UNL     1      -0.025  11.100  21.262  0.00  0.00    +0.000 N 
ATOM     10  C   UNL     1      -0.298  10.701  22.543  0.00  0.00    +0.000 A 
ATOM     11  C   UNL     1       0.137   9.402  22.680  0.00  0.00    +0.000 A 
ATOM     12  C   UNL     1       0.706   8.999  21.439  0.00  0.00    +0.000 A 
ATOM     13  C   UNL     1       1.329   7.817  20.982  0.00  0.00    +0.000 A 
ATOM     14  H   UNL     1      -0.226  12.014  20.879  0.00  0.00    +0.000 HD
ENDBRANCH   2   5
BRANCH   3  15
ATOM     15  C   UNL     1       3.971   4.693  19.758  0.00  0.00    +0.000 A 
ATOM     16  C   UNL     1       3.604   3.396  20.017  0.00  0.00    +0.000 A 
ATOM     17  N   UNL     1       4.611   2.613  19.554  0.00  0.00    +0.000 N 
ATOM     18  N   UNL     1       5.616   3.302  18.992  0.00  0.00    +0.000 NA
ATOM     19  C   UNL     1       5.259   4.594  19.128  0.00  0.00    +0.000 A 
ATOM     20  H   UNL     1       4.676   1.602  19.586  0.00  0.00    +0.000 HD
BRANCH  19  21
ATOM     21  C   UNL     1       6.121   5.658  18.599  0.00  0.00    +0.000 A 
ATOM     22  C   UNL     1       5.721   6.393  17.469  0.00  0.00    +0.000 A 
ATOM     23  C   UNL     1       6.522   7.422  16.960  0.00  0.00    +0.000 A 
ATOM     24  C   UNL     1       7.735   7.733  17.572  0.00  0.00    +0.000 A 
ATOM     25  C   UNL     1       8.148   7.012  18.687  0.00  0.00    +0.000 A 
ATOM     26  C   UNL     1       7.348   5.985  19.186  0.00  0.00    +0.000 A 
ATOM     27  F   UNL     1       7.801   5.322  20.261  0.00  0.00    +0.000 F 
ENDBRANCH  19  21
ENDBRANCH   3  15
TORSDOF 3
ENDMDL
MODEL 5
REMARK VINA RESULT:      -8.5      4.444      5.578
REMARK  Name = 
REMARK  3 active torsions:
REMARK  status: ('A' for Active; 'I' for Inactive)
REMARK    1  A    between atoms: C_2  and  C_16
REMARK    2  A    between atoms: N_3  and  C_4
REMARK    3  A    between atoms: C_8  and  C_9
REMARK                            x       y       z     vdW  Elec       q    Type
REMARK                         _______ _______ _______ _____ _____    ______ ____
ROOT
ATOM      1  O   UNL     1       2.231   6.256  18.056  0.00  0.00    +0.000 OA
ATOM      2  C   UNL     1       2.362   6.543  19.244  0.00  0.00    +0.000 C 
ATOM      3  N   UNL     1       2.972   5.767  20.204  0.00  0.00    +0.000 N 
ATOM      4  H   UNL     1       3.002   6.095  21.161  0.00  0.00    +0.000 HD
ENDROOT
BRANCH   2   5
ATOM      5  C   UNL     1       1.818   7.850  19.712  0.00  0.00    +0.000 A 
ATOM      6  C   UNL     1       1.423   7.934  21.052  0.00  0.00    +0.000 A 
ATOM      7  C   UNL     1       0.851   9.096  21.572  0.00  0.00    +0.000 A 
ATOM      8  C   UNL     1       0.673  10.171  20.696  0.00  0.00    +0.000 A 
ATOM      9  N   UNL     1       0.114  11.408  20.920  0.00  0.00    +0.000 N 
ATOM     10  C   UNL     1       0.123  12.147  19.768  0.00  0.00    +0.000 A 
ATOM     11  C   UNL     1       0.706  11.383  18.782  0.00  0.00    +0.000 A 
ATOM     12  C   UNL     1       1.055  10.126  19.354  0.00  0.00    +0.000 A 
ATOM     13  C   UNL     1       1.642   8.946  18.848  0.00  0.00    +0.000 A 
ATOM     14  H   UNL     1      -0.264  11.712  21.807  0.00  0.00    +0.000 HD
ENDBRANCH   2   5
BRANCH   3  15
ATOM     15  C   UNL     1       3.524   4.512  19.984  0.00  0.00    +0.000 A 
ATOM     16  C   UNL     1       3.006   3.304  20.377  0.00  0.00    +0.000 A 
ATOM     17  N   UNL     1       3.871   2.355  19.937  0.00  0.00    +0.000 N 
ATOM     18  N   UNL     1       4.922   2.851  19.268  0.00  0.00    +0.000 NA
ATOM     19  C   UNL     1       4.748   4.187  19.304  0.00  0.00    +0.000 A 
ATOM     20  H   UNL     1       3.804   1.351  20.057  0.00  0.00    +0.000 HD
BRANCH  19  21
ATOM     21  C   UNL     1       5.709   5.076  18.640  0.00  0.00    +0.000 A 
ATOM     22  C   UNL     1       6.833   5.548  19.340  0.00  0.00    +0.000 A 
ATOM     23  C   UNL     1       7.768   6.384  18.718  0.00  0.00    +0.000 A 
ATOM     24  C   UNL     1       7.595   6.761  17.388  0.00  0.00    +0.000 A 
ATOM     25  C   UNL     1       6.485   6.308  16.683  0.00  0.00    +0.000 A 
ATOM     26  C   UNL     1       5.555   5.480  17.309  0.00  0.00    +0.000 A 
ATOM     27  F   UNL     1       4.503   5.078  16.580  0.00  0.00    +0.000 F 
ENDBRANCH  19  21
ENDBRANCH   3  15
TORSDOF 3
ENDMDL
MODEL 6
REMARK VINA RESULT:      -8.4      4.253      5.335
REMARK  Name = 
REMARK  3 active torsions:
REMARK  status: ('A' for Active; 'I' for Inactive)
REMARK    1  A    between atoms: C_2  and  C_16
REMARK    2  A    between atoms: N_3  and  C_4
REMARK    3  A    between atoms: C_8  and  C_9
REMARK                            x       y       z     vdW  Elec       q    Type
REMARK                         _______ _______ _______ _____ _____    ______ ____
ROOT
ATOM      1  O   UNL     1       3.223   5.776  20.199  0.00  0.00    +0.000 OA
ATOM      2  C   UNL     1       2.509   6.093  19.249  0.00  0.00    +0.000 C 
ATOM      3  N   UNL     1       2.106   5.267  18.224  0.00  0.00    +0.000 N 
ATOM      4  H   UNL     1       1.535   5.644  17.479  0.00  0.00    +0.000 HD
ENDROOT
BRANCH   2   5
ATOM      5  C   UNL     1       2.022   7.501  19.181  0.00  0.00    +0.000 A 
ATOM      6  C   UNL     1       2.205   8.182  17.972  0.00  0.00    +0.000 A 
ATOM      7  C   UNL     1       1.833   9.519  17.825  0.00  0.00    +0.000 A 
ATOM      8  C   UNL     1       1.283  10.158  18.940  0.00  0.00    +0.000 A 
ATOM      9  N   UNL     1       0.863  11.460  19.092  0.00  0.00    +0.000 N 
ATOM     10  C   UNL     1       0.409  11.664  20.367  0.00  0.00    +0.000 A 
ATOM     11  C   UNL     1       0.525  10.475  21.051  0.00  0.00    +0.000 A 
ATOM     12  C   UNL     1       1.083   9.513  20.161  0.00  0.00    +0.000 A 
ATOM     13  C   UNL     1       1.455   8.157  20.288  0.00  0.00    +0.000 A 
ATOM     14  H   UNL     1       0.905  12.162  18.366  0.00  0.00    +0.000 HD
ENDBRANCH   2   5
BRANCH   3  15
ATOM     15  C   UNL     1       2.463   3.932  18.088  0.00  0.00    +0.000 A 
ATOM     16  C   UNL     1       1.642   2.841  18.227  0.00  0.00    +0.000 A 
ATOM     17  N   UNL     1       2.414   1.749  17.994  0.00  0.00    +0.000 N 
ATOM     18  N   UNL     1       3.689   2.043  17.696  0.00  0.00    +0.000 NA
ATOM     19  C   UNL     1       3.755   3.386  17.772  0.00  0.00    +0.000 A 
ATOM     20  H   UNL     1       2.135   0.775  18.019  0.00  0.00    +0.000 HD
BRANCH  19  21
ATOM     21  C   UNL     1       5.014   4.082  17.481  0.00  0.00    +0.000 A 
ATOM     22  C   UNL     1       5.853   4.492  18.532  0.00  0.00    +0.000 A 
ATOM     23  C   UNL     1       7.065   5.143  18.273  0.00  0.00    +0.000 A 
ATOM     24  C   UNL     1       7.458   5.394  16.960  0.00  0.00    +0.000 A 
ATOM     25  C   UNL     1       6.637   5.001  15.908  0.00  0.00    +0.000 A 
ATOM     26  C   UNL     1       5.429   4.358  16.174  0.00  0.00    +0.000 A 
ATOM     27  F   UNL     1       4.677   4.007  15.119  0.00  0.00    +0.000 F 
ENDBRANCH  19  21
ENDBRANCH   3  15
TORSDOF 3
ENDMDL
MODEL 7
REMARK VINA RESULT:      -8.4      4.046      5.403
REMARK  Name = 
REMARK  3 active torsions:
REMARK  status: ('A' for Active; 'I' for Inactive)
REMARK    1  A    between atoms: C_2  and  C_16
REMARK    2  A    between atoms: N_3  and  C_4
REMARK    3  A    between atoms: C_8  and  C_9
REMARK                            x       y       z     vdW  Elec       q    Type
REMARK                         _______ _______ _______ _____ _____    ______ ____
ROOT
ATOM      1  O   UNL     1       2.351   5.038  21.050  0.00  0.00    +0.000 OA
ATOM      2  C   UNL     1       2.147   5.606  19.980  0.00  0.00    +0.000 C 
ATOM      3  N   UNL     1       2.192   5.027  18.731  0.00  0.00    +0.000 N 
ATOM      4  H   UNL     1       2.029   5.600  17.912  0.00  0.00    +0.000 HD
ENDROOT
BRANCH   2   5
ATOM      5  C   UNL     1       1.817   7.060  20.012  0.00  0.00    +0.000 A 
ATOM      6  C   UNL     1       1.182   7.545  21.160  0.00  0.00    +0.000 A 
ATOM      7  C   UNL     1       0.783   8.879  21.264  0.00  0.00    +0.000 A 
ATOM      8  C   UNL     1       1.031   9.710  20.168  0.00  0.00    +0.000 A 
ATOM      9  N   UNL     1       0.723  11.038  19.981  0.00  0.00    +0.000 N 
ATOM     10  C   UNL     1       1.133  11.448  18.741  0.00  0.00    +0.000 A 
ATOM     11  C   UNL     1       1.726  10.374  18.117  0.00  0.00    +0.000 A 
ATOM     12  C   UNL     1       1.664   9.264  19.007  0.00  0.00    +0.000 A 
ATOM     13  C   UNL     1       2.070   7.915  18.923  0.00  0.00    +0.000 A 
ATOM     14  H   UNL     1       0.246  11.615  20.660  0.00  0.00    +0.000 HD
ENDBRANCH   2   5
BRANCH   3  15
ATOM     15  C   UNL     1       2.500   3.697  18.479  0.00  0.00    +0.000 A 
ATOM     16  C   UNL     1       1.697   2.608  18.709  0.00  0.00    +0.000 A 
ATOM     17  N   UNL     1       2.401   1.521  18.302  0.00  0.00    +0.000 N 
ATOM     18  N   UNL     1       3.611   1.816  17.805  0.00  0.00    +0.000 NA
ATOM     19  C   UNL     1       3.711   3.155  17.925  0.00  0.00    +0.000 A 
ATOM     20  H   UNL     1       2.115   0.549  18.333  0.00  0.00    +0.000 HD
BRANCH  19  21
ATOM     21  C   UNL     1       4.913   3.853  17.454  0.00  0.00    +0.000 A 
ATOM     22  C   UNL     1       5.259   3.820  16.092  0.00  0.00    +0.000 A 
ATOM     23  C   UNL     1       6.393   4.493  15.622  0.00  0.00    +0.000 A 
ATOM     24  C   UNL     1       7.198   5.210  16.505  0.00  0.00    +0.000 A 
ATOM     25  C   UNL     1       6.874   5.247  17.857  0.00  0.00    +0.000 A 
ATOM     26  C   UNL     1       5.746   4.570  18.319  0.00  0.00    +0.000 A 
ATOM     27  F   UNL     1       5.486   4.639  19.634  0.00  0.00    +0.000 F 
ENDBRANCH  19  21
ENDBRANCH   3  15
TORSDOF 3
ENDMDL
MODEL 8
REMARK VINA RESULT:      -8.4      4.416      5.418
REMARK  Name = 
REMARK  3 active torsions:
REMARK  status: ('A' for Active; 'I' for Inactive)
REMARK    1  A    between atoms: C_2  and  C_16
REMARK    2  A    between atoms: N_3  and  C_4
REMARK    3  A    between atoms: C_8  and  C_9
REMARK                            x       y       z     vdW  Elec       q    Type
REMARK                         _______ _______ _______ _____ _____    ______ ____
ROOT
ATOM      1  O   UNL     1       2.396   6.120  17.821  0.00  0.00    +0.000 OA
ATOM      2  C   UNL     1       2.416   6.509  18.987  0.00  0.00    +0.000 C 
ATOM      3  N   UNL     1       2.923   5.819  20.066  0.00  0.00    +0.000 N 
ATOM      4  H   UNL     1       2.864   6.229  20.989  0.00  0.00    +0.000 HD
ENDROOT
BRANCH   2   5
ATOM      5  C   UNL     1       1.841   7.852  19.286  0.00  0.00    +0.000 A 
ATOM      6  C   UNL     1       1.872   8.802  18.258  0.00  0.00    +0.000 A 
ATOM      7  C   UNL     1       1.409  10.104  18.456  0.00  0.00    +0.000 A 
ATOM      8  C   UNL     1       0.925  10.427  19.727  0.00  0.00    +0.000 A 
ATOM      9  N   UNL     1       0.444  11.623  20.209  0.00  0.00    +0.000 N 
ATOM     10  C   UNL     1       0.096  11.496  21.527  0.00  0.00    +0.000 A 
ATOM     11  C   UNL     1       0.346  10.195  21.904  0.00  0.00    +0.000 A 
ATOM     12  C   UNL     1       0.876   9.508  20.775  0.00  0.00    +0.000 A 
ATOM     13  C   UNL     1       1.339   8.192  20.555  0.00  0.00    +0.000 A 
ATOM     14  H   UNL     1       0.377  12.473  19.666  0.00  0.00    +0.000 HD
ENDBRANCH   2   5
BRANCH   3  15
ATOM     15  C   UNL     1       3.481   4.549  20.009  0.00  0.00    +0.000 A 
ATOM     16  C   UNL     1       2.960   3.396  20.540  0.00  0.00    +0.000 A 
ATOM     17  N   UNL     1       3.834   2.404  20.233  0.00  0.00    +0.000 N 
ATOM     18  N   UNL     1       4.894   2.819  19.523  0.00  0.00    +0.000 NA
ATOM     19  C   UNL     1       4.716   4.148  19.392  0.00  0.00    +0.000 A 
ATOM     20  H   UNL     1       3.768   1.421  20.474  0.00  0.00    +0.000 HD
BRANCH  19  21
ATOM     21  C   UNL     1       5.684   4.953  18.638  0.00  0.00    +0.000 A 
ATOM     22  C   UNL     1       6.743   5.591  19.307  0.00  0.00    +0.000 A 
ATOM     23  C   UNL     1       7.686   6.349  18.602  0.00  0.00    +0.000 A 
ATOM     24  C   UNL     1       7.585   6.482  17.219  0.00  0.00    +0.000 A 
ATOM     25  C   UNL     1       6.539   5.863  16.542  0.00  0.00    +0.000 A 
ATOM     26  C   UNL     1       5.601   5.114  17.250  0.00  0.00    +0.000 A 
ATOM     27  F   UNL     1       4.613   4.543  16.545  0.00  0.00    +0.000 F 
ENDBRANCH  19  21
ENDBRANCH   3  15
TORSDOF 3
ENDMDL
MODEL 9
REMARK VINA RESULT:      -8.4      5.101      6.606
REMARK  Name = 
REMARK  3 active torsions:
REMARK  status: ('A' for Active; 'I' for Inactive)
REMARK    1  A    between atoms: C_2  and  C_16
REMARK    2  A    between atoms: N_3  and  C_4
REMARK    3  A    between atoms: C_8  and  C_9
REMARK                            x       y       z     vdW  Elec       q    Type
REMARK                         _______ _______ _______ _____ _____    ______ ____
ROOT
ATOM      1  O   UNL     1       1.996   9.231  17.240  0.00  0.00    +0.000 OA
ATOM      2  C   UNL     1       1.840   8.751  18.361  0.00  0.00    +0.000 C 
ATOM      3  N   UNL     1       2.415   7.594  18.837  0.00  0.00    +0.000 N 
ATOM      4  H   UNL     1       2.196   7.280  19.774  0.00  0.00    +0.000 HD
ENDROOT
BRANCH   2   5
ATOM      5  C   UNL     1       0.949   9.474  19.313  0.00  0.00    +0.000 A 
ATOM      6  C   UNL     1       0.301  10.620  18.836  0.00  0.00    +0.000 A 
ATOM      7  C   UNL     1      -0.511  11.396  19.665  0.00  0.00    +0.000 A 
ATOM      8  C   UNL     1      -0.641  10.992  20.997  0.00  0.00    +0.000 A 
ATOM      9  N   UNL     1      -1.338  11.574  22.031  0.00  0.00    +0.000 N 
ATOM     10  C   UNL     1      -1.171  10.849  23.180  0.00  0.00    +0.000 A 
ATOM     11  C   UNL     1      -0.362   9.775  22.887  0.00  0.00    +0.000 A 
ATOM     12  C   UNL     1      -0.014   9.855  21.508  0.00  0.00    +0.000 A 
ATOM     13  C   UNL     1       0.795   9.076  20.653  0.00  0.00    +0.000 A 
ATOM     14  H   UNL     1      -1.879  12.424  21.949  0.00  0.00    +0.000 HD
ENDBRANCH   2   5
BRANCH   3  15
ATOM     15  C   UNL     1       3.257   6.763  18.109  0.00  0.00    +0.000 A 
ATOM     16  C   UNL     1       4.287   7.149  17.289  0.00  0.00    +0.000 A 
ATOM     17  N   UNL     1       4.835   6.007  16.800  0.00  0.00    +0.000 N 
ATOM     18  N   UNL     1       4.247   4.890  17.252  0.00  0.00    +0.000 NA
ATOM     19  C   UNL     1       3.249   5.327  18.044  0.00  0.00    +0.000 A 
ATOM     20  H   UNL     1       5.614   5.919  16.157  0.00  0.00    +0.000 HD
BRANCH  19  21
ATOM     21  C   UNL     1       2.387   4.368  18.746  0.00  0.00    +0.000 A 
ATOM     22  C   UNL     1       1.654   3.416  18.017  0.00  0.00    +0.000 A 
ATOM     23  C   UNL     1       0.839   2.483  18.670  0.00  0.00    +0.000 A 
ATOM     24  C   UNL     1       0.744   2.487  20.060  0.00  0.00    +0.000 A 
ATOM     25  C   UNL     1       1.459   3.427  20.795  0.00  0.00    +0.000 A 
ATOM     26  C   UNL     1       2.264   4.356  20.139  0.00  0.00    +0.000 A 
ATOM     27  F   UNL     1       2.925   5.241  20.901  0.00  0.00    +0.000 F 
ENDBRANCH  19  21
ENDBRANCH   3  15
TORSDOF 3
ENDMDL
