MODEL 1
REMARK VINA RESULT:      -9.7      0.000      0.000
REMARK  Name = 
REMARK  3 active torsions:
REMARK  status: ('A' for Active; 'I' for Inactive)
REMARK    1  A    between atoms: C_1  and  C_2
REMARK    2  A    between atoms: C_8  and  C_10
REMARK    3  A    between atoms: C_13  and  N_14
REMARK                            x       y       z     vdW  Elec       q    Type
REMARK                         _______ _______ _______ _____ _____    ______ ____
ROOT
ATOM      1  C   UNL     1       2.474   7.859  18.694  0.00  0.00    +0.000 A 
ATOM      2  C   UNL     1       2.580   6.932  19.736  0.00  0.00    +0.000 A 
ATOM      3  C   UNL     1       3.394   5.805  19.586  0.00  0.00    +0.000 A 
ATOM      4  C   UNL     1       4.030   5.548  18.359  0.00  0.00    +0.000 A 
ATOM      5  C   UNL     1       4.089   6.580  17.411  0.00  0.00    +0.000 A 
ATOM      6  C   UNL     1       3.295   7.716  17.570  0.00  0.00    +0.000 A 
ENDROOT
BRANCH   1  14
ATOM      7  C   UNL     1      -1.534  12.213  22.969  0.00  0.00    +0.000 C 
ATOM      8  C   UNL     1      -1.274  11.716  21.579  0.00  0.00    +0.000 A 
ATOM      9  C   UNL     1      -2.024  12.166  20.496  0.00  0.00    +0.000 A 
ATOM     10  C   UNL     1      -1.736  11.660  19.241  0.00  0.00    +0.000 A 
ATOM     11  N   UNL     1      -0.758  10.762  19.007  0.00  0.00    +0.000 NA
ATOM     12  C   UNL     1      -0.025  10.338  20.047  0.00  0.00    +0.000 A 
ATOM     13  N   UNL     1       1.018   9.418  19.864  0.00  0.00    +0.000 N 
ATOM     14  C   UNL     1       1.413   8.910  18.646  0.00  0.00    +0.000 C 
ATOM     15  O   UNL     1       0.977   9.214  17.541  0.00  0.00    +0.000 OA
ATOM     16  C   UNL     1      -0.263  10.778  21.346  0.00  0.00    +0.000 A 
ATOM     17  H   UNL     1       1.529   9.159  20.690  0.00  0.00    +0.000 HD
ENDBRANCH   1  14
BRANCH   4  18
ATOM     18  N   UNL     1       4.339   4.169  17.980  0.00  0.00    +0.000 N 
ATOM     19  C   UNL     1       3.552   3.680  16.956  0.00  0.00    +0.000 A 
ATOM     20  N   UNL     1       2.415   3.084  17.146  0.00  0.00    +0.000 NA
ATOM     21  C   UNL     1       2.029   2.956  18.500  0.00  0.00    +0.000 A 
ATOM     22  C   UNL     1       0.690   2.979  18.873  0.00  0.00    +0.000 A 
ATOM     23  C   UNL     1       0.342   2.953  20.231  0.00  0.00    +0.000 A 
ATOM     24  C   UNL     1       1.328   2.852  21.219  0.00  0.00    +0.000 A 
ATOM     25  C   UNL     1       2.671   2.821  20.860  0.00  0.00    +0.000 A 
ATOM     26  C   UNL     1       2.999   2.918  19.509  0.00  0.00    +0.000 A 
ATOM     27  C   UNL     1       4.361   3.291  19.063  0.00  0.00    +0.000 A 
ATOM     28  O   UNL     1       5.364   2.900  19.648  0.00  0.00    +0.000 OA
ENDBRANCH   4  18
TORSDOF 2
ENDMDL
MODEL 2
REMARK VINA RESULT:      -9.6      1.037      1.163
REMARK  Name = 
REMARK  3 active torsions:
REMARK  status: ('A' for Active; 'I' for Inactive)
REMARK    1  A    between atoms: C_1  and  C_2
REMARK    2  A    between atoms: C_8  and  C_10
REMARK    3  A    between atoms: C_13  and  N_14
REMARK                            x       y       z     vdW  Elec       q    Type
REMARK                         _______ _______ _______ _____ _____    ______ ____
ROOT
ATOM      1  C   UNL     1       3.350   6.975  18.365  0.00  0.00    +0.000 A 
ATOM      2  C   UNL     1       3.774   6.363  19.549  0.00  0.00    +0.000 A 
ATOM      3  C   UNL     1       4.407   5.117  19.502  0.00  0.00    +0.000 A 
ATOM      4  C   UNL     1       4.533   4.432  18.281  0.00  0.00    +0.000 A 
ATOM      5  C   UNL     1       4.304   5.141  17.093  0.00  0.00    +0.000 A 
ATOM      6  C   UNL     1       3.694   6.395  17.138  0.00  0.00    +0.000 A 
ENDROOT
BRANCH   1  14
ATOM      7  C   UNL     1      -0.974  10.991  22.664  0.00  0.00    +0.000 C 
ATOM      8  C   UNL     1      -0.509  10.707  21.267  0.00  0.00    +0.000 A 
ATOM      9  C   UNL     1      -1.007  11.419  20.179  0.00  0.00    +0.000 A 
ATOM     10  C   UNL     1      -0.540  11.101  18.916  0.00  0.00    +0.000 A 
ATOM     11  N   UNL     1       0.382  10.147  18.682  0.00  0.00    +0.000 NA
ATOM     12  C   UNL     1       0.873   9.469  19.730  0.00  0.00    +0.000 A 
ATOM     13  N   UNL     1       1.848   8.476  19.552  0.00  0.00    +0.000 N 
ATOM     14  C   UNL     1       2.412   8.138  18.342  0.00  0.00    +0.000 C 
ATOM     15  O   UNL     1       2.213   8.672  17.257  0.00  0.00    +0.000 OA
ATOM     16  C   UNL     1       0.442   9.709  21.031  0.00  0.00    +0.000 A 
ATOM     17  H   UNL     1       2.176   8.023  20.387  0.00  0.00    +0.000 HD
ENDBRANCH   1  14
BRANCH   4  18
ATOM     18  N   UNL     1       4.598   2.970  18.276  0.00  0.00    +0.000 N 
ATOM     19  C   UNL     1       3.815   2.379  17.304  0.00  0.00    +0.000 A 
ATOM     20  N   UNL     1       2.572   2.051  17.484  0.00  0.00    +0.000 NA
ATOM     21  C   UNL     1       2.062   2.335  18.771  0.00  0.00    +0.000 A 
ATOM     22  C   UNL     1       0.727   2.677  18.959  0.00  0.00    +0.000 A 
ATOM     23  C   UNL     1       0.274   3.053  20.230  0.00  0.00    +0.000 A 
ATOM     24  C   UNL     1       1.139   3.039  21.331  0.00  0.00    +0.000 A 
ATOM     25  C   UNL     1       2.475   2.693  21.158  0.00  0.00    +0.000 A 
ATOM     26  C   UNL     1       2.923   2.389  19.874  0.00  0.00    +0.000 A 
ATOM     27  C   UNL     1       4.363   2.402  19.527  0.00  0.00    +0.000 A 
ATOM     28  O   UNL     1       5.221   2.009  20.308  0.00  0.00    +0.000 OA
ENDBRANCH   4  18
TORSDOF 2
ENDMDL
MODEL 3
REMARK VINA RESULT:      -9.4      1.543      2.340
REMARK  Name = 
REMARK  3 active torsions:
REMARK  status: ('A' for Active; 'I' for Inactive)
REMARK    1  A    between atoms: C_1  and  C_2
REMARK    2  A    between atoms: C_8  and  C_10
REMARK    3  A    between atoms: C_13  and  N_14
REMARK                            x       y       z     vdW  Elec       q    Type
REMARK                         _______ _______ _______ _____ _____    ______ ____
ROOT
ATOM      1  C   UNL     1       2.059   8.141  19.050  0.00  0.00    +0.000 A 
ATOM      2  C   UNL     1       2.323   7.151  20.002  0.00  0.00    +0.000 A 
ATOM      3  C   UNL     1       3.205   6.110  19.699  0.00  0.00    +0.000 A 
ATOM      4  C   UNL     1       3.754   5.999  18.409  0.00  0.00    +0.000 A 
ATOM      5  C   UNL     1       3.655   7.100  17.547  0.00  0.00    +0.000 A 
ATOM      6  C   UNL     1       2.793   8.152  17.858  0.00  0.00    +0.000 A 
ENDROOT
BRANCH   1  14
ATOM      7  C   UNL     1      -3.787  10.644  15.463  0.00  0.00    +0.000 C 
ATOM      8  C   UNL     1      -2.907  10.771  16.670  0.00  0.00    +0.000 A 
ATOM      9  C   UNL     1      -3.154  11.730  17.648  0.00  0.00    +0.000 A 
ATOM     10  C   UNL     1      -2.299  11.798  18.733  0.00  0.00    +0.000 A 
ATOM     11  N   UNL     1      -1.244  10.976  18.903  0.00  0.00    +0.000 NA
ATOM     12  C   UNL     1      -1.013  10.041  17.968  0.00  0.00    +0.000 A 
ATOM     13  N   UNL     1       0.058   9.146  18.097  0.00  0.00    +0.000 N 
ATOM     14  C   UNL     1       0.921   9.102  19.170  0.00  0.00    +0.000 C 
ATOM     15  O   UNL     1       0.863   9.773  20.194  0.00  0.00    +0.000 OA
ATOM     16  C   UNL     1      -1.810   9.920  16.834  0.00  0.00    +0.000 A 
ATOM     17  H   UNL     1       0.158   8.467  17.362  0.00  0.00    +0.000 HD
ENDBRANCH   1  14
BRANCH   4  18
ATOM     18  N   UNL     1       4.136   4.682  17.896  0.00  0.00    +0.000 N 
ATOM     19  C   UNL     1       3.241   4.156  16.985  0.00  0.00    +0.000 A 
ATOM     20  N   UNL     1       2.221   3.428  17.319  0.00  0.00    +0.000 NA
ATOM     21  C   UNL     1       2.085   3.194  18.706  0.00  0.00    +0.000 A 
ATOM     22  C   UNL     1       0.833   3.049  19.294  0.00  0.00    +0.000 A 
ATOM     23  C   UNL     1       0.725   2.921  20.686  0.00  0.00    +0.000 A 
ATOM     24  C   UNL     1       1.869   2.885  21.492  0.00  0.00    +0.000 A 
ATOM     25  C   UNL     1       3.127   3.023  20.916  0.00  0.00    +0.000 A 
ATOM     26  C   UNL     1       3.211   3.218  19.539  0.00  0.00    +0.000 A 
ATOM     27  C   UNL     1       4.432   3.763  18.902  0.00  0.00    +0.000 A 
ATOM     28  O   UNL     1       5.554   3.461  19.289  0.00  0.00    +0.000 OA
ENDBRANCH   4  18
TORSDOF 2
ENDMDL
MODEL 4
REMARK VINA RESULT:      -9.2      1.238      1.483
REMARK  Name = 
REMARK  3 active torsions:
REMARK  status: ('A' for Active; 'I' for Inactive)
REMARK    1  A    between atoms: C_1  and  C_2
REMARK    2  A    between atoms: C_8  and  C_10
REMARK    3  A    between atoms: C_13  and  N_14
REMARK                            x       y       z     vdW  Elec       q    Type
REMARK                         _______ _______ _______ _____ _____    ______ ____
ROOT
ATOM      1  C   UNL     1       2.687   7.597  17.718  0.00  0.00    +0.000 A 
ATOM      2  C   UNL     1       3.974   7.459  17.189  0.00  0.00    +0.000 A 
ATOM      3  C   UNL     1       4.516   6.184  16.999  0.00  0.00    +0.000 A 
ATOM      4  C   UNL     1       3.814   5.044  17.428  0.00  0.00    +0.000 A 
ATOM      5  C   UNL     1       2.456   5.181  17.751  0.00  0.00    +0.000 A 
ATOM      6  C   UNL     1       1.906   6.453  17.918  0.00  0.00    +0.000 A 
ENDROOT
BRANCH   1  14
ATOM      7  C   UNL     1      -1.085  10.509  23.250  0.00  0.00    +0.000 C 
ATOM      8  C   UNL     1      -0.439  10.735  21.916  0.00  0.00    +0.000 A 
ATOM      9  C   UNL     1      -0.467  11.984  21.301  0.00  0.00    +0.000 A 
ATOM     10  C   UNL     1       0.143  12.122  20.067  0.00  0.00    +0.000 A 
ATOM     11  N   UNL     1       0.774  11.116  19.432  0.00  0.00    +0.000 NA
ATOM     12  C   UNL     1       0.814   9.915  20.030  0.00  0.00    +0.000 A 
ATOM     13  N   UNL     1       1.472   8.833  19.427  0.00  0.00    +0.000 N 
ATOM     14  C   UNL     1       2.155   8.896  18.232  0.00  0.00    +0.000 C 
ATOM     15  O   UNL     1       2.354   9.891  17.545  0.00  0.00    +0.000 OA
ATOM     16  C   UNL     1       0.207   9.683  21.260  0.00  0.00    +0.000 A 
ATOM     17  H   UNL     1       1.469   7.970  19.943  0.00  0.00    +0.000 HD
ENDBRANCH   1  14
BRANCH   4  18
ATOM     18  N   UNL     1       4.553   3.840  17.809  0.00  0.00    +0.000 N 
ATOM     19  C   UNL     1       4.049   2.677  17.260  0.00  0.00    +0.000 A 
ATOM     20  N   UNL     1       3.126   1.959  17.822  0.00  0.00    +0.000 NA
ATOM     21  C   UNL     1       2.665   2.448  19.065  0.00  0.00    +0.000 A 
ATOM     22  C   UNL     1       1.349   2.258  19.473  0.00  0.00    +0.000 A 
ATOM     23  C   UNL     1       0.894   2.843  20.662  0.00  0.00    +0.000 A 
ATOM     24  C   UNL     1       1.764   3.576  21.477  0.00  0.00    +0.000 A 
ATOM     25  C   UNL     1       3.084   3.769  21.085  0.00  0.00    +0.000 A 
ATOM     26  C   UNL     1       3.500   3.238  19.865  0.00  0.00    +0.000 A 
ATOM     27  C   UNL     1       4.728   3.713  19.187  0.00  0.00    +0.000 A 
ATOM     28  O   UNL     1       5.739   4.011  19.811  0.00  0.00    +0.000 OA
ENDBRANCH   4  18
TORSDOF 2
ENDMDL
MODEL 5
REMARK VINA RESULT:      -9.2      1.766      3.269
REMARK  Name = 
REMARK  3 active torsions:
REMARK  status: ('A' for Active; 'I' for Inactive)
REMARK    1  A    between atoms: C_1  and  C_2
REMARK    2  A    between atoms: C_8  and  C_10
REMARK    3  A    between atoms: C_13  and  N_14
REMARK                            x       y       z     vdW  Elec       q    Type
REMARK                         _______ _______ _______ _____ _____    ______ ____
ROOT
ATOM      1  C   UNL     1       1.704   8.358  19.245  0.00  0.00    +0.000 A 
ATOM      2  C   UNL     1       1.849   7.571  20.392  0.00  0.00    +0.000 A 
ATOM      3  C   UNL     1       2.492   6.332  20.310  0.00  0.00    +0.000 A 
ATOM      4  C   UNL     1       2.909   5.830  19.064  0.00  0.00    +0.000 A 
ATOM      5  C   UNL     1       2.953   6.711  17.974  0.00  0.00    +0.000 A 
ATOM      6  C   UNL     1       2.332   7.957  18.060  0.00  0.00    +0.000 A 
ENDROOT
BRANCH   1  14
ATOM      7  C   UNL     1      -2.366  12.756  23.415  0.00  0.00    +0.000 C 
ATOM      8  C   UNL     1      -1.969  12.361  22.024  0.00  0.00    +0.000 A 
ATOM      9  C   UNL     1      -2.507  12.997  20.909  0.00  0.00    +0.000 A 
ATOM     10  C   UNL     1      -2.103  12.577  19.655  0.00  0.00    +0.000 A 
ATOM     11  N   UNL     1      -1.205  11.593  19.452  0.00  0.00    +0.000 NA
ATOM     12  C   UNL     1      -0.675  10.988  20.526  0.00  0.00    +0.000 A 
ATOM     13  N   UNL     1       0.277   9.969  20.381  0.00  0.00    +0.000 N 
ATOM     14  C   UNL     1       0.781   9.531  19.175  0.00  0.00    +0.000 C 
ATOM     15  O   UNL     1       0.540   9.986  18.063  0.00  0.00    +0.000 OA
ATOM     16  C   UNL     1      -1.044  11.332  21.823  0.00  0.00    +0.000 A 
ATOM     17  H   UNL     1       0.637   9.574  21.232  0.00  0.00    +0.000 HD
ENDBRANCH   1  14
BRANCH   4  18
ATOM     18  N   UNL     1       2.994   4.384  18.859  0.00  0.00    +0.000 N 
ATOM     19  C   UNL     1       3.903   3.754  19.686  0.00  0.00    +0.000 A 
ATOM     20  N   UNL     1       5.156   3.596  19.388  0.00  0.00    +0.000 NA
ATOM     21  C   UNL     1       5.538   4.112  18.129  0.00  0.00    +0.000 A 
ATOM     22  C   UNL     1       6.813   4.624  17.916  0.00  0.00    +0.000 A 
ATOM     23  C   UNL     1       7.131   5.223  16.689  0.00  0.00    +0.000 A 
ATOM     24  C   UNL     1       6.192   5.266  15.651  0.00  0.00    +0.000 A 
ATOM     25  C   UNL     1       4.915   4.752  15.848  0.00  0.00    +0.000 A 
ATOM     26  C   UNL     1       4.597   4.223  17.098  0.00  0.00    +0.000 A 
ATOM     27  C   UNL     1       3.193   4.027  17.526  0.00  0.00    +0.000 A 
ATOM     28  O   UNL     1       2.325   3.653  16.747  0.00  0.00    +0.000 OA
ENDBRANCH   4  18
TORSDOF 2
ENDMDL
MODEL 6
REMARK VINA RESULT:      -9.0      2.574      4.184
REMARK  Name = 
REMARK  3 active torsions:
REMARK  status: ('A' for Active; 'I' for Inactive)
REMARK    1  A    between atoms: C_1  and  C_2
REMARK    2  A    between atoms: C_8  and  C_10
REMARK    3  A    between atoms: C_13  and  N_14
REMARK                            x       y       z     vdW  Elec       q    Type
REMARK                         _______ _______ _______ _____ _____    ______ ____
ROOT
ATOM      1  C   UNL     1       1.597   8.921  19.242  0.00  0.00    +0.000 A 
ATOM      2  C   UNL     1       1.890   7.704  19.868  0.00  0.00    +0.000 A 
ATOM      3  C   UNL     1       2.791   6.815  19.274  0.00  0.00    +0.000 A 
ATOM      4  C   UNL     1       3.329   7.093  18.005  0.00  0.00    +0.000 A 
ATOM      5  C   UNL     1       3.199   8.393  17.497  0.00  0.00    +0.000 A 
ATOM      6  C   UNL     1       2.318   9.291  18.101  0.00  0.00    +0.000 A 
ENDROOT
BRANCH   1  14
ATOM      7  C   UNL     1      -4.785  11.495  16.803  0.00  0.00    +0.000 C 
ATOM      8  C   UNL     1      -3.761  11.516  17.897  0.00  0.00    +0.000 A 
ATOM      9  C   UNL     1      -3.921  12.316  19.025  0.00  0.00    +0.000 A 
ATOM     10  C   UNL     1      -2.934  12.293  19.993  0.00  0.00    +0.000 A 
ATOM     11  N   UNL     1      -1.829  11.527  19.912  0.00  0.00    +0.000 NA
ATOM     12  C   UNL     1      -1.679  10.744  18.832  0.00  0.00    +0.000 A 
ATOM     13  N   UNL     1      -0.559   9.911  18.698  0.00  0.00    +0.000 N 
ATOM     14  C   UNL     1       0.440   9.780  19.638  0.00  0.00    +0.000 C 
ATOM     15  O   UNL     1       0.486  10.302  20.746  0.00  0.00    +0.000 OA
ATOM     16  C   UNL     1      -2.612  10.724  17.800  0.00  0.00    +0.000 A 
ATOM     17  H   UNL     1      -0.525   9.345  17.868  0.00  0.00    +0.000 HD
ENDBRANCH   1  14
BRANCH   4  18
ATOM     18  N   UNL     1       3.733   5.989  17.133  0.00  0.00    +0.000 N 
ATOM     19  C   UNL     1       3.746   4.758  17.759  0.00  0.00    +0.000 A 
ATOM     20  N   UNL     1       4.778   4.282  18.385  0.00  0.00    +0.000 NA
ATOM     21  C   UNL     1       5.918   5.118  18.378  0.00  0.00    +0.000 A 
ATOM     22  C   UNL     1       6.809   5.133  19.445  0.00  0.00    +0.000 A 
ATOM     23  C   UNL     1       7.872   6.046  19.455  0.00  0.00    +0.000 A 
ATOM     24  C   UNL     1       8.081   6.912  18.375  0.00  0.00    +0.000 A 
ATOM     25  C   UNL     1       7.202   6.902  17.298  0.00  0.00    +0.000 A 
ATOM     26  C   UNL     1       6.111   6.036  17.338  0.00  0.00    +0.000 A 
ATOM     27  C   UNL     1       4.932   6.227  16.462  0.00  0.00    +0.000 A 
ATOM     28  O   UNL     1       5.041   6.613  15.304  0.00  0.00    +0.000 OA
ENDBRANCH   4  18
TORSDOF 2
ENDMDL
MODEL 7
REMARK VINA RESULT:      -8.8      1.828      2.625
REMARK  Name = 
REMARK  3 active torsions:
REMARK  status: ('A' for Active; 'I' for Inactive)
REMARK    1  A    between atoms: C_1  and  C_2
REMARK    2  A    between atoms: C_8  and  C_10
REMARK    3  A    between atoms: C_13  and  N_14
REMARK                            x       y       z     vdW  Elec       q    Type
REMARK                         _______ _______ _______ _____ _____    ______ ____
ROOT
ATOM      1  C   UNL     1       1.654   8.160  19.888  0.00  0.00    +0.000 A 
ATOM      2  C   UNL     1       2.031   8.565  18.603  0.00  0.00    +0.000 A 
ATOM      3  C   UNL     1       2.908   7.776  17.853  0.00  0.00    +0.000 A 
ATOM      4  C   UNL     1       3.490   6.628  18.419  0.00  0.00    +0.000 A 
ATOM      5  C   UNL     1       2.944   6.123  19.608  0.00  0.00    +0.000 A 
ATOM      6  C   UNL     1       2.050   6.899  20.348  0.00  0.00    +0.000 A 
ENDROOT
BRANCH   1  14
ATOM      7  C   UNL     1      -3.398  13.412  20.333  0.00  0.00    +0.000 C 
ATOM      8  C   UNL     1      -2.343  12.623  21.049  0.00  0.00    +0.000 A 
ATOM      9  C   UNL     1      -2.058  12.847  22.393  0.00  0.00    +0.000 A 
ATOM     10  C   UNL     1      -1.068  12.088  22.990  0.00  0.00    +0.000 A 
ATOM     11  N   UNL     1      -0.371  11.132  22.345  0.00  0.00    +0.000 NA
ATOM     12  C   UNL     1      -0.654  10.905  21.053  0.00  0.00    +0.000 A 
ATOM     13  N   UNL     1       0.024   9.912  20.332  0.00  0.00    +0.000 N 
ATOM     14  C   UNL     1       0.979   9.071  20.861  0.00  0.00    +0.000 C 
ATOM     15  O   UNL     1       1.341   9.004  22.031  0.00  0.00    +0.000 OA
ATOM     16  C   UNL     1      -1.619  11.639  20.369  0.00  0.00    +0.000 A 
ATOM     17  H   UNL     1      -0.253   9.793  19.373  0.00  0.00    +0.000 HD
ENDBRANCH   1  14
BRANCH   4  18
ATOM     18  N   UNL     1       4.796   6.170  17.945  0.00  0.00    +0.000 N 
ATOM     19  C   UNL     1       4.797   5.749  16.629  0.00  0.00    +0.000 A 
ATOM     20  N   UNL     1       4.542   4.530  16.265  0.00  0.00    +0.000 NA
ATOM     21  C   UNL     1       4.265   3.637  17.325  0.00  0.00    +0.000 A 
ATOM     22  C   UNL     1       3.384   2.575  17.162  0.00  0.00    +0.000 A 
ATOM     23  C   UNL     1       3.050   1.768  18.259  0.00  0.00    +0.000 A 
ATOM     24  C   UNL     1       3.635   1.987  19.512  0.00  0.00    +0.000 A 
ATOM     25  C   UNL     1       4.524   3.042  19.687  0.00  0.00    +0.000 A 
ATOM     26  C   UNL     1       4.790   3.875  18.602  0.00  0.00    +0.000 A 
ATOM     27  C   UNL     1       5.384   5.220  18.779  0.00  0.00    +0.000 A 
ATOM     28  O   UNL     1       6.247   5.441  19.620  0.00  0.00    +0.000 OA
ENDBRANCH   4  18
TORSDOF 2
ENDMDL
MODEL 8
REMARK VINA RESULT:      -8.8      2.499      3.811
REMARK  Name = 
REMARK  3 active torsions:
REMARK  status: ('A' for Active; 'I' for Inactive)
REMARK    1  A    between atoms: C_1  and  C_2
REMARK    2  A    between atoms: C_8  and  C_10
REMARK    3  A    between atoms: C_13  and  N_14
REMARK                            x       y       z     vdW  Elec       q    Type
REMARK                         _______ _______ _______ _____ _____    ______ ____
ROOT
ATOM      1  C   UNL     1       1.882   8.523  18.929  0.00  0.00    +0.000 A 
ATOM      2  C   UNL     1       1.849   7.772  20.108  0.00  0.00    +0.000 A 
ATOM      3  C   UNL     1       2.416   6.494  20.136  0.00  0.00    +0.000 A 
ATOM      4  C   UNL     1       2.933   5.922  18.960  0.00  0.00    +0.000 A 
ATOM      5  C   UNL     1       3.154   6.757  17.855  0.00  0.00    +0.000 A 
ATOM      6  C   UNL     1       2.609   8.041  17.834  0.00  0.00    +0.000 A 
ENDROOT
BRANCH   1  14
ATOM      7  C   UNL     1       2.233  15.816  18.950  0.00  0.00    +0.000 C 
ATOM      8  C   UNL     1       1.358  14.603  18.840  0.00  0.00    +0.000 A 
ATOM      9  C   UNL     1      -0.018  14.716  18.661  0.00  0.00    +0.000 A 
ATOM     10  C   UNL     1      -0.766  13.556  18.575  0.00  0.00    +0.000 A 
ATOM     11  N   UNL     1      -0.234  12.319  18.642  0.00  0.00    +0.000 NA
ATOM     12  C   UNL     1       1.094  12.209  18.800  0.00  0.00    +0.000 A 
ATOM     13  N   UNL     1       1.708  10.950  18.859  0.00  0.00    +0.000 N 
ATOM     14  C   UNL     1       1.050   9.747  18.721  0.00  0.00    +0.000 C 
ATOM     15  O   UNL     1      -0.137   9.578  18.467  0.00  0.00    +0.000 OA
ATOM     16  C   UNL     1       1.918  13.324  18.919  0.00  0.00    +0.000 A 
ATOM     17  H   UNL     1       2.708  10.949  18.965  0.00  0.00    +0.000 HD
ENDBRANCH   1  14
BRANCH   4  18
ATOM     18  N   UNL     1       2.946   4.466  18.809  0.00  0.00    +0.000 N 
ATOM     19  C   UNL     1       3.814   3.823  19.670  0.00  0.00    +0.000 A 
ATOM     20  N   UNL     1       5.060   3.590  19.392  0.00  0.00    +0.000 NA
ATOM     21  C   UNL     1       5.480   4.039  18.120  0.00  0.00    +0.000 A 
ATOM     22  C   UNL     1       6.782   4.477  17.903  0.00  0.00    +0.000 A 
ATOM     23  C   UNL     1       7.141   5.013  16.658  0.00  0.00    +0.000 A 
ATOM     24  C   UNL     1       6.217   5.065  15.609  0.00  0.00    +0.000 A 
ATOM     25  C   UNL     1       4.913   4.624  15.809  0.00  0.00    +0.000 A 
ATOM     26  C   UNL     1       4.556   4.159  17.074  0.00  0.00    +0.000 A 
ATOM     27  C   UNL     1       3.140   4.050  17.493  0.00  0.00    +0.000 A 
ATOM     28  O   UNL     1       2.261   3.691  16.718  0.00  0.00    +0.000 OA
ENDBRANCH   4  18
TORSDOF 2
ENDMDL
MODEL 9
REMARK VINA RESULT:      -8.7      1.524      1.723
REMARK  Name = 
REMARK  3 active torsions:
REMARK  status: ('A' for Active; 'I' for Inactive)
REMARK    1  A    between atoms: C_1  and  C_2
REMARK    2  A    between atoms: C_8  and  C_10
REMARK    3  A    between atoms: C_13  and  N_14
REMARK                            x       y       z     vdW  Elec       q    Type
REMARK                         _______ _______ _______ _____ _____    ______ ____
ROOT
ATOM      1  C   UNL     1       2.532   8.008  18.425  0.00  0.00    +0.000 A 
ATOM      2  C   UNL     1       2.486   7.074  19.465  0.00  0.00    +0.000 A 
ATOM      3  C   UNL     1       3.281   5.926  19.406  0.00  0.00    +0.000 A 
ATOM      4  C   UNL     1       4.054   5.656  18.262  0.00  0.00    +0.000 A 
ATOM      5  C   UNL     1       4.255   6.690  17.337  0.00  0.00    +0.000 A 
ATOM      6  C   UNL     1       3.480   7.848  17.407  0.00  0.00    +0.000 A 
ENDROOT
BRANCH   1  14
ATOM      7  C   UNL     1       1.503  15.171  19.397  0.00  0.00    +0.000 C 
ATOM      8  C   UNL     1       0.890  13.856  19.018  0.00  0.00    +0.000 A 
ATOM      9  C   UNL     1      -0.453  13.758  18.667  0.00  0.00    +0.000 A 
ATOM     10  C   UNL     1      -0.956  12.513  18.335  0.00  0.00    +0.000 A 
ATOM     11  N   UNL     1      -0.213  11.389  18.321  0.00  0.00    +0.000 NA
ATOM     12  C   UNL     1       1.086  11.484  18.646  0.00  0.00    +0.000 A 
ATOM     13  N   UNL     1       1.915  10.353  18.632  0.00  0.00    +0.000 N 
ATOM     14  C   UNL     1       1.514   9.089  18.258  0.00  0.00    +0.000 C 
ATOM     15  O   UNL     1       0.416   8.759  17.823  0.00  0.00    +0.000 OA
ATOM     16  C   UNL     1       1.667  12.693  19.015  0.00  0.00    +0.000 A 
ATOM     17  H   UNL     1       2.878  10.507  18.875  0.00  0.00    +0.000 HD
ENDBRANCH   1  14
BRANCH   4  18
ATOM     18  N   UNL     1       4.369   4.271  17.913  0.00  0.00    +0.000 N 
ATOM     19  C   UNL     1       3.579   3.754  16.905  0.00  0.00    +0.000 A 
ATOM     20  N   UNL     1       2.446   3.157  17.115  0.00  0.00    +0.000 NA
ATOM     21  C   UNL     1       2.069   3.057  18.473  0.00  0.00    +0.000 A 
ATOM     22  C   UNL     1       0.732   3.080  18.854  0.00  0.00    +0.000 A 
ATOM     23  C   UNL     1       0.392   3.084  20.214  0.00  0.00    +0.000 A 
ATOM     24  C   UNL     1       1.384   3.010  21.198  0.00  0.00    +0.000 A 
ATOM     25  C   UNL     1       2.725   2.979  20.832  0.00  0.00    +0.000 A 
ATOM     26  C   UNL     1       3.045   3.047  19.477  0.00  0.00    +0.000 A 
ATOM     27  C   UNL     1       4.403   3.417  19.015  0.00  0.00    +0.000 A 
ATOM     28  O   UNL     1       5.411   3.046  19.603  0.00  0.00    +0.000 OA
ENDBRANCH   4  18
TORSDOF 2
ENDMDL
