MODEL 1
REMARK VINA RESULT:      -8.9      0.000      0.000
REMARK  Name = 
REMARK  9 active torsions:
REMARK  status: ('A' for Active; 'I' for Inactive)
REMARK    1  A    between atoms: C_1  and  N_2
REMARK    2  A    between atoms: C_6  and  C_7
REMARK    3  A    between atoms: C_7  and  C_8
REMARK    4  A    between atoms: C_8  and  C_9
REMARK    5  A    between atoms: C_13  and  N_14
REMARK    6  A    between atoms: C_19  and  C_20
REMARK    7  A    between atoms: C_20  and  C_21
REMARK    8  A    between atoms: C_21  and  N_22
REMARK    9  A    between atoms: C_21  and  C_23
REMARK                            x       y       z     vdW  Elec       q    Type
REMARK                         _______ _______ _______ _____ _____    ______ ____
ROOT
ATOM      1  N   UNL     1       6.074   5.382  15.655  0.00  0.00    +0.000 N 
ATOM      2  C   UNL     1       5.110   6.512  15.552  0.00  0.00    +0.000 C 
ATOM      3  C   UNL     1       4.248   6.272  16.752  0.00  0.00    +0.000 A 
ATOM      4  C   UNL     1       3.798   7.165  17.707  0.00  0.00    +0.000 A 
ATOM      5  C   UNL     1       3.326   6.645  18.920  0.00  0.00    +0.000 A 
ATOM      6  C   UNL     1       3.288   5.249  19.165  0.00  0.00    +0.000 A 
ATOM      7  C   UNL     1       3.739   4.359  18.178  0.00  0.00    +0.000 A 
ATOM      8  C   UNL     1       4.234   4.897  16.998  0.00  0.00    +0.000 A 
ATOM      9  C   UNL     1       5.299   4.298  16.160  0.00  0.00    +0.000 C 
ATOM     10  O   UNL     1       5.550   3.106  16.125  0.00  0.00    +0.000 OA
ENDROOT
BRANCH   1  15
ATOM     11  C   UNL     1       7.906   7.711  17.797  0.00  0.00    +0.000 A 
ATOM     12  C   UNL     1       8.066   6.866  18.905  0.00  0.00    +0.000 A 
ATOM     13  C   UNL     1       7.976   5.485  18.763  0.00  0.00    +0.000 A 
ATOM     14  C   UNL     1       7.623   4.939  17.538  0.00  0.00    +0.000 A 
ATOM     15  C   UNL     1       7.203   5.785  16.497  0.00  0.00    +0.000 A 
ATOM     16  C   UNL     1       7.505   7.152  16.575  0.00  0.00    +0.000 A 
BRANCH  11  17
ATOM     17  C   UNL     1       8.146   9.194  17.954  0.00  0.00    +0.000 C 
BRANCH  17  18
ATOM     18  C   UNL     1       9.138   9.629  19.039  0.00  0.00    +0.000 C 
BRANCH  18  24
ATOM     19  C   UNL     1       9.156  11.970  21.124  0.00  0.00    +0.000 C 
ATOM     20  N   UNL     1       9.668  12.013  19.784  0.00  0.00    +0.000 N 
ATOM     21  C   UNL     1      10.293  13.069  19.203  0.00  0.00    +0.000 A 
ATOM     22  N   UNL     1      10.661  12.754  17.983  0.00  0.00    +0.000 NA
ATOM     23  N   UNL     1      10.274  11.456  17.764  0.00  0.00    +0.000 NA
ATOM     24  C   UNL     1       9.669  11.008  18.844  0.00  0.00    +0.000 A 
ENDBRANCH  18  24
ENDBRANCH  17  18
ENDBRANCH  11  17
ENDBRANCH   1  15
BRANCH   6  25
ATOM     25  C   UNL     1       2.848   4.722  20.516  0.00  0.00    +0.000 C 
BRANCH  25  26
ATOM     26  C   UNL     1       2.490   3.214  20.559  0.00  0.00    +0.000 C 
BRANCH  26  27
ATOM     27  C   UNL     1       0.938   3.051  20.467  0.00  0.00    +0.000 C 
ATOM     28  F   UNL     1       0.567   2.230  19.457  0.00  0.00    +0.000 F 
ATOM     29  F   UNL     1       0.433   2.535  21.610  0.00  0.00    +0.000 F 
ATOM     30  F   UNL     1       0.321   4.237  20.247  0.00  0.00    +0.000 F 
ENDBRANCH  26  27
BRANCH  26  31
ATOM     31  N   UNL     1       3.125   2.525  21.724  0.00  0.00    +0.000 NA
ATOM     32  H   UNL     1       3.026   3.109  22.555  0.00  0.00    +0.000 HD
ATOM     33  H   UNL     1       4.125   2.416  21.556  0.00  0.00    +0.000 HD
ENDBRANCH  26  31
ENDBRANCH  25  26
ENDBRANCH   6  25
TORSDOF 8
ENDMDL
MODEL 2
REMARK VINA RESULT:      -8.7      0.954      1.108
REMARK  Name = 
REMARK  9 active torsions:
REMARK  status: ('A' for Active; 'I' for Inactive)
REMARK    1  A    between atoms: C_1  and  N_2
REMARK    2  A    between atoms: C_6  and  C_7
REMARK    3  A    between atoms: C_7  and  C_8
REMARK    4  A    between atoms: C_8  and  C_9
REMARK    5  A    between atoms: C_13  and  N_14
REMARK    6  A    between atoms: C_19  and  C_20
REMARK    7  A    between atoms: C_20  and  C_21
REMARK    8  A    between atoms: C_21  and  N_22
REMARK    9  A    between atoms: C_21  and  C_23
REMARK                            x       y       z     vdW  Elec       q    Type
REMARK                         _______ _______ _______ _____ _____    ______ ____
ROOT
ATOM      1  N   UNL     1       6.011   5.265  15.808  0.00  0.00    +0.000 N 
ATOM      2  C   UNL     1       5.072   6.408  15.644  0.00  0.00    +0.000 C 
ATOM      3  C   UNL     1       4.195   6.242  16.845  0.00  0.00    +0.000 A 
ATOM      4  C   UNL     1       3.755   7.187  17.753  0.00  0.00    +0.000 A 
ATOM      5  C   UNL     1       3.261   6.733  18.985  0.00  0.00    +0.000 A 
ATOM      6  C   UNL     1       3.191   5.351  19.293  0.00  0.00    +0.000 A 
ATOM      7  C   UNL     1       3.632   4.407  18.352  0.00  0.00    +0.000 A 
ATOM      8  C   UNL     1       4.149   4.880  17.154  0.00  0.00    +0.000 A 
ATOM      9  C   UNL     1       5.208   4.222  16.354  0.00  0.00    +0.000 C 
ATOM     10  O   UNL     1       5.435   3.024  16.377  0.00  0.00    +0.000 OA
ENDROOT
BRANCH   1  15
ATOM     11  C   UNL     1       7.883   7.658  17.842  0.00  0.00    +0.000 A 
ATOM     12  C   UNL     1       8.005   6.873  18.999  0.00  0.00    +0.000 A 
ATOM     13  C   UNL     1       7.877   5.488  18.933  0.00  0.00    +0.000 A 
ATOM     14  C   UNL     1       7.523   4.885  17.734  0.00  0.00    +0.000 A 
ATOM     15  C   UNL     1       7.141   5.683  16.643  0.00  0.00    +0.000 A 
ATOM     16  C   UNL     1       7.481   7.042  16.649  0.00  0.00    +0.000 A 
BRANCH  11  17
ATOM     17  C   UNL     1       8.164   9.140  17.920  0.00  0.00    +0.000 C 
BRANCH  17  18
ATOM     18  C   UNL     1       9.005   9.630  19.104  0.00  0.00    +0.000 C 
BRANCH  18  24
ATOM     19  C   UNL     1       9.545  11.893  21.204  0.00  0.00    +0.000 C 
ATOM     20  N   UNL     1       9.892  11.916  19.813  0.00  0.00    +0.000 N 
ATOM     21  C   UNL     1      10.560  12.912  19.174  0.00  0.00    +0.000 A 
ATOM     22  N   UNL     1      10.738  12.593  17.913  0.00  0.00    +0.000 NA
ATOM     23  N   UNL     1      10.181  11.353  17.725  0.00  0.00    +0.000 NA
ATOM     24  C   UNL     1       9.664  10.945  18.865  0.00  0.00    +0.000 A 
ENDBRANCH  18  24
ENDBRANCH  17  18
ENDBRANCH  11  17
ENDBRANCH   1  15
BRANCH   6  25
ATOM     25  C   UNL     1       2.728   4.896  20.662  0.00  0.00    +0.000 C 
BRANCH  25  26
ATOM     26  C   UNL     1       1.423   4.060  20.680  0.00  0.00    +0.000 C 
BRANCH  26  27
ATOM     27  C   UNL     1       1.726   2.646  21.275  0.00  0.00    +0.000 C 
ATOM     28  F   UNL     1       2.983   2.554  21.766  0.00  0.00    +0.000 F 
ATOM     29  F   UNL     1       0.877   2.349  22.285  0.00  0.00    +0.000 F 
ATOM     30  F   UNL     1       1.603   1.672  20.341  0.00  0.00    +0.000 F 
ENDBRANCH  26  27
BRANCH  26  31
ATOM     31  N   UNL     1       0.752   4.047  19.344  0.00  0.00    +0.000 NA
ATOM     32  H   UNL     1       0.220   4.910  19.225  0.00  0.00    +0.000 HD
ATOM     33  H   UNL     1       0.082   3.279  19.303  0.00  0.00    +0.000 HD
ENDBRANCH  26  31
ENDBRANCH  25  26
ENDBRANCH   6  25
TORSDOF 8
ENDMDL
MODEL 3
REMARK VINA RESULT:      -8.5      0.570      1.100
REMARK  Name = 
REMARK  9 active torsions:
REMARK  status: ('A' for Active; 'I' for Inactive)
REMARK    1  A    between atoms: C_1  and  N_2
REMARK    2  A    between atoms: C_6  and  C_7
REMARK    3  A    between atoms: C_7  and  C_8
REMARK    4  A    between atoms: C_8  and  C_9
REMARK    5  A    between atoms: C_13  and  N_14
REMARK    6  A    between atoms: C_19  and  C_20
REMARK    7  A    between atoms: C_20  and  C_21
REMARK    8  A    between atoms: C_21  and  N_22
REMARK    9  A    between atoms: C_21  and  C_23
REMARK                            x       y       z     vdW  Elec       q    Type
REMARK                         _______ _______ _______ _____ _____    ______ ____
ROOT
ATOM      1  N   UNL     1       6.002   5.575  15.758  0.00  0.00    +0.000 N 
ATOM      2  C   UNL     1       5.059   6.727  15.726  0.00  0.00    +0.000 C 
ATOM      3  C   UNL     1       4.205   6.441  16.921  0.00  0.00    +0.000 A 
ATOM      4  C   UNL     1       3.782   7.291  17.926  0.00  0.00    +0.000 A 
ATOM      5  C   UNL     1       3.312   6.717  19.116  0.00  0.00    +0.000 A 
ATOM      6  C   UNL     1       3.249   5.311  19.288  0.00  0.00    +0.000 A 
ATOM      7  C   UNL     1       3.672   4.466  18.250  0.00  0.00    +0.000 A 
ATOM      8  C   UNL     1       4.166   5.056  17.095  0.00  0.00    +0.000 A 
ATOM      9  C   UNL     1       5.210   4.481  16.214  0.00  0.00    +0.000 C 
ATOM     10  O   UNL     1       5.438   3.289  16.114  0.00  0.00    +0.000 OA
ENDROOT
BRANCH   1  15
ATOM     11  C   UNL     1       7.942   7.786  17.930  0.00  0.00    +0.000 A 
ATOM     12  C   UNL     1       8.056   6.923  19.030  0.00  0.00    +0.000 A 
ATOM     13  C   UNL     1       7.897   5.549  18.873  0.00  0.00    +0.000 A 
ATOM     14  C   UNL     1       7.520   5.035  17.640  0.00  0.00    +0.000 A 
ATOM     15  C   UNL     1       7.147   5.912  16.608  0.00  0.00    +0.000 A 
ATOM     16  C   UNL     1       7.517   7.261  16.702  0.00  0.00    +0.000 A 
BRANCH  11  17
ATOM     17  C   UNL     1       8.256   9.253  18.104  0.00  0.00    +0.000 C 
BRANCH  17  18
ATOM     18  C   UNL     1       9.344   9.618  19.120  0.00  0.00    +0.000 C 
BRANCH  18  24
ATOM     19  C   UNL     1      10.655  11.991  17.547  0.00  0.00    +0.000 C 
ATOM     20  N   UNL     1       9.929  12.080  18.781  0.00  0.00    +0.000 N 
ATOM     21  C   UNL     1       9.644  13.222  19.458  0.00  0.00    +0.000 A 
ATOM     22  N   UNL     1       8.938  12.943  20.528  0.00  0.00    +0.000 NA
ATOM     23  N   UNL     1       8.746  11.584  20.546  0.00  0.00    +0.000 NA
ATOM     24  C   UNL     1       9.348  11.060  19.499  0.00  0.00    +0.000 A 
ENDBRANCH  18  24
ENDBRANCH  17  18
ENDBRANCH  11  17
ENDBRANCH   1  15
BRANCH   6  25
ATOM     25  C   UNL     1       2.813   4.722  20.614  0.00  0.00    +0.000 C 
BRANCH  25  26
ATOM     26  C   UNL     1       2.513   3.202  20.601  0.00  0.00    +0.000 C 
BRANCH  26  27
ATOM     27  C   UNL     1       0.967   2.983  20.515  0.00  0.00    +0.000 C 
ATOM     28  F   UNL     1       0.620   2.155  19.502  0.00  0.00    +0.000 F 
ATOM     29  F   UNL     1       0.486   2.442  21.658  0.00  0.00    +0.000 F 
ATOM     30  F   UNL     1       0.306   4.147  20.306  0.00  0.00    +0.000 F 
ENDBRANCH  26  27
BRANCH  26  31
ATOM     31  N   UNL     1       3.184   2.493  21.734  0.00  0.00    +0.000 NA
ATOM     32  H   UNL     1       4.179   2.718  21.729  0.00  0.00    +0.000 HD
ATOM     33  H   UNL     1       3.107   1.485  21.601  0.00  0.00    +0.000 HD
ENDBRANCH  26  31
ENDBRANCH  25  26
ENDBRANCH   6  25
TORSDOF 8
ENDMDL
MODEL 4
REMARK VINA RESULT:      -8.4      1.017      1.158
REMARK  Name = 
REMARK  9 active torsions:
REMARK  status: ('A' for Active; 'I' for Inactive)
REMARK    1  A    between atoms: C_1  and  N_2
REMARK    2  A    between atoms: C_6  and  C_7
REMARK    3  A    between atoms: C_7  and  C_8
REMARK    4  A    between atoms: C_8  and  C_9
REMARK    5  A    between atoms: C_13  and  N_14
REMARK    6  A    between atoms: C_19  and  C_20
REMARK    7  A    between atoms: C_20  and  C_21
REMARK    8  A    between atoms: C_21  and  N_22
REMARK    9  A    between atoms: C_21  and  C_23
REMARK                            x       y       z     vdW  Elec       q    Type
REMARK                         _______ _______ _______ _____ _____    ______ ____
ROOT
ATOM      1  N   UNL     1       6.178   5.634  15.589  0.00  0.00    +0.000 N 
ATOM      2  C   UNL     1       5.033   6.561  15.803  0.00  0.00    +0.000 C 
ATOM      3  C   UNL     1       4.270   5.844  16.873  0.00  0.00    +0.000 A 
ATOM      4  C   UNL     1       3.713   6.337  18.038  0.00  0.00    +0.000 A 
ATOM      5  C   UNL     1       3.383   5.419  19.046  0.00  0.00    +0.000 A 
ATOM      6  C   UNL     1       3.591   4.026  18.879  0.00  0.00    +0.000 A 
ATOM      7  C   UNL     1       4.147   3.546  17.683  0.00  0.00    +0.000 A 
ATOM      8  C   UNL     1       4.499   4.475  16.714  0.00  0.00    +0.000 A 
ATOM      9  C   UNL     1       5.617   4.334  15.752  0.00  0.00    +0.000 C 
ATOM     10  O   UNL     1       6.065   3.264  15.379  0.00  0.00    +0.000 OA
ENDROOT
BRANCH   1  15
ATOM     11  C   UNL     1       7.946   7.843  17.904  0.00  0.00    +0.000 A 
ATOM     12  C   UNL     1       7.972   6.981  19.010  0.00  0.00    +0.000 A 
ATOM     13  C   UNL     1       7.823   5.607  18.842  0.00  0.00    +0.000 A 
ATOM     14  C   UNL     1       7.543   5.093  17.584  0.00  0.00    +0.000 A 
ATOM     15  C   UNL     1       7.253   5.970  16.525  0.00  0.00    +0.000 A 
ATOM     16  C   UNL     1       7.617   7.318  16.647  0.00  0.00    +0.000 A 
BRANCH  11  17
ATOM     17  C   UNL     1       8.247   9.310  18.101  0.00  0.00    +0.000 C 
BRANCH  17  18
ATOM     18  C   UNL     1       9.264   9.674  19.189  0.00  0.00    +0.000 C 
BRANCH  18  24
ATOM     19  C   UNL     1       9.324  11.978  21.314  0.00  0.00    +0.000 C 
ATOM     20  N   UNL     1       9.865  12.024  19.987  0.00  0.00    +0.000 N 
ATOM     21  C   UNL     1      10.541  13.065  19.437  0.00  0.00    +0.000 A 
ATOM     22  N   UNL     1      10.923  12.757  18.219  0.00  0.00    +0.000 NA
ATOM     23  N   UNL     1      10.493  11.478  17.970  0.00  0.00    +0.000 NA
ATOM     24  C   UNL     1       9.850  11.035  19.029  0.00  0.00    +0.000 A 
ENDBRANCH  18  24
ENDBRANCH  17  18
ENDBRANCH  11  17
ENDBRANCH   1  15
BRANCH   6  25
ATOM     25  C   UNL     1       3.298   3.068  20.016  0.00  0.00    +0.000 C 
BRANCH  25  26
ATOM     26  C   UNL     1       1.823   2.608  20.138  0.00  0.00    +0.000 C 
BRANCH  26  27
ATOM     27  C   UNL     1       1.250   2.336  18.708  0.00  0.00    +0.000 C 
ATOM     28  F   UNL     1       2.118   1.653  17.928  0.00  0.00    +0.000 F 
ATOM     29  F   UNL     1       0.109   1.612  18.769  0.00  0.00    +0.000 F 
ATOM     30  F   UNL     1       0.966   3.489  18.054  0.00  0.00    +0.000 F 
ENDBRANCH  26  27
BRANCH  26  31
ATOM     31  N   UNL     1       1.013   3.551  20.969  0.00  0.00    +0.000 NA
ATOM     32  H   UNL     1       0.322   3.021  21.501  0.00  0.00    +0.000 HD
ATOM     33  H   UNL     1       0.495   4.186  20.362  0.00  0.00    +0.000 HD
ENDBRANCH  26  31
ENDBRANCH  25  26
ENDBRANCH   6  25
TORSDOF 8
ENDMDL
MODEL 5
REMARK VINA RESULT:      -8.3      1.281      1.662
REMARK  Name = 
REMARK  9 active torsions:
REMARK  status: ('A' for Active; 'I' for Inactive)
REMARK    1  A    between atoms: C_1  and  N_2
REMARK    2  A    between atoms: C_6  and  C_7
REMARK    3  A    between atoms: C_7  and  C_8
REMARK    4  A    between atoms: C_8  and  C_9
REMARK    5  A    between atoms: C_13  and  N_14
REMARK    6  A    between atoms: C_19  and  C_20
REMARK    7  A    between atoms: C_20  and  C_21
REMARK    8  A    between atoms: C_21  and  N_22
REMARK    9  A    between atoms: C_21  and  C_23
REMARK                            x       y       z     vdW  Elec       q    Type
REMARK                         _______ _______ _______ _____ _____    ______ ____
ROOT
ATOM      1  N   UNL     1       6.039   5.971  15.826  0.00  0.00    +0.000 N 
ATOM      2  C   UNL     1       4.993   6.912  16.315  0.00  0.00    +0.000 C 
ATOM      3  C   UNL     1       4.254   6.049  17.289  0.00  0.00    +0.000 A 
ATOM      4  C   UNL     1       3.826   6.336  18.572  0.00  0.00    +0.000 A 
ATOM      5  C   UNL     1       3.494   5.260  19.408  0.00  0.00    +0.000 A 
ATOM      6  C   UNL     1       3.573   3.918  18.958  0.00  0.00    +0.000 A 
ATOM      7  C   UNL     1       3.999   3.649  17.648  0.00  0.00    +0.000 A 
ATOM      8  C   UNL     1       4.356   4.727  16.849  0.00  0.00    +0.000 A 
ATOM      9  C   UNL     1       5.385   4.705  15.784  0.00  0.00    +0.000 C 
ATOM     10  O   UNL     1       5.714   3.703  15.174  0.00  0.00    +0.000 OA
ENDROOT
BRANCH   1  15
ATOM     11  C   UNL     1       8.154   7.555  18.352  0.00  0.00    +0.000 A 
ATOM     12  C   UNL     1       8.184   6.495  19.270  0.00  0.00    +0.000 A 
ATOM     13  C   UNL     1       7.904   5.195  18.860  0.00  0.00    +0.000 A 
ATOM     14  C   UNL     1       7.491   4.956  17.558  0.00  0.00    +0.000 A 
ATOM     15  C   UNL     1       7.204   6.040  16.712  0.00  0.00    +0.000 A 
ATOM     16  C   UNL     1       7.691   7.309  17.052  0.00  0.00    +0.000 A 
BRANCH  11  17
ATOM     17  C   UNL     1       8.596   8.931  18.793  0.00  0.00    +0.000 C 
BRANCH  17  18
ATOM     18  C   UNL     1       8.263  10.103  17.863  0.00  0.00    +0.000 C 
BRANCH  18  24
ATOM     19  C   UNL     1       7.638  13.120  17.288  0.00  0.00    +0.000 C 
ATOM     20  N   UNL     1       8.883  12.576  17.748  0.00  0.00    +0.000 N 
ATOM     21  C   UNL     1       9.997  13.288  18.059  0.00  0.00    +0.000 A 
ATOM     22  N   UNL     1      10.942  12.478  18.478  0.00  0.00    +0.000 NA
ATOM     23  N   UNL     1      10.430  11.206  18.449  0.00  0.00    +0.000 NA
ATOM     24  C   UNL     1       9.192  11.260  18.003  0.00  0.00    +0.000 A 
ENDBRANCH  18  24
ENDBRANCH  17  18
ENDBRANCH  11  17
ENDBRANCH   1  15
BRANCH   6  25
ATOM     25  C   UNL     1       3.285   2.775  19.910  0.00  0.00    +0.000 C 
BRANCH  25  26
ATOM     26  C   UNL     1       1.790   2.397  20.066  0.00  0.00    +0.000 C 
BRANCH  26  27
ATOM     27  C   UNL     1       1.117   2.367  18.655  0.00  0.00    +0.000 C 
ATOM     28  F   UNL     1       0.889   3.608  18.168  0.00  0.00    +0.000 F 
ATOM     29  F   UNL     1       1.895   1.720  17.757  0.00  0.00    +0.000 F 
ATOM     30  F   UNL     1      -0.081   1.736  18.685  0.00  0.00    +0.000 F 
ENDBRANCH  26  27
BRANCH  26  31
ATOM     31  N   UNL     1       1.100   3.263  21.071  0.00  0.00    +0.000 NA
ATOM     32  H   UNL     1       0.883   2.709  21.900  0.00  0.00    +0.000 HD
ATOM     33  H   UNL     1       0.211   3.588  20.691  0.00  0.00    +0.000 HD
ENDBRANCH  26  31
ENDBRANCH  25  26
ENDBRANCH   6  25
TORSDOF 8
ENDMDL
MODEL 6
REMARK VINA RESULT:      -8.2      1.319      1.646
REMARK  Name = 
REMARK  9 active torsions:
REMARK  status: ('A' for Active; 'I' for Inactive)
REMARK    1  A    between atoms: C_1  and  N_2
REMARK    2  A    between atoms: C_6  and  C_7
REMARK    3  A    between atoms: C_7  and  C_8
REMARK    4  A    between atoms: C_8  and  C_9
REMARK    5  A    between atoms: C_13  and  N_14
REMARK    6  A    between atoms: C_19  and  C_20
REMARK    7  A    between atoms: C_20  and  C_21
REMARK    8  A    between atoms: C_21  and  N_22
REMARK    9  A    between atoms: C_21  and  C_23
REMARK                            x       y       z     vdW  Elec       q    Type
REMARK                         _______ _______ _______ _____ _____    ______ ____
ROOT
ATOM      1  N   UNL     1       6.072   5.990  15.517  0.00  0.00    +0.000 N 
ATOM      2  C   UNL     1       5.005   6.908  16.003  0.00  0.00    +0.000 C 
ATOM      3  C   UNL     1       4.231   6.005  16.911  0.00  0.00    +0.000 A 
ATOM      4  C   UNL     1       3.752   6.237  18.186  0.00  0.00    +0.000 A 
ATOM      5  C   UNL     1       3.392   5.127  18.964  0.00  0.00    +0.000 A 
ATOM      6  C   UNL     1       3.492   3.805  18.462  0.00  0.00    +0.000 A 
ATOM      7  C   UNL     1       3.970   3.592  17.159  0.00  0.00    +0.000 A 
ATOM      8  C   UNL     1       4.355   4.702  16.421  0.00  0.00    +0.000 A 
ATOM      9  C   UNL     1       5.424   4.726  15.396  0.00  0.00    +0.000 C 
ATOM     10  O   UNL     1       5.780   3.751  14.759  0.00  0.00    +0.000 OA
ENDROOT
BRANCH   1  15
ATOM     11  C   UNL     1       8.052   7.445  18.225  0.00  0.00    +0.000 A 
ATOM     12  C   UNL     1       8.074   6.325  19.069  0.00  0.00    +0.000 A 
ATOM     13  C   UNL     1       7.842   5.050  18.562  0.00  0.00    +0.000 A 
ATOM     14  C   UNL     1       7.484   4.892  17.231  0.00  0.00    +0.000 A 
ATOM     15  C   UNL     1       7.201   6.025  16.450  0.00  0.00    +0.000 A 
ATOM     16  C   UNL     1       7.644   7.278  16.894  0.00  0.00    +0.000 A 
BRANCH  11  17
ATOM     17  C   UNL     1       8.442   8.796  18.775  0.00  0.00    +0.000 C 
BRANCH  17  18
ATOM     18  C   UNL     1       8.817   9.881  17.759  0.00  0.00    +0.000 C 
BRANCH  18  24
ATOM     19  C   UNL     1       7.723  12.764  17.192  0.00  0.00    +0.000 C 
ATOM     20  N   UNL     1       8.759  12.408  18.118  0.00  0.00    +0.000 N 
ATOM     21  C   UNL     1       9.414  13.262  18.947  0.00  0.00    +0.000 A 
ATOM     22  N   UNL     1      10.275  12.597  19.683  0.00  0.00    +0.000 NA
ATOM     23  N   UNL     1      10.173  11.274  19.333  0.00  0.00    +0.000 NA
ATOM     24  C   UNL     1       9.266  11.157  18.386  0.00  0.00    +0.000 A 
ENDBRANCH  18  24
ENDBRANCH  17  18
ENDBRANCH  11  17
ENDBRANCH   1  15
BRANCH   6  25
ATOM     25  C   UNL     1       3.171   2.623  19.354  0.00  0.00    +0.000 C 
BRANCH  25  26
ATOM     26  C   UNL     1       1.749   2.620  19.971  0.00  0.00    +0.000 C 
BRANCH  26  27
ATOM     27  C   UNL     1       1.861   2.796  21.520  0.00  0.00    +0.000 C 
ATOM     28  F   UNL     1       0.767   2.333  22.170  0.00  0.00    +0.000 F 
ATOM     29  F   UNL     1       2.931   2.130  22.012  0.00  0.00    +0.000 F 
ATOM     30  F   UNL     1       1.995   4.098  21.869  0.00  0.00    +0.000 F 
ENDBRANCH  26  27
BRANCH  26  31
ATOM     31  N   UNL     1       0.954   1.432  19.530  0.00  0.00    +0.000 NA
ATOM     32  H   UNL     1       0.125   1.750  19.027  0.00  0.00    +0.000 HD
ATOM     33  H   UNL     1       0.625   0.917  20.347  0.00  0.00    +0.000 HD
ENDBRANCH  26  31
ENDBRANCH  25  26
ENDBRANCH   6  25
TORSDOF 8
ENDMDL
MODEL 7
REMARK VINA RESULT:      -8.2      0.748      1.089
REMARK  Name = 
REMARK  9 active torsions:
REMARK  status: ('A' for Active; 'I' for Inactive)
REMARK    1  A    between atoms: C_1  and  N_2
REMARK    2  A    between atoms: C_6  and  C_7
REMARK    3  A    between atoms: C_7  and  C_8
REMARK    4  A    between atoms: C_8  and  C_9
REMARK    5  A    between atoms: C_13  and  N_14
REMARK    6  A    between atoms: C_19  and  C_20
REMARK    7  A    between atoms: C_20  and  C_21
REMARK    8  A    between atoms: C_21  and  N_22
REMARK    9  A    between atoms: C_21  and  C_23
REMARK                            x       y       z     vdW  Elec       q    Type
REMARK                         _______ _______ _______ _____ _____    ______ ____
ROOT
ATOM      1  N   UNL     1       6.060   5.595  15.672  0.00  0.00    +0.000 N 
ATOM      2  C   UNL     1       4.907   6.489  15.970  0.00  0.00    +0.000 C 
ATOM      3  C   UNL     1       4.252   5.757  17.099  0.00  0.00    +0.000 A 
ATOM      4  C   UNL     1       3.772   6.241  18.302  0.00  0.00    +0.000 A 
ATOM      5  C   UNL     1       3.548   5.320  19.336  0.00  0.00    +0.000 A 
ATOM      6  C   UNL     1       3.786   3.934  19.161  0.00  0.00    +0.000 A 
ATOM      7  C   UNL     1       4.263   3.462  17.928  0.00  0.00    +0.000 A 
ATOM      8  C   UNL     1       4.510   4.394  16.930  0.00  0.00    +0.000 A 
ATOM      9  C   UNL     1       5.554   4.280  15.885  0.00  0.00    +0.000 C 
ATOM     10  O   UNL     1       6.004   3.221  15.484  0.00  0.00    +0.000 OA
ENDROOT
BRANCH   1  15
ATOM     11  C   UNL     1       7.935   7.875  17.830  0.00  0.00    +0.000 A 
ATOM     12  C   UNL     1       8.071   7.023  18.937  0.00  0.00    +0.000 A 
ATOM     13  C   UNL     1       7.950   5.645  18.789  0.00  0.00    +0.000 A 
ATOM     14  C   UNL     1       7.590   5.112  17.560  0.00  0.00    +0.000 A 
ATOM     15  C   UNL     1       7.194   5.970  16.521  0.00  0.00    +0.000 A 
ATOM     16  C   UNL     1       7.526   7.329  16.605  0.00  0.00    +0.000 A 
BRANCH  11  17
ATOM     17  C   UNL     1       8.207   9.352  17.993  0.00  0.00    +0.000 C 
BRANCH  17  18
ATOM     18  C   UNL     1       9.148   9.766  19.131  0.00  0.00    +0.000 C 
BRANCH  18  24
ATOM     19  C   UNL     1       9.828  12.037  21.182  0.00  0.00    +0.000 C 
ATOM     20  N   UNL     1      10.176  12.008  19.790  0.00  0.00    +0.000 N 
ATOM     21  C   UNL     1      10.904  12.945  19.130  0.00  0.00    +0.000 A 
ATOM     22  N   UNL     1      11.062  12.588  17.877  0.00  0.00    +0.000 NA
ATOM     23  N   UNL     1      10.428  11.382  17.715  0.00  0.00    +0.000 NA
ATOM     24  C   UNL     1       9.887  11.032  18.864  0.00  0.00    +0.000 A 
ENDBRANCH  18  24
ENDBRANCH  17  18
ENDBRANCH  11  17
ENDBRANCH   1  15
BRANCH   6  25
ATOM     25  C   UNL     1       3.612   2.976  20.322  0.00  0.00    +0.000 C 
BRANCH  25  26
ATOM     26  C   UNL     1       2.579   3.408  21.394  0.00  0.00    +0.000 C 
BRANCH  26  27
ATOM     27  C   UNL     1       1.172   2.842  21.010  0.00  0.00    +0.000 C 
ATOM     28  F   UNL     1       0.513   2.337  22.078  0.00  0.00    +0.000 F 
ATOM     29  F   UNL     1       0.389   3.805  20.473  0.00  0.00    +0.000 F 
ATOM     30  F   UNL     1       1.265   1.840  20.103  0.00  0.00    +0.000 F 
ENDBRANCH  26  27
BRANCH  26  31
ATOM     31  N   UNL     1       2.615   4.882  21.639  0.00  0.00    +0.000 NA
ATOM     32  H   UNL     1       2.165   5.086  22.532  0.00  0.00    +0.000 HD
ATOM     33  H   UNL     1       2.077   5.364  20.919  0.00  0.00    +0.000 HD
ENDBRANCH  26  31
ENDBRANCH  25  26
ENDBRANCH   6  25
TORSDOF 8
ENDMDL
MODEL 8
REMARK VINA RESULT:      -8.1      0.918      1.546
REMARK  Name = 
REMARK  9 active torsions:
REMARK  status: ('A' for Active; 'I' for Inactive)
REMARK    1  A    between atoms: C_1  and  N_2
REMARK    2  A    between atoms: C_6  and  C_7
REMARK    3  A    between atoms: C_7  and  C_8
REMARK    4  A    between atoms: C_8  and  C_9
REMARK    5  A    between atoms: C_13  and  N_14
REMARK    6  A    between atoms: C_19  and  C_20
REMARK    7  A    between atoms: C_20  and  C_21
REMARK    8  A    between atoms: C_21  and  N_22
REMARK    9  A    between atoms: C_21  and  C_23
REMARK                            x       y       z     vdW  Elec       q    Type
REMARK                         _______ _______ _______ _____ _____    ______ ____
ROOT
ATOM      1  N   UNL     1       6.002   5.764  15.735  0.00  0.00    +0.000 N 
ATOM      2  C   UNL     1       4.864   6.632  16.145  0.00  0.00    +0.000 C 
ATOM      3  C   UNL     1       4.233   5.802  17.219  0.00  0.00    +0.000 A 
ATOM      4  C   UNL     1       3.788   6.175  18.473  0.00  0.00    +0.000 A 
ATOM      5  C   UNL     1       3.584   5.164  19.423  0.00  0.00    +0.000 A 
ATOM      6  C   UNL     1       3.805   3.798  19.114  0.00  0.00    +0.000 A 
ATOM      7  C   UNL     1       4.247   3.441  17.830  0.00  0.00    +0.000 A 
ATOM      8  C   UNL     1       4.476   4.460  16.917  0.00  0.00    +0.000 A 
ATOM      9  C   UNL     1       5.491   4.437  15.838  0.00  0.00    +0.000 C 
ATOM     10  O   UNL     1       5.922   3.418  15.329  0.00  0.00    +0.000 OA
ENDROOT
BRANCH   1  15
ATOM     11  C   UNL     1       7.995   7.862  17.969  0.00  0.00    +0.000 A 
ATOM     12  C   UNL     1       8.109   6.955  19.034  0.00  0.00    +0.000 A 
ATOM     13  C   UNL     1       7.929   5.591  18.825  0.00  0.00    +0.000 A 
ATOM     14  C   UNL     1       7.532   5.131  17.578  0.00  0.00    +0.000 A 
ATOM     15  C   UNL     1       7.161   6.052  16.585  0.00  0.00    +0.000 A 
ATOM     16  C   UNL     1       7.550   7.391  16.726  0.00  0.00    +0.000 A 
BRANCH  11  17
ATOM     17  C   UNL     1       8.331   9.317  18.196  0.00  0.00    +0.000 C 
BRANCH  17  18
ATOM     18  C   UNL     1       9.410   9.630  19.240  0.00  0.00    +0.000 C 
BRANCH  18  24
ATOM     19  C   UNL     1      10.914  11.876  17.652  0.00  0.00    +0.000 C 
ATOM     20  N   UNL     1      10.166  12.039  18.865  0.00  0.00    +0.000 N 
ATOM     21  C   UNL     1       9.943  13.212  19.512  0.00  0.00    +0.000 A 
ATOM     22  N   UNL     1       9.194  13.004  20.570  0.00  0.00    +0.000 NA
ATOM     23  N   UNL     1       8.912  11.662  20.610  0.00  0.00    +0.000 NA
ATOM     24  C   UNL     1       9.502  11.076  19.589  0.00  0.00    +0.000 A 
ENDBRANCH  18  24
ENDBRANCH  17  18
ENDBRANCH  11  17
ENDBRANCH   1  15
BRANCH   6  25
ATOM     25  C   UNL     1       3.654   2.738  20.185  0.00  0.00    +0.000 C 
BRANCH  25  26
ATOM     26  C   UNL     1       2.216   2.542  20.731  0.00  0.00    +0.000 C 
BRANCH  26  27
ATOM     27  C   UNL     1       1.196   2.687  19.555  0.00  0.00    +0.000 C 
ATOM     28  F   UNL     1      -0.051   2.293  19.905  0.00  0.00    +0.000 F 
ATOM     29  F   UNL     1       1.109   3.972  19.140  0.00  0.00    +0.000 F 
ATOM     30  F   UNL     1       1.553   1.937  18.485  0.00  0.00    +0.000 F 
ENDBRANCH  26  27
BRANCH  26  31
ATOM     31  N   UNL     1       1.944   3.421  21.909  0.00  0.00    +0.000 NA
ATOM     32  H   UNL     1       2.415   3.040  22.730  0.00  0.00    +0.000 HD
ATOM     33  H   UNL     1       0.945   3.421  22.114  0.00  0.00    +0.000 HD
ENDBRANCH  26  31
ENDBRANCH  25  26
ENDBRANCH   6  25
TORSDOF 8
ENDMDL
MODEL 9
REMARK VINA RESULT:      -8.1      1.279      1.648
REMARK  Name = 
REMARK  9 active torsions:
REMARK  status: ('A' for Active; 'I' for Inactive)
REMARK    1  A    between atoms: C_1  and  N_2
REMARK    2  A    between atoms: C_6  and  C_7
REMARK    3  A    between atoms: C_7  and  C_8
REMARK    4  A    between atoms: C_8  and  C_9
REMARK    5  A    between atoms: C_13  and  N_14
REMARK    6  A    between atoms: C_19  and  C_20
REMARK    7  A    between atoms: C_20  and  C_21
REMARK    8  A    between atoms: C_21  and  N_22
REMARK    9  A    between atoms: C_21  and  C_23
REMARK                            x       y       z     vdW  Elec       q    Type
REMARK                         _______ _______ _______ _____ _____    ______ ____
ROOT
ATOM      1  N   UNL     1       6.205   5.747  15.499  0.00  0.00    +0.000 N 
ATOM      2  C   UNL     1       5.116   6.688  15.880  0.00  0.00    +0.000 C 
ATOM      3  C   UNL     1       4.202   5.786  16.647  0.00  0.00    +0.000 A 
ATOM      4  C   UNL     1       3.571   5.994  17.860  0.00  0.00    +0.000 A 
ATOM      5  C   UNL     1       3.076   4.873  18.542  0.00  0.00    +0.000 A 
ATOM      6  C   UNL     1       3.196   3.566  18.008  0.00  0.00    +0.000 A 
ATOM      7  C   UNL     1       3.830   3.378  16.770  0.00  0.00    +0.000 A 
ATOM      8  C   UNL     1       4.343   4.496  16.128  0.00  0.00    +0.000 A 
ATOM      9  C   UNL     1       5.535   4.513  15.250  0.00  0.00    +0.000 C 
ATOM     10  O   UNL     1       5.937   3.546  14.626  0.00  0.00    +0.000 OA
ENDROOT
BRANCH   1  15
ATOM     11  C   UNL     1       8.011   7.133  18.359  0.00  0.00    +0.000 A 
ATOM     12  C   UNL     1       7.781   6.082  19.259  0.00  0.00    +0.000 A 
ATOM     13  C   UNL     1       7.448   4.813  18.797  0.00  0.00    +0.000 A 
ATOM     14  C   UNL     1       7.237   4.606  17.441  0.00  0.00    +0.000 A 
ATOM     15  C   UNL     1       7.205   5.707  16.569  0.00  0.00    +0.000 A 
ATOM     16  C   UNL     1       7.752   6.924  16.997  0.00  0.00    +0.000 A 
BRANCH  11  17
ATOM     17  C   UNL     1       8.507   8.461  18.881  0.00  0.00    +0.000 C 
BRANCH  17  18
ATOM     18  C   UNL     1       8.420   9.661  17.931  0.00  0.00    +0.000 C 
BRANCH  18  24
ATOM     19  C   UNL     1       7.839  12.659  17.223  0.00  0.00    +0.000 C 
ATOM     20  N   UNL     1       8.871  12.169  18.090  0.00  0.00    +0.000 N 
ATOM     21  C   UNL     1       9.750  12.929  18.793  0.00  0.00    +0.000 A 
ATOM     22  N   UNL     1      10.535  12.158  19.509  0.00  0.00    +0.000 NA
ATOM     23  N   UNL     1      10.154  10.861  19.276  0.00  0.00    +0.000 NA
ATOM     24  C   UNL     1       9.157  10.862  18.416  0.00  0.00    +0.000 A 
ENDBRANCH  18  24
ENDBRANCH  17  18
ENDBRANCH  11  17
ENDBRANCH   1  15
BRANCH   6  25
ATOM     25  C   UNL     1       2.723   2.368  18.807  0.00  0.00    +0.000 C 
BRANCH  25  26
ATOM     26  C   UNL     1       3.231   2.300  20.269  0.00  0.00    +0.000 C 
BRANCH  26  27
ATOM     27  C   UNL     1       2.156   2.925  21.217  0.00  0.00    +0.000 C 
ATOM     28  F   UNL     1       1.805   2.086  22.220  0.00  0.00    +0.000 F 
ATOM     29  F   UNL     1       2.611   4.064  21.787  0.00  0.00    +0.000 F 
ATOM     30  F   UNL     1       1.017   3.229  20.551  0.00  0.00    +0.000 F 
ENDBRANCH  26  27
BRANCH  26  31
ATOM     31  N   UNL     1       4.603   2.879  20.410  0.00  0.00    +0.000 NA
ATOM     32  H   UNL     1       4.680   3.345  21.315  0.00  0.00    +0.000 HD
ATOM     33  H   UNL     1       4.749   3.593  19.696  0.00  0.00    +0.000 HD
ENDBRANCH  26  31
ENDBRANCH  25  26
ENDBRANCH   6  25
TORSDOF 8
ENDMDL
