MODEL 1
REMARK VINA RESULT:      -8.8      0.000      0.000
REMARK  Name = 
REMARK  5 active torsions:
REMARK  status: ('A' for Active; 'I' for Inactive)
REMARK    1  A    between atoms: C_1  and  C_2
REMARK    2  A    between atoms: C_4  and  C_5
REMARK    3  A    between atoms: N_12  and  C_13
REMARK    4  A    between atoms: N_16  and  C_17
REMARK    5  A    between atoms: N_24  and  C_25
REMARK                            x       y       z     vdW  Elec       q    Type
REMARK                         _______ _______ _______ _____ _____    ______ ____
ROOT
ATOM      1  C   UNL     1       1.603   8.165  20.019  0.00  0.00    +0.000 A 
ATOM      2  C   UNL     1       1.372   9.367  19.327  0.00  0.00    +0.000 A 
ATOM      3  N   UNL     1       0.789  10.502  19.799  0.00  0.00    +0.000 NA
ATOM      4  C   UNL     1       0.405  10.387  21.083  0.00  0.00    +0.000 A 
ATOM      5  C   UNL     1       0.566   9.277  21.898  0.00  0.00    +0.000 A 
ATOM      6  C   UNL     1       0.002   9.657  23.128  0.00  0.00    +0.000 A 
ATOM      7  N   UNL     1      -0.486  10.899  23.111  0.00  0.00    +0.000 NA
ATOM      8  N   UNL     1      -0.237  11.332  21.849  0.00  0.00    +0.000 N 
ATOM      9  C   UNL     1       1.187   8.139  21.361  0.00  0.00    +0.000 A 
ENDROOT
BRANCH   1  13
ATOM     10  C   UNL     1       4.843   6.432  16.484  0.00  0.00    +0.000 C 
ATOM     11  C   UNL     1       3.883   6.153  17.593  0.00  0.00    +0.000 A 
ATOM     12  C   UNL     1       3.185   7.184  18.285  0.00  0.00    +0.000 A 
ATOM     13  C   UNL     1       2.234   6.993  19.365  0.00  0.00    +0.000 A 
ATOM     14  C   UNL     1       1.918   5.685  19.818  0.00  0.00    +0.000 A 
ATOM     15  C   UNL     1       2.632   4.699  19.153  0.00  0.00    +0.000 A 
ATOM     16  C   UNL     1       2.557   3.361  19.424  0.00  0.00    +0.000 A 
ATOM     17  N   UNL     1       3.438   2.790  18.550  0.00  0.00    +0.000 N 
ATOM     18  C   UNL     1       3.762   1.386  18.460  0.00  0.00    +0.000 C 
ATOM     19  N   UNL     1       4.052   3.662  17.726  0.00  0.00    +0.000 NA
ATOM     20  C   UNL     1       3.581   4.870  18.086  0.00  0.00    +0.000 A 
ENDBRANCH   1  13
BRANCH   8  21
ATOM     21  C   UNL     1      -0.667  12.657  21.407  0.00  0.00    +0.000 C 
ATOM     22  C   UNL     1      -0.511  13.745  22.472  0.00  0.00    +0.000 C 
ATOM     23  C   UNL     1      -1.558  13.633  23.578  0.00  0.00    +0.000 C 
ATOM     24  N   UNL     1      -2.941  13.534  23.090  0.00  0.00    +0.000 NA
ATOM     25  C   UNL     1      -3.811  13.156  24.215  0.00  0.00    +0.000 C 
ATOM     26  C   UNL     1      -3.131  12.560  22.003  0.00  0.00    +0.000 C 
ATOM     27  C   UNL     1      -2.102  12.678  20.880  0.00  0.00    +0.000 C 
ENDBRANCH   8  21
TORSDOF 2
ENDMDL
MODEL 2
REMARK VINA RESULT:      -8.7      0.725      1.898
REMARK  Name = 
REMARK  5 active torsions:
REMARK  status: ('A' for Active; 'I' for Inactive)
REMARK    1  A    between atoms: C_1  and  C_2
REMARK    2  A    between atoms: C_4  and  C_5
REMARK    3  A    between atoms: N_12  and  C_13
REMARK    4  A    between atoms: N_16  and  C_17
REMARK    5  A    between atoms: N_24  and  C_25
REMARK                            x       y       z     vdW  Elec       q    Type
REMARK                         _______ _______ _______ _____ _____    ______ ____
ROOT
ATOM      1  C   UNL     1       1.595   8.120  20.258  0.00  0.00    +0.000 A 
ATOM      2  C   UNL     1       1.338   9.281  19.507  0.00  0.00    +0.000 A 
ATOM      3  N   UNL     1       0.708  10.415  19.917  0.00  0.00    +0.000 NA
ATOM      4  C   UNL     1       0.303  10.345  21.198  0.00  0.00    +0.000 A 
ATOM      5  C   UNL     1       0.485   9.279  22.066  0.00  0.00    +0.000 A 
ATOM      6  C   UNL     1      -0.114   9.694  23.267  0.00  0.00    +0.000 A 
ATOM      7  N   UNL     1      -0.642  10.916  23.185  0.00  0.00    +0.000 NA
ATOM      8  N   UNL     1      -0.384  11.301  21.909  0.00  0.00    +0.000 N 
ATOM      9  C   UNL     1       1.154   8.139  21.592  0.00  0.00    +0.000 A 
ENDROOT
BRANCH   1  13
ATOM     10  C   UNL     1       2.319   3.073  20.349  0.00  0.00    +0.000 C 
ATOM     11  C   UNL     1       2.605   4.401  19.728  0.00  0.00    +0.000 A 
ATOM     12  C   UNL     1       2.042   5.615  20.213  0.00  0.00    +0.000 A 
ATOM     13  C   UNL     1       2.277   6.941  19.669  0.00  0.00    +0.000 A 
ATOM     14  C   UNL     1       3.142   7.117  18.558  0.00  0.00    +0.000 A 
ATOM     15  C   UNL     1       3.654   5.918  18.081  0.00  0.00    +0.000 A 
ATOM     16  C   UNL     1       4.472   5.795  16.993  0.00  0.00    +0.000 A 
ATOM     17  N   UNL     1       4.698   4.451  16.892  0.00  0.00    +0.000 N 
ATOM     18  C   UNL     1       5.475   3.791  15.869  0.00  0.00    +0.000 C 
ATOM     19  N   UNL     1       4.103   3.711  17.848  0.00  0.00    +0.000 NA
ATOM     20  C   UNL     1       3.428   4.597  18.603  0.00  0.00    +0.000 A 
ENDBRANCH   1  13
BRANCH   8  21
ATOM     21  C   UNL     1      -0.849  12.590  21.400  0.00  0.00    +0.000 C 
ATOM     22  C   UNL     1      -0.612  13.756  22.361  0.00  0.00    +0.000 C 
ATOM     23  C   UNL     1      -1.570  13.736  23.551  0.00  0.00    +0.000 C 
ATOM     24  N   UNL     1      -2.986  13.605  23.181  0.00  0.00    +0.000 NA
ATOM     25  C   UNL     1      -3.766  13.320  24.396  0.00  0.00    +0.000 C 
ATOM     26  C   UNL     1      -3.259  12.551  22.191  0.00  0.00    +0.000 C 
ATOM     27  C   UNL     1      -2.321  12.576  20.986  0.00  0.00    +0.000 C 
ENDBRANCH   8  21
TORSDOF 2
ENDMDL
MODEL 3
REMARK VINA RESULT:      -8.6      1.205      2.262
REMARK  Name = 
REMARK  5 active torsions:
REMARK  status: ('A' for Active; 'I' for Inactive)
REMARK    1  A    between atoms: C_1  and  C_2
REMARK    2  A    between atoms: C_4  and  C_5
REMARK    3  A    between atoms: N_12  and  C_13
REMARK    4  A    between atoms: N_16  and  C_17
REMARK    5  A    between atoms: N_24  and  C_25
REMARK                            x       y       z     vdW  Elec       q    Type
REMARK                         _______ _______ _______ _____ _____    ______ ____
ROOT
ATOM      1  C   UNL     1       2.092   8.080  19.138  0.00  0.00    +0.000 A 
ATOM      2  C   UNL     1       1.810   9.305  18.508  0.00  0.00    +0.000 A 
ATOM      3  N   UNL     1       1.193  10.394  19.042  0.00  0.00    +0.000 NA
ATOM      4  C   UNL     1       0.829  10.202  20.323  0.00  0.00    +0.000 A 
ATOM      5  C   UNL     1       1.039   9.060  21.080  0.00  0.00    +0.000 A 
ATOM      6  C   UNL     1       0.477   9.358  22.334  0.00  0.00    +0.000 A 
ATOM      7  N   UNL     1      -0.054  10.581  22.383  0.00  0.00    +0.000 NA
ATOM      8  N   UNL     1       0.163  11.085  21.142  0.00  0.00    +0.000 N 
ATOM      9  C   UNL     1       1.693   7.972  20.481  0.00  0.00    +0.000 A 
ENDROOT
BRANCH   1  13
ATOM     10  C   UNL     1       2.111   3.116  17.971  0.00  0.00    +0.000 C 
ATOM     11  C   UNL     1       2.727   4.469  17.836  0.00  0.00    +0.000 A 
ATOM     12  C   UNL     1       2.210   5.620  18.496  0.00  0.00    +0.000 A 
ATOM     13  C   UNL     1       2.756   6.964  18.420  0.00  0.00    +0.000 A 
ATOM     14  C   UNL     1       3.913   7.224  17.641  0.00  0.00    +0.000 A 
ATOM     15  C   UNL     1       4.381   6.097  16.981  0.00  0.00    +0.000 A 
ATOM     16  C   UNL     1       5.450   6.077  16.129  0.00  0.00    +0.000 A 
ATOM     17  N   UNL     1       5.521   4.778  15.709  0.00  0.00    +0.000 N 
ATOM     18  C   UNL     1       6.464   4.241  14.757  0.00  0.00    +0.000 C 
ATOM     19  N   UNL     1       4.592   3.964  16.249  0.00  0.00    +0.000 NA
ATOM     20  C   UNL     1       3.851   4.761  17.041  0.00  0.00    +0.000 A 
ENDBRANCH   1  13
BRANCH   8  21
ATOM     21  C   UNL     1      -0.318  12.414  20.771  0.00  0.00    +0.000 C 
ATOM     22  C   UNL     1      -0.152  13.461  21.874  0.00  0.00    +0.000 C 
ATOM     23  C   UNL     1      -1.154  13.275  23.012  0.00  0.00    +0.000 C 
ATOM     24  N   UNL     1      -2.551  13.157  22.570  0.00  0.00    +0.000 NA
ATOM     25  C   UNL     1      -3.368  12.709  23.709  0.00  0.00    +0.000 C 
ATOM     26  C   UNL     1      -2.754  12.223  21.451  0.00  0.00    +0.000 C 
ATOM     27  C   UNL     1      -1.772  12.414  20.298  0.00  0.00    +0.000 C 
ENDBRANCH   8  21
TORSDOF 2
ENDMDL
MODEL 4
REMARK VINA RESULT:      -8.5      1.207      2.145
REMARK  Name = 
REMARK  5 active torsions:
REMARK  status: ('A' for Active; 'I' for Inactive)
REMARK    1  A    between atoms: C_1  and  C_2
REMARK    2  A    between atoms: C_4  and  C_5
REMARK    3  A    between atoms: N_12  and  C_13
REMARK    4  A    between atoms: N_16  and  C_17
REMARK    5  A    between atoms: N_24  and  C_25
REMARK                            x       y       z     vdW  Elec       q    Type
REMARK                         _______ _______ _______ _____ _____    ______ ____
ROOT
ATOM      1  C   UNL     1       1.298   8.469  20.450  0.00  0.00    +0.000 A 
ATOM      2  C   UNL     1       1.197   9.637  19.674  0.00  0.00    +0.000 A 
ATOM      3  N   UNL     1       0.588  10.807  20.004  0.00  0.00    +0.000 NA
ATOM      4  C   UNL     1       0.029  10.769  21.228  0.00  0.00    +0.000 A 
ATOM      5  C   UNL     1       0.046   9.701  22.111  0.00  0.00    +0.000 A 
ATOM      6  C   UNL     1      -0.669  10.157  23.232  0.00  0.00    +0.000 A 
ATOM      7  N   UNL     1      -1.115  11.406  23.086  0.00  0.00    +0.000 NA
ATOM      8  N   UNL     1      -0.685  11.767  21.850  0.00  0.00    +0.000 N 
ATOM      9  C   UNL     1       0.702   8.523  21.722  0.00  0.00    +0.000 A 
ENDROOT
BRANCH   1  13
ATOM     10  C   UNL     1       2.130   3.468  20.995  0.00  0.00    +0.000 C 
ATOM     11  C   UNL     1       2.362   4.733  20.237  0.00  0.00    +0.000 A 
ATOM     12  C   UNL     1       1.794   5.980  20.627  0.00  0.00    +0.000 A 
ATOM     13  C   UNL     1       1.978   7.250  19.948  0.00  0.00    +0.000 A 
ATOM     14  C   UNL     1       2.791   7.331  18.788  0.00  0.00    +0.000 A 
ATOM     15  C   UNL     1       3.308   6.101  18.407  0.00  0.00    +0.000 A 
ATOM     16  C   UNL     1       4.082   5.886  17.300  0.00  0.00    +0.000 A 
ATOM     17  N   UNL     1       4.330   4.542  17.319  0.00  0.00    +0.000 N 
ATOM     18  C   UNL     1       5.077   3.800  16.331  0.00  0.00    +0.000 C 
ATOM     19  N   UNL     1       3.792   3.889  18.368  0.00  0.00    +0.000 NA
ATOM     20  C   UNL     1       3.131   4.834  19.063  0.00  0.00    +0.000 A 
ENDBRANCH   1  13
BRANCH   8  21
ATOM     21  C   UNL     1      -1.012  13.075  21.288  0.00  0.00    +0.000 C 
ATOM     22  C   UNL     1      -1.737  14.004  22.265  0.00  0.00    +0.000 C 
ATOM     23  C   UNL     1      -3.191  13.593  22.490  0.00  0.00    +0.000 C 
ATOM     24  N   UNL     1      -3.957  13.389  21.252  0.00  0.00    +0.000 NA
ATOM     25  C   UNL     1      -5.233  12.738  21.590  0.00  0.00    +0.000 C 
ATOM     26  C   UNL     1      -3.267  12.571  20.241  0.00  0.00    +0.000 C 
ATOM     27  C   UNL     1      -1.819  12.987  19.993  0.00  0.00    +0.000 C 
ENDBRANCH   8  21
TORSDOF 2
ENDMDL
MODEL 5
REMARK VINA RESULT:      -8.5      1.693      3.063
REMARK  Name = 
REMARK  5 active torsions:
REMARK  status: ('A' for Active; 'I' for Inactive)
REMARK    1  A    between atoms: C_1  and  C_2
REMARK    2  A    between atoms: C_4  and  C_5
REMARK    3  A    between atoms: N_12  and  C_13
REMARK    4  A    between atoms: N_16  and  C_17
REMARK    5  A    between atoms: N_24  and  C_25
REMARK                            x       y       z     vdW  Elec       q    Type
REMARK                         _______ _______ _______ _____ _____    ______ ____
ROOT
ATOM      1  C   UNL     1       2.049   7.916  18.876  0.00  0.00    +0.000 A 
ATOM      2  C   UNL     1       1.501   9.002  18.170  0.00  0.00    +0.000 A 
ATOM      3  N   UNL     1       0.752  10.024  18.665  0.00  0.00    +0.000 NA
ATOM      4  C   UNL     1       0.543   9.914  19.990  0.00  0.00    +0.000 A 
ATOM      5  C   UNL     1       1.018   8.912  20.822  0.00  0.00    +0.000 A 
ATOM      6  C   UNL     1       0.526   9.247  22.095  0.00  0.00    +0.000 A 
ATOM      7  N   UNL     1      -0.205  10.362  22.089  0.00  0.00    +0.000 NA
ATOM      8  N   UNL     1      -0.192  10.758  20.790  0.00  0.00    +0.000 N 
ATOM      9  C   UNL     1       1.797   7.890  20.258  0.00  0.00    +0.000 A 
ENDROOT
BRANCH   1  13
ATOM     10  C   UNL     1       2.549   2.960  17.788  0.00  0.00    +0.000 C 
ATOM     11  C   UNL     1       3.045   4.361  17.651  0.00  0.00    +0.000 A 
ATOM     12  C   UNL     1       2.407   5.469  18.276  0.00  0.00    +0.000 A 
ATOM     13  C   UNL     1       2.832   6.855  18.196  0.00  0.00    +0.000 A 
ATOM     14  C   UNL     1       3.986   7.208  17.449  0.00  0.00    +0.000 A 
ATOM     15  C   UNL     1       4.574   6.119  16.822  0.00  0.00    +0.000 A 
ATOM     16  C   UNL     1       5.667   6.183  16.003  0.00  0.00    +0.000 A 
ATOM     17  N   UNL     1       5.867   4.891  15.606  0.00  0.00    +0.000 N 
ATOM     18  C   UNL     1       6.884   4.428  14.691  0.00  0.00    +0.000 C 
ATOM     19  N   UNL     1       4.997   4.004  16.130  0.00  0.00    +0.000 NA
ATOM     20  C   UNL     1       4.163   4.742  16.886  0.00  0.00    +0.000 A 
ENDBRANCH   1  13
BRANCH   8  21
ATOM     21  C   UNL     1      -0.931  11.940  20.353  0.00  0.00    +0.000 C 
ATOM     22  C   UNL     1      -0.190  12.783  19.313  0.00  0.00    +0.000 C 
ATOM     23  C   UNL     1       0.968  13.573  19.919  0.00  0.00    +0.000 C 
ATOM     24  N   UNL     1       0.604  14.358  21.107  0.00  0.00    +0.000 NA
ATOM     25  C   UNL     1       1.837  14.839  21.750  0.00  0.00    +0.000 C 
ATOM     26  C   UNL     1      -0.186  13.617  22.104  0.00  0.00    +0.000 C 
ATOM     27  C   UNL     1      -1.360  12.841  21.511  0.00  0.00    +0.000 C 
ENDBRANCH   8  21
TORSDOF 2
ENDMDL
MODEL 6
REMARK VINA RESULT:      -8.4      1.871      3.048
REMARK  Name = 
REMARK  5 active torsions:
REMARK  status: ('A' for Active; 'I' for Inactive)
REMARK    1  A    between atoms: C_1  and  C_2
REMARK    2  A    between atoms: C_4  and  C_5
REMARK    3  A    between atoms: N_12  and  C_13
REMARK    4  A    between atoms: N_16  and  C_17
REMARK    5  A    between atoms: N_24  and  C_25
REMARK                            x       y       z     vdW  Elec       q    Type
REMARK                         _______ _______ _______ _____ _____    ______ ____
ROOT
ATOM      1  C   UNL     1       2.032   8.148  18.774  0.00  0.00    +0.000 A 
ATOM      2  C   UNL     1       1.811   9.328  18.041  0.00  0.00    +0.000 A 
ATOM      3  N   UNL     1       1.139  10.442  18.439  0.00  0.00    +0.000 NA
ATOM      4  C   UNL     1       0.648  10.329  19.686  0.00  0.00    +0.000 A 
ATOM      5  C   UNL     1       0.784   9.239  20.533  0.00  0.00    +0.000 A 
ATOM      6  C   UNL     1       0.097   9.611  21.701  0.00  0.00    +0.000 A 
ATOM      7  N   UNL     1      -0.441  10.829  21.618  0.00  0.00    +0.000 NA
ATOM      8  N   UNL     1      -0.101  11.255  20.374  0.00  0.00    +0.000 N 
ATOM      9  C   UNL     1       1.500   8.123  20.075  0.00  0.00    +0.000 A 
ENDROOT
BRANCH   1  13
ATOM     10  C   UNL     1       2.283   3.100  18.101  0.00  0.00    +0.000 C 
ATOM     11  C   UNL     1       2.858   4.457  17.863  0.00  0.00    +0.000 A 
ATOM     12  C   UNL     1       2.268   5.645  18.382  0.00  0.00    +0.000 A 
ATOM     13  C   UNL     1       2.770   6.996  18.200  0.00  0.00    +0.000 A 
ATOM     14  C   UNL     1       3.955   7.226  17.454  0.00  0.00    +0.000 A 
ATOM     15  C   UNL     1       4.494   6.059  16.931  0.00  0.00    +0.000 A 
ATOM     16  C   UNL     1       5.605   5.999  16.135  0.00  0.00    +0.000 A 
ATOM     17  N   UNL     1       5.742   4.670  15.848  0.00  0.00    +0.000 N 
ATOM     18  C   UNL     1       6.749   4.081  14.998  0.00  0.00    +0.000 C 
ATOM     19  N   UNL     1       4.816   3.876  16.421  0.00  0.00    +0.000 NA
ATOM     20  C   UNL     1       4.009   4.716  17.096  0.00  0.00    +0.000 A 
ENDBRANCH   1  13
BRANCH   8  21
ATOM     21  C   UNL     1      -0.547  12.553  19.872  0.00  0.00    +0.000 C 
ATOM     22  C   UNL     1      -1.787  13.099  20.583  0.00  0.00    +0.000 C 
ATOM     23  C   UNL     1      -3.063  12.360  20.182  0.00  0.00    +0.000 C 
ATOM     24  N   UNL     1      -3.263  12.251  18.730  0.00  0.00    +0.000 NA
ATOM     25  C   UNL     1      -4.355  11.297  18.476  0.00  0.00    +0.000 C 
ATOM     26  C   UNL     1      -2.073  11.811  17.985  0.00  0.00    +0.000 C 
ATOM     27  C   UNL     1      -0.795  12.558  18.363  0.00  0.00    +0.000 C 
ENDBRANCH   8  21
TORSDOF 2
ENDMDL
MODEL 7
REMARK VINA RESULT:      -8.3      1.017      1.122
REMARK  Name = 
REMARK  5 active torsions:
REMARK  status: ('A' for Active; 'I' for Inactive)
REMARK    1  A    between atoms: C_1  and  C_2
REMARK    2  A    between atoms: C_4  and  C_5
REMARK    3  A    between atoms: N_12  and  C_13
REMARK    4  A    between atoms: N_16  and  C_17
REMARK    5  A    between atoms: N_24  and  C_25
REMARK                            x       y       z     vdW  Elec       q    Type
REMARK                         _______ _______ _______ _____ _____    ______ ____
ROOT
ATOM      1  C   UNL     1       1.926   8.105  19.346  0.00  0.00    +0.000 A 
ATOM      2  C   UNL     1       1.741   9.257  18.560  0.00  0.00    +0.000 A 
ATOM      3  N   UNL     1       1.185  10.440  18.935  0.00  0.00    +0.000 NA
ATOM      4  C   UNL     1       0.779  10.435  20.218  0.00  0.00    +0.000 A 
ATOM      5  C   UNL     1       0.895   9.386  21.117  0.00  0.00    +0.000 A 
ATOM      6  C   UNL     1       0.325   9.874  22.305  0.00  0.00    +0.000 A 
ATOM      7  N   UNL     1      -0.125  11.125  22.186  0.00  0.00    +0.000 NA
ATOM      8  N   UNL     1       0.155  11.454  20.899  0.00  0.00    +0.000 N 
ATOM      9  C   UNL     1       1.489   8.193  20.679  0.00  0.00    +0.000 A 
ENDROOT
BRANCH   1  13
ATOM     10  C   UNL     1       5.220   6.019  16.060  0.00  0.00    +0.000 C 
ATOM     11  C   UNL     1       4.208   5.851  17.145  0.00  0.00    +0.000 A 
ATOM     12  C   UNL     1       3.529   6.951  17.742  0.00  0.00    +0.000 A 
ATOM     13  C   UNL     1       2.531   6.868  18.793  0.00  0.00    +0.000 A 
ATOM     14  C   UNL     1       2.143   5.607  19.315  0.00  0.00    +0.000 A 
ATOM     15  C   UNL     1       2.840   4.552  18.742  0.00  0.00    +0.000 A 
ATOM     16  C   UNL     1       2.698   3.238  19.094  0.00  0.00    +0.000 A 
ATOM     17  N   UNL     1       3.587   2.577  18.294  0.00  0.00    +0.000 N 
ATOM     18  C   UNL     1       3.854   1.158  18.307  0.00  0.00    +0.000 C 
ATOM     19  N   UNL     1       4.267   3.369  17.442  0.00  0.00    +0.000 NA
ATOM     20  C   UNL     1       3.835   4.616  17.706  0.00  0.00    +0.000 A 
ENDBRANCH   1  13
BRANCH   8  21
ATOM     21  C   UNL     1      -0.228  12.753  20.351  0.00  0.00    +0.000 C 
ATOM     22  C   UNL     1      -0.626  13.780  21.413  0.00  0.00    +0.000 C 
ATOM     23  C   UNL     1      -1.996  13.489  22.023  0.00  0.00    +0.000 C 
ATOM     24  N   UNL     1      -3.062  13.279  21.033  0.00  0.00    +0.000 NA
ATOM     25  C   UNL     1      -4.246  12.741  21.723  0.00  0.00    +0.000 C 
ATOM     26  C   UNL     1      -2.701  12.363  19.939  0.00  0.00    +0.000 C 
ATOM     27  C   UNL     1      -1.342  12.659  19.308  0.00  0.00    +0.000 C 
ENDBRANCH   8  21
TORSDOF 2
ENDMDL
MODEL 8
REMARK VINA RESULT:      -8.3      1.406      2.704
REMARK  Name = 
REMARK  5 active torsions:
REMARK  status: ('A' for Active; 'I' for Inactive)
REMARK    1  A    between atoms: C_1  and  C_2
REMARK    2  A    between atoms: C_4  and  C_5
REMARK    3  A    between atoms: N_12  and  C_13
REMARK    4  A    between atoms: N_16  and  C_17
REMARK    5  A    between atoms: N_24  and  C_25
REMARK                            x       y       z     vdW  Elec       q    Type
REMARK                         _______ _______ _______ _____ _____    ______ ____
ROOT
ATOM      1  C   UNL     1       1.114   8.557  20.536  0.00  0.00    +0.000 A 
ATOM      2  C   UNL     1       0.693   8.726  21.867  0.00  0.00    +0.000 A 
ATOM      3  N   UNL     1       0.051   9.796  22.408  0.00  0.00    +0.000 NA
ATOM      4  C   UNL     1      -0.167  10.773  21.509  0.00  0.00    +0.000 A 
ATOM      5  C   UNL     1       0.180  10.755  20.167  0.00  0.00    +0.000 A 
ATOM      6  C   UNL     1      -0.256  11.996  19.672  0.00  0.00    +0.000 A 
ATOM      7  N   UNL     1      -0.829  12.753  20.610  0.00  0.00    +0.000 NA
ATOM      8  N   UNL     1      -0.762  11.993  21.733  0.00  0.00    +0.000 N 
ATOM      9  C   UNL     1       0.829   9.619  19.660  0.00  0.00    +0.000 A 
ENDROOT
BRANCH   1  13
ATOM     10  C   UNL     1       2.103   3.616  21.318  0.00  0.00    +0.000 C 
ATOM     11  C   UNL     1       2.291   4.849  20.498  0.00  0.00    +0.000 A 
ATOM     12  C   UNL     1       1.688   6.095  20.831  0.00  0.00    +0.000 A 
ATOM     13  C   UNL     1       1.829   7.336  20.089  0.00  0.00    +0.000 A 
ATOM     14  C   UNL     1       2.631   7.384  18.919  0.00  0.00    +0.000 A 
ATOM     15  C   UNL     1       3.183   6.153  18.595  0.00  0.00    +0.000 A 
ATOM     16  C   UNL     1       3.956   5.907  17.494  0.00  0.00    +0.000 A 
ATOM     17  N   UNL     1       4.246   4.574  17.577  0.00  0.00    +0.000 N 
ATOM     18  C   UNL     1       5.009   3.807  16.622  0.00  0.00    +0.000 C 
ATOM     19  N   UNL     1       3.735   3.957  18.661  0.00  0.00    +0.000 NA
ATOM     20  C   UNL     1       3.050   4.914  19.314  0.00  0.00    +0.000 A 
ENDBRANCH   1  13
BRANCH   8  21
ATOM     21  C   UNL     1      -1.254  12.494  23.014  0.00  0.00    +0.000 C 
ATOM     22  C   UNL     1      -2.664  12.013  23.366  0.00  0.00    +0.000 C 
ATOM     23  C   UNL     1      -3.741  12.707  22.535  0.00  0.00    +0.000 C 
ATOM     24  N   UNL     1      -3.645  14.174  22.528  0.00  0.00    +0.000 NA
ATOM     25  C   UNL     1      -4.546  14.700  21.490  0.00  0.00    +0.000 C 
ATOM     26  C   UNL     1      -2.289  14.690  22.278  0.00  0.00    +0.000 C 
ATOM     27  C   UNL     1      -1.206  14.018  23.120  0.00  0.00    +0.000 C 
ENDBRANCH   8  21
TORSDOF 2
ENDMDL
MODEL 9
REMARK VINA RESULT:      -8.3      6.673     10.557
REMARK  Name = 
REMARK  5 active torsions:
REMARK  status: ('A' for Active; 'I' for Inactive)
REMARK    1  A    between atoms: C_1  and  C_2
REMARK    2  A    between atoms: C_4  and  C_5
REMARK    3  A    between atoms: N_12  and  C_13
REMARK    4  A    between atoms: N_16  and  C_17
REMARK    5  A    between atoms: N_24  and  C_25
REMARK                            x       y       z     vdW  Elec       q    Type
REMARK                         _______ _______ _______ _____ _____    ______ ____
ROOT
ATOM      1  C   UNL     1       8.606   9.250  18.516  0.00  0.00    +0.000 A 
ATOM      2  C   UNL     1       7.725   9.151  17.425  0.00  0.00    +0.000 A 
ATOM      3  N   UNL     1       7.067   8.045  16.983  0.00  0.00    +0.000 NA
ATOM      4  C   UNL     1       7.346   6.953  17.717  0.00  0.00    +0.000 A 
ATOM      5  C   UNL     1       8.184   6.889  18.819  0.00  0.00    +0.000 A 
ATOM      6  C   UNL     1       8.141   5.543  19.219  0.00  0.00    +0.000 A 
ATOM      7  N   UNL     1       7.350   4.799  18.443  0.00  0.00    +0.000 NA
ATOM      8  N   UNL     1       6.874   5.675  17.522  0.00  0.00    +0.000 N 
ATOM      9  C   UNL     1       8.826   8.065  19.239  0.00  0.00    +0.000 A 
ENDROOT
BRANCH   1  13
ATOM     10  C   UNL     1      11.634  13.080  17.047  0.00  0.00    +0.000 C 
ATOM     11  C   UNL     1      10.783  12.446  18.097  0.00  0.00    +0.000 A 
ATOM     12  C   UNL     1      10.110  11.207  17.899  0.00  0.00    +0.000 A 
ATOM     13  C   UNL     1       9.273  10.526  18.871  0.00  0.00    +0.000 A 
ATOM     14  C   UNL     1       9.069  11.087  20.159  0.00  0.00    +0.000 A 
ATOM     15  C   UNL     1       9.707  12.310  20.319  0.00  0.00    +0.000 A 
ATOM     16  C   UNL     1       9.637  13.087  21.442  0.00  0.00    +0.000 A 
ATOM     17  N   UNL     1      10.389  14.187  21.137  0.00  0.00    +0.000 N 
ATOM     18  C   UNL     1      10.600  15.337  21.984  0.00  0.00    +0.000 C 
ATOM     19  N   UNL     1      10.953  14.157  19.913  0.00  0.00    +0.000 NA
ATOM     20  C   UNL     1      10.534  13.000  19.366  0.00  0.00    +0.000 A 
ENDBRANCH   1  13
BRANCH   8  21
ATOM     21  C   UNL     1       5.990   5.234  16.446  0.00  0.00    +0.000 C 
ATOM     22  C   UNL     1       4.797   6.161  16.206  0.00  0.00    +0.000 C 
ATOM     23  C   UNL     1       3.737   6.043  17.299  0.00  0.00    +0.000 C 
ATOM     24  N   UNL     1       3.315   4.664  17.581  0.00  0.00    +0.000 NA
ATOM     25  C   UNL     1       2.517   4.660  18.818  0.00  0.00    +0.000 C 
ATOM     26  C   UNL     1       4.425   3.711  17.737  0.00  0.00    +0.000 C 
ATOM     27  C   UNL     1       5.480   3.805  16.637  0.00  0.00    +0.000 C 
ENDBRANCH   8  21
TORSDOF 2
ENDMDL
