MODEL 1
REMARK VINA RESULT:      -9.1      0.000      0.000
REMARK  Name = 
REMARK  3 active torsions:
REMARK  status: ('A' for Active; 'I' for Inactive)
REMARK    1  A    between atoms: C_2  and  C_20
REMARK    2  A    between atoms: N_3  and  C_4
REMARK    3  A    between atoms: C_7  and  C_8
REMARK                            x       y       z     vdW  Elec       q    Type
REMARK                         _______ _______ _______ _____ _____    ______ ____
ROOT
ATOM      1  C   UNL     1       7.822   8.237  17.834  0.00  0.00    +0.000 A 
ATOM      2  C   UNL     1       8.167   7.105  18.569  0.00  0.00    +0.000 A 
ATOM      3  C   UNL     1       7.308   5.998  18.593  0.00  0.00    +0.000 A 
ATOM      4  C   UNL     1       6.099   6.028  17.896  0.00  0.00    +0.000 A 
ATOM      5  C   UNL     1       5.745   7.187  17.198  0.00  0.00    +0.000 A 
ATOM      6  C   UNL     1       6.615   8.272  17.143  0.00  0.00    +0.000 A 
ENDROOT
BRANCH   4   7
ATOM      7  C   UNL     1       5.239   4.852  17.912  0.00  0.00    +0.000 A 
ATOM      8  N   UNL     1       5.310   3.847  17.062  0.00  0.00    +0.000 NA
ATOM      9  N   UNL     1       4.366   2.916  17.399  0.00  0.00    +0.000 NA
ATOM     10  C   UNL     1       3.699   3.368  18.440  0.00  0.00    +0.000 A 
ATOM     11  N   UNL     1       4.183   4.610  18.772  0.00  0.00    +0.000 N 
ATOM     12  C   UNL     1       3.679   5.506  19.795  0.00  0.00    +0.000 C 
ATOM     13  C   UNL     1       2.170   5.484  19.980  0.00  0.00    +0.000 C 
ATOM     14  C   UNL     1       1.672   4.301  20.810  0.00  0.00    +0.000 C 
ATOM     15  C   UNL     1       2.404   2.980  20.580  0.00  0.00    +0.000 C 
ATOM     16  C   UNL     1       2.584   2.639  19.107  0.00  0.00    +0.000 C 
ENDBRANCH   4   7
BRANCH   1  19
ATOM     17  O   UNL     1       8.943   9.975  19.939  0.00  0.00    +0.000 OA
ATOM     18  C   UNL     1       9.168  10.132  18.759  0.00  0.00    +0.000 C 
ATOM     19  N   UNL     1       8.621   9.377  17.726  0.00  0.00    +0.000 N 
ATOM     20  H   UNL     1       8.804   9.694  16.791  0.00  0.00    +0.000 HD
BRANCH  18  21
ATOM     21  C   UNL     1      10.059  11.170  18.253  0.00  0.00    +0.000 A 
ATOM     22  C   UNL     1      11.437  11.124  18.127  0.00  0.00    +0.000 A 
ATOM     23  N   UNL     1      11.801  12.260  17.466  0.00  0.00    +0.000 N 
ATOM     24  C   UNL     1      10.851  13.225  17.712  0.00  0.00    +0.000 A 
ATOM     25  C   UNL     1      10.909  14.603  17.744  0.00  0.00    +0.000 A 
ATOM     26  C   UNL     1       9.703  15.291  17.912  0.00  0.00    +0.000 A 
ATOM     27  C   UNL     1       8.484  14.602  17.902  0.00  0.00    +0.000 A 
ATOM     28  C   UNL     1       8.447  13.214  17.892  0.00  0.00    +0.000 A 
ATOM     29  C   UNL     1       9.669  12.504  17.923  0.00  0.00    +0.000 A 
ATOM     30  H   UNL     1      12.641  12.399  16.917  0.00  0.00    +0.000 HD
ENDBRANCH  18  21
ENDBRANCH   1  19
TORSDOF 3
ENDMDL
MODEL 2
REMARK VINA RESULT:      -9.1      1.512      1.909
REMARK  Name = 
REMARK  3 active torsions:
REMARK  status: ('A' for Active; 'I' for Inactive)
REMARK    1  A    between atoms: C_2  and  C_20
REMARK    2  A    between atoms: N_3  and  C_4
REMARK    3  A    between atoms: C_7  and  C_8
REMARK                            x       y       z     vdW  Elec       q    Type
REMARK                         _______ _______ _______ _____ _____    ______ ____
ROOT
ATOM      1  C   UNL     1       8.075   7.971  18.399  0.00  0.00    +0.000 A 
ATOM      2  C   UNL     1       7.096   8.114  17.418  0.00  0.00    +0.000 A 
ATOM      3  C   UNL     1       6.246   7.041  17.117  0.00  0.00    +0.000 A 
ATOM      4  C   UNL     1       6.384   5.823  17.785  0.00  0.00    +0.000 A 
ATOM      5  C   UNL     1       7.400   5.680  18.735  0.00  0.00    +0.000 A 
ATOM      6  C   UNL     1       8.219   6.756  19.061  0.00  0.00    +0.000 A 
ENDROOT
BRANCH   4   7
ATOM      7  C   UNL     1       5.468   4.733  17.474  0.00  0.00    +0.000 A 
ATOM      8  N   UNL     1       5.576   3.921  16.440  0.00  0.00    +0.000 NA
ATOM      9  N   UNL     1       4.556   3.011  16.486  0.00  0.00    +0.000 NA
ATOM     10  C   UNL     1       3.809   3.285  17.535  0.00  0.00    +0.000 A 
ATOM     11  N   UNL     1       4.319   4.395  18.165  0.00  0.00    +0.000 N 
ATOM     12  C   UNL     1       3.758   5.094  19.304  0.00  0.00    +0.000 C 
ATOM     13  C   UNL     1       2.238   5.141  19.343  0.00  0.00    +0.000 C 
ATOM     14  C   UNL     1       1.599   3.851  19.856  0.00  0.00    +0.000 C 
ATOM     15  C   UNL     1       2.283   2.558  19.418  0.00  0.00    +0.000 C 
ATOM     16  C   UNL     1       2.597   2.514  17.929  0.00  0.00    +0.000 C 
ENDBRANCH   4   7
BRANCH   1  19
ATOM     17  O   UNL     1       8.147  10.816  17.620  0.00  0.00    +0.000 OA
ATOM     18  C   UNL     1       8.905  10.330  18.430  0.00  0.00    +0.000 C 
ATOM     19  N   UNL     1       8.949   8.987  18.789  0.00  0.00    +0.000 N 
ATOM     20  H   UNL     1       9.707   8.705  19.385  0.00  0.00    +0.000 HD
BRANCH  18  21
ATOM     21  C   UNL     1       9.907  11.112  19.146  0.00  0.00    +0.000 A 
ATOM     22  C   UNL     1      10.037  11.285  20.513  0.00  0.00    +0.000 A 
ATOM     23  N   UNL     1      11.205  11.962  20.706  0.00  0.00    +0.000 N 
ATOM     24  C   UNL     1      11.466  12.702  19.576  0.00  0.00    +0.000 A 
ATOM     25  C   UNL     1      12.159  13.878  19.371  0.00  0.00    +0.000 A 
ATOM     26  C   UNL     1      12.333  14.295  18.047  0.00  0.00    +0.000 A 
ATOM     27  C   UNL     1      11.942  13.473  16.984  0.00  0.00    +0.000 A 
ATOM     28  C   UNL     1      11.226  12.304  17.210  0.00  0.00    +0.000 A 
ATOM     29  C   UNL     1      10.871  11.975  18.538  0.00  0.00    +0.000 A 
ATOM     30  H   UNL     1      11.774  11.963  21.545  0.00  0.00    +0.000 HD
ENDBRANCH  18  21
ENDBRANCH   1  19
TORSDOF 3
ENDMDL
MODEL 3
REMARK VINA RESULT:      -9.0      6.283      9.136
REMARK  Name = 
REMARK  3 active torsions:
REMARK  status: ('A' for Active; 'I' for Inactive)
REMARK    1  A    between atoms: C_2  and  C_20
REMARK    2  A    between atoms: N_3  and  C_4
REMARK    3  A    between atoms: C_7  and  C_8
REMARK                            x       y       z     vdW  Elec       q    Type
REMARK                         _______ _______ _______ _____ _____    ______ ____
ROOT
ATOM      1  C   UNL     1       0.560   9.639  20.012  0.00  0.00    +0.000 A 
ATOM      2  C   UNL     1       0.836   9.786  18.655  0.00  0.00    +0.000 A 
ATOM      3  C   UNL     1       1.693   8.881  18.013  0.00  0.00    +0.000 A 
ATOM      4  C   UNL     1       2.285   7.840  18.731  0.00  0.00    +0.000 A 
ATOM      5  C   UNL     1       2.035   7.732  20.103  0.00  0.00    +0.000 A 
ATOM      6  C   UNL     1       1.154   8.607  20.731  0.00  0.00    +0.000 A 
ENDROOT
BRANCH   4   7
ATOM      7  C   UNL     1       3.148   6.896  18.033  0.00  0.00    +0.000 A 
ATOM      8  N   UNL     1       4.193   7.222  17.298  0.00  0.00    +0.000 NA
ATOM      9  N   UNL     1       4.773   6.077  16.824  0.00  0.00    +0.000 NA
ATOM     10  C   UNL     1       4.063   5.052  17.247  0.00  0.00    +0.000 A 
ATOM     11  N   UNL     1       2.997   5.522  17.977  0.00  0.00    +0.000 N 
ATOM     12  C   UNL     1       1.915   4.747  18.550  0.00  0.00    +0.000 C 
ATOM     13  C   UNL     1       1.474   3.550  17.723  0.00  0.00    +0.000 C 
ATOM     14  C   UNL     1       2.387   2.333  17.873  0.00  0.00    +0.000 C 
ATOM     15  C   UNL     1       3.879   2.639  17.987  0.00  0.00    +0.000 C 
ATOM     16  C   UNL     1       4.374   3.628  16.941  0.00  0.00    +0.000 C 
ENDBRANCH   4   7
BRANCH   1  19
ATOM     17  O   UNL     1       1.081  12.236  21.313  0.00  0.00    +0.000 OA
ATOM     18  C   UNL     1      -0.012  11.716  21.283  0.00  0.00    +0.000 C 
ATOM     19  N   UNL     1      -0.299  10.470  20.734  0.00  0.00    +0.000 N 
ATOM     20  H   UNL     1      -1.225  10.113  20.886  0.00  0.00    +0.000 HD
BRANCH  18  21
ATOM     21  C   UNL     1      -1.203  12.341  21.847  0.00  0.00    +0.000 A 
ATOM     22  C   UNL     1      -1.440  12.692  23.165  0.00  0.00    +0.000 A 
ATOM     23  N   UNL     1      -2.615  13.383  23.174  0.00  0.00    +0.000 N 
ATOM     24  C   UNL     1      -3.368  12.967  22.101  0.00  0.00    +0.000 A 
ATOM     25  C   UNL     1      -4.730  12.920  21.879  0.00  0.00    +0.000 A 
ATOM     26  C   UNL     1      -5.157  12.544  20.601  0.00  0.00    +0.000 A 
ATOM     27  C   UNL     1      -4.233  12.366  19.565  0.00  0.00    +0.000 A 
ATOM     28  C   UNL     1      -2.867  12.396  19.813  0.00  0.00    +0.000 A 
ATOM     29  C   UNL     1      -2.424  12.579  21.143  0.00  0.00    +0.000 A 
ATOM     30  H   UNL     1      -2.916  14.060  23.866  0.00  0.00    +0.000 HD
ENDBRANCH  18  21
ENDBRANCH   1  19
TORSDOF 3
ENDMDL
MODEL 4
REMARK VINA RESULT:      -8.9      5.997      9.204
REMARK  Name = 
REMARK  3 active torsions:
REMARK  status: ('A' for Active; 'I' for Inactive)
REMARK    1  A    between atoms: C_2  and  C_20
REMARK    2  A    between atoms: N_3  and  C_4
REMARK    3  A    between atoms: C_7  and  C_8
REMARK                            x       y       z     vdW  Elec       q    Type
REMARK                         _______ _______ _______ _____ _____    ______ ____
ROOT
ATOM      1  C   UNL     1       2.094   8.034  18.971  0.00  0.00    +0.000 A 
ATOM      2  C   UNL     1       1.649   8.819  17.910  0.00  0.00    +0.000 A 
ATOM      3  C   UNL     1       0.635   9.765  18.117  0.00  0.00    +0.000 A 
ATOM      4  C   UNL     1       0.057   9.915  19.378  0.00  0.00    +0.000 A 
ATOM      5  C   UNL     1       0.483   9.089  20.424  0.00  0.00    +0.000 A 
ATOM      6  C   UNL     1       1.515   8.177  20.228  0.00  0.00    +0.000 A 
ENDROOT
BRANCH   4   7
ATOM      7  C   UNL     1      -0.973  10.926  19.573  0.00  0.00    +0.000 A 
ATOM      8  N   UNL     1      -2.046  11.073  18.819  0.00  0.00    +0.000 NA
ATOM      9  N   UNL     1      -2.796  12.103  19.316  0.00  0.00    +0.000 NA
ATOM     10  C   UNL     1      -2.166  12.604  20.358  0.00  0.00    +0.000 A 
ATOM     11  N   UNL     1      -0.985  11.923  20.532  0.00  0.00    +0.000 N 
ATOM     12  C   UNL     1       0.056  12.203  21.500  0.00  0.00    +0.000 C 
ATOM     13  C   UNL     1       0.272  13.678  21.802  0.00  0.00    +0.000 C 
ATOM     14  C   UNL     1      -0.751  14.258  22.777  0.00  0.00    +0.000 C 
ATOM     15  C   UNL     1      -2.180  13.741  22.618  0.00  0.00    +0.000 C 
ATOM     16  C   UNL     1      -2.666  13.744  21.175  0.00  0.00    +0.000 C 
ENDBRANCH   4   7
BRANCH   1  19
ATOM     17  O   UNL     1       2.013   5.253  17.988  0.00  0.00    +0.000 OA
ATOM     18  C   UNL     1       3.031   5.800  18.350  0.00  0.00    +0.000 C 
ATOM     19  N   UNL     1       3.115   7.087  18.873  0.00  0.00    +0.000 N 
ATOM     20  H   UNL     1       4.006   7.366  19.241  0.00  0.00    +0.000 HD
BRANCH  18  21
ATOM     21  C   UNL     1       4.339   5.157  18.293  0.00  0.00    +0.000 A 
ATOM     22  C   UNL     1       5.183   4.846  19.345  0.00  0.00    +0.000 A 
ATOM     23  N   UNL     1       6.208   4.119  18.814  0.00  0.00    +0.000 N 
ATOM     24  C   UNL     1       6.347   4.471  17.492  0.00  0.00    +0.000 A 
ATOM     25  C   UNL     1       7.429   4.467  16.634  0.00  0.00    +0.000 A 
ATOM     26  C   UNL     1       7.185   4.783  15.294  0.00  0.00    +0.000 A 
ATOM     27  C   UNL     1       5.875   4.953  14.831  0.00  0.00    +0.000 A 
ATOM     28  C   UNL     1       4.802   4.976  15.711  0.00  0.00    +0.000 A 
ATOM     29  C   UNL     1       5.060   4.855  17.096  0.00  0.00    +0.000 A 
ATOM     30  H   UNL     1       6.800   3.458  19.304  0.00  0.00    +0.000 HD
ENDBRANCH  18  21
ENDBRANCH   1  19
TORSDOF 3
ENDMDL
MODEL 5
REMARK VINA RESULT:      -8.9      6.334      8.735
REMARK  Name = 
REMARK  3 active torsions:
REMARK  status: ('A' for Active; 'I' for Inactive)
REMARK    1  A    between atoms: C_2  and  C_20
REMARK    2  A    between atoms: N_3  and  C_4
REMARK    3  A    between atoms: C_7  and  C_8
REMARK                            x       y       z     vdW  Elec       q    Type
REMARK                         _______ _______ _______ _____ _____    ______ ____
ROOT
ATOM      1  C   UNL     1       0.718   9.787  19.431  0.00  0.00    +0.000 A 
ATOM      2  C   UNL     1       1.199   9.650  18.131  0.00  0.00    +0.000 A 
ATOM      3  C   UNL     1       2.014   8.560  17.797  0.00  0.00    +0.000 A 
ATOM      4  C   UNL     1       2.361   7.617  18.765  0.00  0.00    +0.000 A 
ATOM      5  C   UNL     1       1.908   7.790  20.077  0.00  0.00    +0.000 A 
ATOM      6  C   UNL     1       1.067   8.851  20.399  0.00  0.00    +0.000 A 
ENDROOT
BRANCH   4   7
ATOM      7  C   UNL     1       3.185   6.477  18.386  0.00  0.00    +0.000 A 
ATOM      8  N   UNL     1       4.348   6.553  17.768  0.00  0.00    +0.000 NA
ATOM      9  N   UNL     1       4.841   5.287  17.599  0.00  0.00    +0.000 NA
ATOM     10  C   UNL     1       3.963   4.437  18.089  0.00  0.00    +0.000 A 
ATOM     11  N   UNL     1       2.878   5.139  18.555  0.00  0.00    +0.000 N 
ATOM     12  C   UNL     1       1.645   4.597  19.090  0.00  0.00    +0.000 C 
ATOM     13  C   UNL     1       1.172   3.309  18.435  0.00  0.00    +0.000 C 
ATOM     14  C   UNL     1       1.904   2.063  18.935  0.00  0.00    +0.000 C 
ATOM     15  C   UNL     1       3.395   2.243  19.214  0.00  0.00    +0.000 C 
ATOM     16  C   UNL     1       4.137   2.958  18.093  0.00  0.00    +0.000 C 
ENDBRANCH   4   7
BRANCH   1  19
ATOM     17  O   UNL     1       1.295  12.118  21.144  0.00  0.00    +0.000 OA
ATOM     18  C   UNL     1       0.219  11.928  20.622  0.00  0.00    +0.000 C 
ATOM     19  N   UNL     1      -0.121  10.819  19.854  0.00  0.00    +0.000 N 
ATOM     20  H   UNL     1      -1.085  10.738  19.584  0.00  0.00    +0.000 HD
BRANCH  18  21
ATOM     21  C   UNL     1      -0.897  12.860  20.746  0.00  0.00    +0.000 A 
ATOM     22  C   UNL     1      -1.101  14.042  20.055  0.00  0.00    +0.000 A 
ATOM     23  N   UNL     1      -2.348  14.476  20.396  0.00  0.00    +0.000 N 
ATOM     24  C   UNL     1      -2.649  13.985  21.645  0.00  0.00    +0.000 A 
ATOM     25  C   UNL     1      -3.467  14.445  22.657  0.00  0.00    +0.000 A 
ATOM     26  C   UNL     1      -3.635  13.617  23.771  0.00  0.00    +0.000 A 
ATOM     27  C   UNL     1      -3.107  12.321  23.780  0.00  0.00    +0.000 A 
ATOM     28  C   UNL     1      -2.268  11.883  22.764  0.00  0.00    +0.000 A 
ATOM     29  C   UNL     1      -1.931  12.786  21.730  0.00  0.00    +0.000 A 
ATOM     30  H   UNL     1      -2.947  15.089  19.854  0.00  0.00    +0.000 HD
ENDBRANCH  18  21
ENDBRANCH   1  19
TORSDOF 3
ENDMDL
MODEL 6
REMARK VINA RESULT:      -8.8      5.856      7.263
REMARK  Name = 
REMARK  3 active torsions:
REMARK  status: ('A' for Active; 'I' for Inactive)
REMARK    1  A    between atoms: C_2  and  C_20
REMARK    2  A    between atoms: N_3  and  C_4
REMARK    3  A    between atoms: C_7  and  C_8
REMARK                            x       y       z     vdW  Elec       q    Type
REMARK                         _______ _______ _______ _____ _____    ______ ____
ROOT
ATOM      1  C   UNL     1       1.017  10.188  19.434  0.00  0.00    +0.000 A 
ATOM      2  C   UNL     1       1.040   9.270  20.481  0.00  0.00    +0.000 A 
ATOM      3  C   UNL     1       1.669   8.029  20.310  0.00  0.00    +0.000 A 
ATOM      4  C   UNL     1       2.261   7.701  19.089  0.00  0.00    +0.000 A 
ATOM      5  C   UNL     1       2.191   8.614  18.032  0.00  0.00    +0.000 A 
ATOM      6  C   UNL     1       1.600   9.860  18.214  0.00  0.00    +0.000 A 
ENDROOT
BRANCH   4   7
ATOM      7  C   UNL     1       2.935   6.417  18.948  0.00  0.00    +0.000 A 
ATOM      8  N   UNL     1       3.949   6.177  18.139  0.00  0.00    +0.000 NA
ATOM      9  N   UNL     1       4.336   4.873  18.293  0.00  0.00    +0.000 NA
ATOM     10  C   UNL     1       3.538   4.310  19.175  0.00  0.00    +0.000 A 
ATOM     11  N   UNL     1       2.605   5.234  19.583  0.00  0.00    +0.000 N 
ATOM     12  C   UNL     1       1.484   5.015  20.474  0.00  0.00    +0.000 C 
ATOM     13  C   UNL     1       0.826   3.649  20.356  0.00  0.00    +0.000 C 
ATOM     14  C   UNL     1       1.585   2.539  21.083  0.00  0.00    +0.000 C 
ATOM     15  C   UNL     1       3.108   2.630  21.018  0.00  0.00    +0.000 C 
ATOM     16  C   UNL     1       3.638   2.890  19.615  0.00  0.00    +0.000 C 
ENDBRANCH   4   7
BRANCH   1  19
ATOM     17  O   UNL     1       1.844  12.552  20.993  0.00  0.00    +0.000 OA
ATOM     18  C   UNL     1       0.905  12.557  20.228  0.00  0.00    +0.000 C 
ATOM     19  N   UNL     1       0.441  11.456  19.514  0.00  0.00    +0.000 N 
ATOM     20  H   UNL     1      -0.419  11.578  19.010  0.00  0.00    +0.000 HD
BRANCH  18  21
ATOM     21  C   UNL     1       0.109  13.749  19.958  0.00  0.00    +0.000 A 
ATOM     22  C   UNL     1      -1.270  13.870  19.952  0.00  0.00    +0.000 A 
ATOM     23  N   UNL     1      -1.538  15.198  19.804  0.00  0.00    +0.000 N 
ATOM     24  C   UNL     1      -0.481  15.781  19.144  0.00  0.00    +0.000 A 
ATOM     25  C   UNL     1      -0.389  16.887  18.323  0.00  0.00    +0.000 A 
ATOM     26  C   UNL     1       0.890  17.273  17.910  0.00  0.00    +0.000 A 
ATOM     27  C   UNL     1       2.026  16.644  18.432  0.00  0.00    +0.000 A 
ATOM     28  C   UNL     1       1.914  15.519  19.239  0.00  0.00    +0.000 A 
ATOM     29  C   UNL     1       0.625  15.001  19.501  0.00  0.00    +0.000 A 
ATOM     30  H   UNL     1      -2.382  15.682  20.089  0.00  0.00    +0.000 HD
ENDBRANCH  18  21
ENDBRANCH   1  19
TORSDOF 3
ENDMDL
MODEL 7
REMARK VINA RESULT:      -8.7      6.052      9.101
REMARK  Name = 
REMARK  3 active torsions:
REMARK  status: ('A' for Active; 'I' for Inactive)
REMARK    1  A    between atoms: C_2  and  C_20
REMARK    2  A    between atoms: N_3  and  C_4
REMARK    3  A    between atoms: C_7  and  C_8
REMARK                            x       y       z     vdW  Elec       q    Type
REMARK                         _______ _______ _______ _____ _____    ______ ____
ROOT
ATOM      1  C   UNL     1       1.819   8.039  19.726  0.00  0.00    +0.000 A 
ATOM      2  C   UNL     1       1.024   8.157  20.864  0.00  0.00    +0.000 A 
ATOM      3  C   UNL     1       0.027   9.140  20.922  0.00  0.00    +0.000 A 
ATOM      4  C   UNL     1      -0.165  10.013  19.850  0.00  0.00    +0.000 A 
ATOM      5  C   UNL     1       0.670   9.912  18.733  0.00  0.00    +0.000 A 
ATOM      6  C   UNL     1       1.634   8.912  18.660  0.00  0.00    +0.000 A 
ENDROOT
BRANCH   4   7
ATOM      7  C   UNL     1      -1.229  11.006  19.924  0.00  0.00    +0.000 A 
ATOM      8  N   UNL     1      -2.107  11.251  18.970  0.00  0.00    +0.000 NA
ATOM      9  N   UNL     1      -2.965  12.225  19.400  0.00  0.00    +0.000 NA
ATOM     10  C   UNL     1      -2.593  12.596  20.607  0.00  0.00    +0.000 A 
ATOM     11  N   UNL     1      -1.471  11.886  20.963  0.00  0.00    +0.000 N 
ATOM     12  C   UNL     1      -0.677  12.042  22.165  0.00  0.00    +0.000 C 
ATOM     13  C   UNL     1      -0.557  13.469  22.676  0.00  0.00    +0.000 C 
ATOM     14  C   UNL     1      -1.782  13.945  23.456  0.00  0.00    +0.000 C 
ATOM     15  C   UNL     1      -3.131  13.465  22.922  0.00  0.00    +0.000 C 
ATOM     16  C   UNL     1      -3.280  13.640  21.417  0.00  0.00    +0.000 C 
ENDBRANCH   4   7
BRANCH   1  19
ATOM     17  O   UNL     1       1.735   5.434  18.342  0.00  0.00    +0.000 OA
ATOM     18  C   UNL     1       2.738   5.883  18.851  0.00  0.00    +0.000 C 
ATOM     19  N   UNL     1       2.817   7.077  19.562  0.00  0.00    +0.000 N 
ATOM     20  H   UNL     1       3.686   7.266  20.028  0.00  0.00    +0.000 HD
BRANCH  18  21
ATOM     21  C   UNL     1       4.028   5.206  18.791  0.00  0.00    +0.000 A 
ATOM     22  C   UNL     1       4.406   4.033  19.422  0.00  0.00    +0.000 A 
ATOM     23  N   UNL     1       5.642   3.718  18.942  0.00  0.00    +0.000 N 
ATOM     24  C   UNL     1       6.260   4.882  18.544  0.00  0.00    +0.000 A 
ATOM     25  C   UNL     1       7.586   5.252  18.459  0.00  0.00    +0.000 A 
ATOM     26  C   UNL     1       7.868   6.497  17.888  0.00  0.00    +0.000 A 
ATOM     27  C   UNL     1       6.849   7.259  17.304  0.00  0.00    +0.000 A 
ATOM     28  C   UNL     1       5.518   6.881  17.419  0.00  0.00    +0.000 A 
ATOM     29  C   UNL     1       5.206   5.724  18.168  0.00  0.00    +0.000 A 
ATOM     30  H   UNL     1       6.066   2.798  18.912  0.00  0.00    +0.000 HD
ENDBRANCH  18  21
ENDBRANCH   1  19
TORSDOF 3
ENDMDL
MODEL 8
REMARK VINA RESULT:      -8.7      6.480      8.812
REMARK  Name = 
REMARK  3 active torsions:
REMARK  status: ('A' for Active; 'I' for Inactive)
REMARK    1  A    between atoms: C_2  and  C_20
REMARK    2  A    between atoms: N_3  and  C_4
REMARK    3  A    between atoms: C_7  and  C_8
REMARK                            x       y       z     vdW  Elec       q    Type
REMARK                         _______ _______ _______ _____ _____    ______ ____
ROOT
ATOM      1  C   UNL     1       0.899   9.785  20.123  0.00  0.00    +0.000 A 
ATOM      2  C   UNL     1       1.236   8.639  20.839  0.00  0.00    +0.000 A 
ATOM      3  C   UNL     1       1.927   7.596  20.206  0.00  0.00    +0.000 A 
ATOM      4  C   UNL     1       2.265   7.693  18.855  0.00  0.00    +0.000 A 
ATOM      5  C   UNL     1       1.881   8.830  18.137  0.00  0.00    +0.000 A 
ATOM      6  C   UNL     1       1.230   9.881  18.775  0.00  0.00    +0.000 A 
ENDROOT
BRANCH   4   7
ATOM      7  C   UNL     1       3.009   6.608  18.229  0.00  0.00    +0.000 A 
ATOM      8  N   UNL     1       4.007   6.762  17.380  0.00  0.00    +0.000 NA
ATOM      9  N   UNL     1       4.476   5.527  17.022  0.00  0.00    +0.000 NA
ATOM     10  C   UNL     1       3.745   4.618  17.632  0.00  0.00    +0.000 A 
ATOM     11  N   UNL     1       2.774   5.252  18.370  0.00  0.00    +0.000 N 
ATOM     12  C   UNL     1       1.700   4.636  19.122  0.00  0.00    +0.000 C 
ATOM     13  C   UNL     1       1.121   3.375  18.500  0.00  0.00    +0.000 C 
ATOM     14  C   UNL     1       1.970   2.127  18.743  0.00  0.00    +0.000 C 
ATOM     15  C   UNL     1       3.482   2.340  18.702  0.00  0.00    +0.000 C 
ATOM     16  C   UNL     1       3.945   3.149  17.498  0.00  0.00    +0.000 C 
ENDBRANCH   4   7
BRANCH   1  19
ATOM     17  O   UNL     1       0.239  10.399  22.932  0.00  0.00    +0.000 OA
ATOM     18  C   UNL     1      -0.001  11.152  22.014  0.00  0.00    +0.000 C 
ATOM     19  N   UNL     1       0.239  10.886  20.669  0.00  0.00    +0.000 N 
ATOM     20  H   UNL     1      -0.119  11.553  20.009  0.00  0.00    +0.000 HD
BRANCH  18  21
ATOM     21  C   UNL     1      -0.600  12.468  22.204  0.00  0.00    +0.000 A 
ATOM     22  C   UNL     1      -0.031  13.707  21.964  0.00  0.00    +0.000 A 
ATOM     23  N   UNL     1      -1.022  14.627  22.140  0.00  0.00    +0.000 N 
ATOM     24  C   UNL     1      -1.944  14.105  23.017  0.00  0.00    +0.000 A 
ATOM     25  C   UNL     1      -2.822  14.691  23.906  0.00  0.00    +0.000 A 
ATOM     26  C   UNL     1      -3.719  13.848  24.569  0.00  0.00    +0.000 A 
ATOM     27  C   UNL     1      -3.807  12.493  24.229  0.00  0.00    +0.000 A 
ATOM     28  C   UNL     1      -2.901  11.916  23.349  0.00  0.00    +0.000 A 
ATOM     29  C   UNL     1      -1.863  12.720  22.823  0.00  0.00    +0.000 A 
ATOM     30  H   UNL     1      -1.068  15.555  21.734  0.00  0.00    +0.000 HD
ENDBRANCH  18  21
ENDBRANCH   1  19
TORSDOF 3
ENDMDL
MODEL 9
REMARK VINA RESULT:      -8.7      6.433      8.612
REMARK  Name = 
REMARK  3 active torsions:
REMARK  status: ('A' for Active; 'I' for Inactive)
REMARK    1  A    between atoms: C_2  and  C_20
REMARK    2  A    between atoms: N_3  and  C_4
REMARK    3  A    between atoms: C_7  and  C_8
REMARK                            x       y       z     vdW  Elec       q    Type
REMARK                         _______ _______ _______ _____ _____    ______ ____
ROOT
ATOM      1  C   UNL     1       0.487   9.578  20.507  0.00  0.00    +0.000 A 
ATOM      2  C   UNL     1       1.031   8.436  21.092  0.00  0.00    +0.000 A 
ATOM      3  C   UNL     1       1.853   7.588  20.337  0.00  0.00    +0.000 A 
ATOM      4  C   UNL     1       2.117   7.872  18.996  0.00  0.00    +0.000 A 
ATOM      5  C   UNL     1       1.528   8.997  18.410  0.00  0.00    +0.000 A 
ATOM      6  C   UNL     1       0.744   9.860  19.170  0.00  0.00    +0.000 A 
ENDROOT
BRANCH   4   7
ATOM      7  C   UNL     1       2.999   6.990  18.242  0.00  0.00    +0.000 A 
ATOM      8  N   UNL     1       4.016   7.386  17.501  0.00  0.00    +0.000 NA
ATOM      9  N   UNL     1       4.627   6.284  16.967  0.00  0.00    +0.000 NA
ATOM     10  C   UNL     1       3.964   5.217  17.360  0.00  0.00    +0.000 A 
ATOM     11  N   UNL     1       2.898   5.616  18.131  0.00  0.00    +0.000 N 
ATOM     12  C   UNL     1       1.857   4.778  18.692  0.00  0.00    +0.000 C 
ATOM     13  C   UNL     1       1.443   3.600  17.823  0.00  0.00    +0.000 C 
ATOM     14  C   UNL     1       2.403   2.413  17.902  0.00  0.00    +0.000 C 
ATOM     15  C   UNL     1       3.885   2.770  18.000  0.00  0.00    +0.000 C 
ATOM     16  C   UNL     1       4.321   3.820  16.987  0.00  0.00    +0.000 C 
ENDBRANCH   4   7
BRANCH   1  19
ATOM     17  O   UNL     1       0.188  10.076  23.400  0.00  0.00    +0.000 OA
ATOM     18  C   UNL     1      -0.381  10.726  22.552  0.00  0.00    +0.000 C 
ATOM     19  N   UNL     1      -0.319  10.497  21.181  0.00  0.00    +0.000 N 
ATOM     20  H   UNL     1      -0.936  11.041  20.606  0.00  0.00    +0.000 HD
BRANCH  18  21
ATOM     21  C   UNL     1      -1.241  11.861  22.869  0.00  0.00    +0.000 A 
ATOM     22  C   UNL     1      -2.538  11.840  23.353  0.00  0.00    +0.000 A 
ATOM     23  N   UNL     1      -2.864  13.132  23.639  0.00  0.00    +0.000 N 
ATOM     24  C   UNL     1      -2.113  13.955  22.832  0.00  0.00    +0.000 A 
ATOM     25  C   UNL     1      -2.331  15.222  22.329  0.00  0.00    +0.000 A 
ATOM     26  C   UNL     1      -1.282  15.820  21.624  0.00  0.00    +0.000 A 
ATOM     27  C   UNL     1      -0.025  15.208  21.562  0.00  0.00    +0.000 A 
ATOM     28  C   UNL     1       0.170  13.924  22.054  0.00  0.00    +0.000 A 
ATOM     29  C   UNL     1      -0.939  13.230  22.593  0.00  0.00    +0.000 A 
ATOM     30  H   UNL     1      -3.564  13.450  24.300  0.00  0.00    +0.000 HD
ENDBRANCH  18  21
ENDBRANCH   1  19
TORSDOF 3
ENDMDL
