MODEL 1
REMARK VINA RESULT:      -8.2      0.000      0.000
REMARK  Name = 
REMARK  6 active torsions:
REMARK  status: ('A' for Active; 'I' for Inactive)
REMARK    1  A    between atoms: C_2  and  C_22
REMARK    2  A    between atoms: N_3  and  C_4
REMARK    3  A    between atoms: C_8  and  N_9
REMARK    4  A    between atoms: C_12  and  C_13
REMARK    5  A    between atoms: C_13  and  O_15
REMARK    6  A    between atoms: C_16  and  C_17
REMARK                            x       y       z     vdW  Elec       q    Type
REMARK                         _______ _______ _______ _____ _____    ______ ____
ROOT
ATOM      1  C   UNL     1       6.570   6.520  16.930  0.00  0.00    +0.000 A 
ATOM      2  C   UNL     1       6.622   5.953  15.656  0.00  0.00    +0.000 A 
ATOM      3  C   UNL     1       6.040   4.711  15.407  0.00  0.00    +0.000 A 
ATOM      4  C   UNL     1       5.376   4.036  16.426  0.00  0.00    +0.000 A 
ATOM      5  C   UNL     1       5.277   4.608  17.704  0.00  0.00    +0.000 A 
ATOM      6  C   UNL     1       5.923   5.824  17.966  0.00  0.00    +0.000 A 
ENDROOT
BRANCH   5   7
ATOM      7  N   UNL     1       4.522   3.913  18.691  0.00  0.00    +0.000 N 
ATOM      8  N   UNL     1       5.084   2.801  19.241  0.00  0.00    +0.000 NA
ATOM      9  C   UNL     1       4.251   2.423  20.201  0.00  0.00    +0.000 A 
ATOM     10  C   UNL     1       3.081   3.197  20.239  0.00  0.00    +0.000 A 
ATOM     11  C   UNL     1       3.265   4.135  19.219  0.00  0.00    +0.000 A 
BRANCH  11  12
ATOM     12  C   UNL     1       2.278   5.103  18.698  0.00  0.00    +0.000 C 
ATOM     13  F   UNL     1       2.770   5.977  17.788  0.00  0.00    +0.000 F 
ATOM     14  F   UNL     1       1.254   4.477  18.064  0.00  0.00    +0.000 F 
ATOM     15  F   UNL     1       1.750   5.852  19.697  0.00  0.00    +0.000 F 
ENDBRANCH  11  12
BRANCH  10  16
ATOM     16  C   UNL     1       1.900   3.074  21.081  0.00  0.00    +0.000 C 
ATOM     17  O   UNL     1       1.931   3.218  22.292  0.00  0.00    +0.000 OA
BRANCH  16  18
ATOM     18  O   UNL     1       0.744   2.780  20.439  0.00  0.00    +0.000 OA
ATOM     19  H   UNL     1       0.284   3.527  20.022  0.00  0.00    +0.000 HD
ENDBRANCH  16  18
ENDBRANCH  10  16
ENDBRANCH   5   7
BRANCH   1  22
ATOM     20  O   UNL     1       8.624   7.212  18.954  0.00  0.00    +0.000 OA
ATOM     21  C   UNL     1       8.077   8.028  18.227  0.00  0.00    +0.000 C 
ATOM     22  N   UNL     1       7.137   7.776  17.242  0.00  0.00    +0.000 N 
ATOM     23  H   UNL     1       6.937   8.525  16.590  0.00  0.00    +0.000 HD
BRANCH  21  24
ATOM     24  C   UNL     1       8.493   9.445  18.344  0.00  0.00    +0.000 A 
ATOM     25  C   UNL     1       8.055  10.437  17.465  0.00  0.00    +0.000 A 
ATOM     26  C   UNL     1       8.486  11.749  17.654  0.00  0.00    +0.000 A 
ATOM     27  C   UNL     1       9.339  12.019  18.712  0.00  0.00    +0.000 A 
ATOM     28  N   UNL     1       9.777  11.082  19.582  0.00  0.00    +0.000 NA
ATOM     29  C   UNL     1       9.333   9.816  19.387  0.00  0.00    +0.000 A 
ENDBRANCH  21  24
ENDBRANCH   1  22
TORSDOF 6
ENDMDL
MODEL 2
REMARK VINA RESULT:      -8.1      0.587      1.126
REMARK  Name = 
REMARK  6 active torsions:
REMARK  status: ('A' for Active; 'I' for Inactive)
REMARK    1  A    between atoms: C_2  and  C_22
REMARK    2  A    between atoms: N_3  and  C_4
REMARK    3  A    between atoms: C_8  and  N_9
REMARK    4  A    between atoms: C_12  and  C_13
REMARK    5  A    between atoms: C_13  and  O_15
REMARK    6  A    between atoms: C_16  and  C_17
REMARK                            x       y       z     vdW  Elec       q    Type
REMARK                         _______ _______ _______ _____ _____    ______ ____
ROOT
ATOM      1  C   UNL     1       6.389   6.646  16.885  0.00  0.00    +0.000 A 
ATOM      2  C   UNL     1       6.330   6.154  15.580  0.00  0.00    +0.000 A 
ATOM      3  C   UNL     1       5.710   4.935  15.309  0.00  0.00    +0.000 A 
ATOM      4  C   UNL     1       5.120   4.209  16.338  0.00  0.00    +0.000 A 
ATOM      5  C   UNL     1       5.133   4.707  17.651  0.00  0.00    +0.000 A 
ATOM      6  C   UNL     1       5.816   5.898  17.928  0.00  0.00    +0.000 A 
ENDROOT
BRANCH   5   7
ATOM      7  N   UNL     1       4.449   3.963  18.654  0.00  0.00    +0.000 N 
ATOM      8  N   UNL     1       5.101   2.901  19.200  0.00  0.00    +0.000 NA
ATOM      9  C   UNL     1       4.315   2.467  20.177  0.00  0.00    +0.000 A 
ATOM     10  C   UNL     1       3.092   3.151  20.230  0.00  0.00    +0.000 A 
ATOM     11  C   UNL     1       3.187   4.094  19.203  0.00  0.00    +0.000 A 
BRANCH  11  12
ATOM     12  C   UNL     1       2.122   4.982  18.693  0.00  0.00    +0.000 C 
ATOM     13  F   UNL     1       2.538   5.903  17.791  0.00  0.00    +0.000 F 
ATOM     14  F   UNL     1       1.152   4.279  18.054  0.00  0.00    +0.000 F 
ATOM     15  F   UNL     1       1.535   5.674  19.701  0.00  0.00    +0.000 F 
ENDBRANCH  11  12
BRANCH  10  16
ATOM     16  C   UNL     1       1.937   2.946  21.093  0.00  0.00    +0.000 C 
ATOM     17  O   UNL     1       0.853   2.577  20.675  0.00  0.00    +0.000 OA
BRANCH  16  18
ATOM     18  O   UNL     1       2.132   3.199  22.410  0.00  0.00    +0.000 OA
ATOM     19  H   UNL     1       1.532   3.847  22.815  0.00  0.00    +0.000 HD
ENDBRANCH  16  18
ENDBRANCH  10  16
ENDBRANCH   5   7
BRANCH   1  22
ATOM     20  O   UNL     1       8.577   7.202  18.808  0.00  0.00    +0.000 OA
ATOM     21  C   UNL     1       8.003   8.062  18.156  0.00  0.00    +0.000 C 
ATOM     22  N   UNL     1       6.999   7.874  17.221  0.00  0.00    +0.000 N 
ATOM     23  H   UNL     1       6.775   8.659  16.620  0.00  0.00    +0.000 HD
BRANCH  21  24
ATOM     24  C   UNL     1       8.454   9.465  18.315  0.00  0.00    +0.000 A 
ATOM     25  C   UNL     1       9.400   9.851  19.265  0.00  0.00    +0.000 A 
ATOM     26  C   UNL     1       9.778  11.191  19.340  0.00  0.00    +0.000 A 
ATOM     27  C   UNL     1       9.194  12.092  18.464  0.00  0.00    +0.000 A 
ATOM     28  N   UNL     1       8.280  11.748  17.530  0.00  0.00    +0.000 NA
ATOM     29  C   UNL     1       7.938  10.437  17.467  0.00  0.00    +0.000 A 
ENDBRANCH  21  24
ENDBRANCH   1  22
TORSDOF 6
ENDMDL
MODEL 3
REMARK VINA RESULT:      -8.0      1.708      2.242
REMARK  Name = 
REMARK  6 active torsions:
REMARK  status: ('A' for Active; 'I' for Inactive)
REMARK    1  A    between atoms: C_2  and  C_22
REMARK    2  A    between atoms: N_3  and  C_4
REMARK    3  A    between atoms: C_8  and  N_9
REMARK    4  A    between atoms: C_12  and  C_13
REMARK    5  A    between atoms: C_13  and  O_15
REMARK    6  A    between atoms: C_16  and  C_17
REMARK                            x       y       z     vdW  Elec       q    Type
REMARK                         _______ _______ _______ _____ _____    ______ ____
ROOT
ATOM      1  C   UNL     1       6.589   6.696  16.892  0.00  0.00    +0.000 A 
ATOM      2  C   UNL     1       7.120   5.821  15.943  0.00  0.00    +0.000 A 
ATOM      3  C   UNL     1       6.480   4.618  15.652  0.00  0.00    +0.000 A 
ATOM      4  C   UNL     1       5.288   4.290  16.289  0.00  0.00    +0.000 A 
ATOM      5  C   UNL     1       4.717   5.176  17.216  0.00  0.00    +0.000 A 
ATOM      6  C   UNL     1       5.399   6.352  17.555  0.00  0.00    +0.000 A 
ENDROOT
BRANCH   5   7
ATOM      7  N   UNL     1       3.457   4.830  17.783  0.00  0.00    +0.000 N 
ATOM      8  N   UNL     1       2.458   5.750  17.698  0.00  0.00    +0.000 NA
ATOM      9  C   UNL     1       1.379   5.145  18.176  0.00  0.00    +0.000 A 
ATOM     10  C   UNL     1       1.656   3.868  18.685  0.00  0.00    +0.000 A 
ATOM     11  C   UNL     1       3.024   3.701  18.453  0.00  0.00    +0.000 A 
BRANCH  11  12
ATOM     12  C   UNL     1       3.892   2.606  18.932  0.00  0.00    +0.000 C 
ATOM     13  F   UNL     1       3.433   1.959  20.029  0.00  0.00    +0.000 F 
ATOM     14  F   UNL     1       4.039   1.640  17.990  0.00  0.00    +0.000 F 
ATOM     15  F   UNL     1       5.129   3.063  19.249  0.00  0.00    +0.000 F 
ENDBRANCH  11  12
BRANCH  10  16
ATOM     16  C   UNL     1       0.782   2.911  19.349  0.00  0.00    +0.000 C 
ATOM     17  O   UNL     1       0.250   1.981  18.766  0.00  0.00    +0.000 OA
BRANCH  16  18
ATOM     18  O   UNL     1       0.581   3.116  20.673  0.00  0.00    +0.000 OA
ATOM     19  H   UNL     1      -0.253   3.552  20.917  0.00  0.00    +0.000 HD
ENDBRANCH  16  18
ENDBRANCH  10  16
ENDBRANCH   5   7
BRANCH   1  22
ATOM     20  O   UNL     1       8.602   7.310  18.983  0.00  0.00    +0.000 OA
ATOM     21  C   UNL     1       8.106   8.147  18.242  0.00  0.00    +0.000 C 
ATOM     22  N   UNL     1       7.190   7.931  17.226  0.00  0.00    +0.000 N 
ATOM     23  H   UNL     1       7.037   8.689  16.572  0.00  0.00    +0.000 HD
BRANCH  21  24
ATOM     24  C   UNL     1       8.568   9.549  18.377  0.00  0.00    +0.000 A 
ATOM     25  C   UNL     1       8.169  10.564  17.507  0.00  0.00    +0.000 A 
ATOM     26  C   UNL     1       8.641  11.859  17.714  0.00  0.00    +0.000 A 
ATOM     27  C   UNL     1       9.495  12.089  18.781  0.00  0.00    +0.000 A 
ATOM     28  N   UNL     1       9.895  11.129  19.644  0.00  0.00    +0.000 NA
ATOM     29  C   UNL     1       9.411   9.880  19.431  0.00  0.00    +0.000 A 
ENDBRANCH  21  24
ENDBRANCH   1  22
TORSDOF 6
ENDMDL
MODEL 4
REMARK VINA RESULT:      -8.0      1.790      2.433
REMARK  Name = 
REMARK  6 active torsions:
REMARK  status: ('A' for Active; 'I' for Inactive)
REMARK    1  A    between atoms: C_2  and  C_22
REMARK    2  A    between atoms: N_3  and  C_4
REMARK    3  A    between atoms: C_8  and  N_9
REMARK    4  A    between atoms: C_12  and  C_13
REMARK    5  A    between atoms: C_13  and  O_15
REMARK    6  A    between atoms: C_16  and  C_17
REMARK                            x       y       z     vdW  Elec       q    Type
REMARK                         _______ _______ _______ _____ _____    ______ ____
ROOT
ATOM      1  C   UNL     1       6.617   6.639  16.889  0.00  0.00    +0.000 A 
ATOM      2  C   UNL     1       7.164   5.751  15.961  0.00  0.00    +0.000 A 
ATOM      3  C   UNL     1       6.531   4.542  15.676  0.00  0.00    +0.000 A 
ATOM      4  C   UNL     1       5.329   4.222  16.298  0.00  0.00    +0.000 A 
ATOM      5  C   UNL     1       4.742   5.119  17.204  0.00  0.00    +0.000 A 
ATOM      6  C   UNL     1       5.417   6.301  17.538  0.00  0.00    +0.000 A 
ENDROOT
BRANCH   5   7
ATOM      7  N   UNL     1       3.474   4.778  17.756  0.00  0.00    +0.000 N 
ATOM      8  N   UNL     1       2.471   5.689  17.629  0.00  0.00    +0.000 NA
ATOM      9  C   UNL     1       1.387   5.088  18.102  0.00  0.00    +0.000 A 
ATOM     10  C   UNL     1       1.662   3.826  18.647  0.00  0.00    +0.000 A 
ATOM     11  C   UNL     1       3.036   3.663  18.445  0.00  0.00    +0.000 A 
BRANCH  11  12
ATOM     12  C   UNL     1       3.902   2.586  18.967  0.00  0.00    +0.000 C 
ATOM     13  F   UNL     1       5.169   2.968  19.252  0.00  0.00    +0.000 F 
ATOM     14  F   UNL     1       3.418   2.078  20.128  0.00  0.00    +0.000 F 
ATOM     15  F   UNL     1       4.003   1.566  18.080  0.00  0.00    +0.000 F 
ENDBRANCH  11  12
BRANCH  10  16
ATOM     16  C   UNL     1       0.782   2.880  19.319  0.00  0.00    +0.000 C 
ATOM     17  O   UNL     1       0.269   1.931  18.749  0.00  0.00    +0.000 OA
BRANCH  16  18
ATOM     18  O   UNL     1       0.552   3.118  20.632  0.00  0.00    +0.000 OA
ATOM     19  H   UNL     1      -0.376   3.081  20.918  0.00  0.00    +0.000 HD
ENDBRANCH  16  18
ENDBRANCH  10  16
ENDBRANCH   5   7
BRANCH   1  22
ATOM     20  O   UNL     1       8.590   7.287  19.006  0.00  0.00    +0.000 OA
ATOM     21  C   UNL     1       8.107   8.112  18.244  0.00  0.00    +0.000 C 
ATOM     22  N   UNL     1       7.210   7.878  17.215  0.00  0.00    +0.000 N 
ATOM     23  H   UNL     1       7.068   8.626  16.547  0.00  0.00    +0.000 HD
BRANCH  21  24
ATOM     24  C   UNL     1       8.565   9.515  18.367  0.00  0.00    +0.000 A 
ATOM     25  C   UNL     1       9.534   9.917  19.287  0.00  0.00    +0.000 A 
ATOM     26  C   UNL     1       9.916  11.257  19.328  0.00  0.00    +0.000 A 
ATOM     27  C   UNL     1       9.313  12.144  18.450  0.00  0.00    +0.000 A 
ATOM     28  N   UNL     1       8.376  11.785  17.545  0.00  0.00    +0.000 NA
ATOM     29  C   UNL     1       8.031  10.474  17.514  0.00  0.00    +0.000 A 
ENDBRANCH  21  24
ENDBRANCH   1  22
TORSDOF 6
ENDMDL
MODEL 5
REMARK VINA RESULT:      -7.9      0.915      1.437
REMARK  Name = 
REMARK  6 active torsions:
REMARK  status: ('A' for Active; 'I' for Inactive)
REMARK    1  A    between atoms: C_2  and  C_22
REMARK    2  A    between atoms: N_3  and  C_4
REMARK    3  A    between atoms: C_8  and  N_9
REMARK    4  A    between atoms: C_12  and  C_13
REMARK    5  A    between atoms: C_13  and  O_15
REMARK    6  A    between atoms: C_16  and  C_17
REMARK                            x       y       z     vdW  Elec       q    Type
REMARK                         _______ _______ _______ _____ _____    ______ ____
ROOT
ATOM      1  C   UNL     1       6.400   6.219  16.692  0.00  0.00    +0.000 A 
ATOM      2  C   UNL     1       6.583   5.636  15.437  0.00  0.00    +0.000 A 
ATOM      3  C   UNL     1       5.989   4.413  15.129  0.00  0.00    +0.000 A 
ATOM      4  C   UNL     1       5.182   3.775  16.065  0.00  0.00    +0.000 A 
ATOM      5  C   UNL     1       4.952   4.365  17.318  0.00  0.00    +0.000 A 
ATOM      6  C   UNL     1       5.608   5.559  17.647  0.00  0.00    +0.000 A 
ENDROOT
BRANCH   5   7
ATOM      7  N   UNL     1       4.059   3.710  18.212  0.00  0.00    +0.000 N 
ATOM      8  N   UNL     1       4.023   2.349  18.176  0.00  0.00    +0.000 NA
ATOM      9  C   UNL     1       3.223   1.991  19.172  0.00  0.00    +0.000 A 
ATOM     10  C   UNL     1       2.631   3.089  19.812  0.00  0.00    +0.000 A 
ATOM     11  C   UNL     1       3.161   4.196  19.144  0.00  0.00    +0.000 A 
BRANCH  11  12
ATOM     12  C   UNL     1       2.764   5.611  19.290  0.00  0.00    +0.000 C 
ATOM     13  F   UNL     1       1.690   5.818  20.088  0.00  0.00    +0.000 F 
ATOM     14  F   UNL     1       3.758   6.352  19.840  0.00  0.00    +0.000 F 
ATOM     15  F   UNL     1       2.456   6.161  18.089  0.00  0.00    +0.000 F 
ENDBRANCH  11  12
BRANCH  10  16
ATOM     16  C   UNL     1       1.655   3.132  20.891  0.00  0.00    +0.000 C 
ATOM     17  O   UNL     1       1.969   3.210  22.068  0.00  0.00    +0.000 OA
BRANCH  16  18
ATOM     18  O   UNL     1       0.355   3.074  20.515  0.00  0.00    +0.000 OA
ATOM     19  H   UNL     1       0.110   2.332  19.937  0.00  0.00    +0.000 HD
ENDBRANCH  16  18
ENDBRANCH  10  16
ENDBRANCH   5   7
BRANCH   1  22
ATOM     20  O   UNL     1       8.401   6.818  18.797  0.00  0.00    +0.000 OA
ATOM     21  C   UNL     1       7.886   7.665  18.080  0.00  0.00    +0.000 C 
ATOM     22  N   UNL     1       6.973   7.456  17.060  0.00  0.00    +0.000 N 
ATOM     23  H   UNL     1       6.803   8.229  16.428  0.00  0.00    +0.000 HD
BRANCH  21  24
ATOM     24  C   UNL     1       8.316   9.071  18.255  0.00  0.00    +0.000 A 
ATOM     25  C   UNL     1       9.242   9.464  19.223  0.00  0.00    +0.000 A 
ATOM     26  C   UNL     1       9.601  10.808  19.312  0.00  0.00    +0.000 A 
ATOM     27  C   UNL     1       9.021  11.707  18.432  0.00  0.00    +0.000 A 
ATOM     28  N   UNL     1       8.126  11.357  17.481  0.00  0.00    +0.000 NA
ATOM     29  C   UNL     1       7.803  10.042  17.405  0.00  0.00    +0.000 A 
ENDBRANCH  21  24
ENDBRANCH   1  22
TORSDOF 6
ENDMDL
MODEL 6
REMARK VINA RESULT:      -7.8      1.652      2.130
REMARK  Name = 
REMARK  6 active torsions:
REMARK  status: ('A' for Active; 'I' for Inactive)
REMARK    1  A    between atoms: C_2  and  C_22
REMARK    2  A    between atoms: N_3  and  C_4
REMARK    3  A    between atoms: C_8  and  N_9
REMARK    4  A    between atoms: C_12  and  C_13
REMARK    5  A    between atoms: C_13  and  O_15
REMARK    6  A    between atoms: C_16  and  C_17
REMARK                            x       y       z     vdW  Elec       q    Type
REMARK                         _______ _______ _______ _____ _____    ______ ____
ROOT
ATOM      1  C   UNL     1       6.610   6.710  16.910  0.00  0.00    +0.000 A 
ATOM      2  C   UNL     1       7.123   5.853  15.934  0.00  0.00    +0.000 A 
ATOM      3  C   UNL     1       6.483   4.649  15.640  0.00  0.00    +0.000 A 
ATOM      4  C   UNL     1       5.309   4.304  16.301  0.00  0.00    +0.000 A 
ATOM      5  C   UNL     1       4.755   5.172  17.256  0.00  0.00    +0.000 A 
ATOM      6  C   UNL     1       5.439   6.347  17.597  0.00  0.00    +0.000 A 
ENDROOT
BRANCH   5   7
ATOM      7  N   UNL     1       3.513   4.808  17.849  0.00  0.00    +0.000 N 
ATOM      8  N   UNL     1       2.454   5.639  17.643  0.00  0.00    +0.000 NA
ATOM      9  C   UNL     1       1.411   5.022  18.181  0.00  0.00    +0.000 A 
ATOM     10  C   UNL     1       1.765   3.837  18.842  0.00  0.00    +0.000 A 
ATOM     11  C   UNL     1       3.146   3.740  18.645  0.00  0.00    +0.000 A 
BRANCH  11  12
ATOM     12  C   UNL     1       4.078   2.774  19.261  0.00  0.00    +0.000 C 
ATOM     13  F   UNL     1       5.378   3.151  19.240  0.00  0.00    +0.000 F 
ATOM     14  F   UNL     1       3.792   2.572  20.571  0.00  0.00    +0.000 F 
ATOM     15  F   UNL     1       4.021   1.572  18.635  0.00  0.00    +0.000 F 
ENDBRANCH  11  12
BRANCH  10  16
ATOM     16  C   UNL     1       0.947   2.908  19.609  0.00  0.00    +0.000 C 
ATOM     17  O   UNL     1       0.886   2.927  20.827  0.00  0.00    +0.000 OA
BRANCH  16  18
ATOM     18  O   UNL     1       0.249   2.000  18.886  0.00  0.00    +0.000 OA
ATOM     19  H   UNL     1       0.518   1.893  17.958  0.00  0.00    +0.000 HD
ENDBRANCH  16  18
ENDBRANCH  10  16
ENDBRANCH   5   7
BRANCH   1  22
ATOM     20  O   UNL     1       8.618   7.317  19.006  0.00  0.00    +0.000 OA
ATOM     21  C   UNL     1       8.125   8.156  18.266  0.00  0.00    +0.000 C 
ATOM     22  N   UNL     1       7.210   7.942  17.248  0.00  0.00    +0.000 N 
ATOM     23  H   UNL     1       7.060   8.702  16.595  0.00  0.00    +0.000 HD
BRANCH  21  24
ATOM     24  C   UNL     1       8.587   9.557  18.406  0.00  0.00    +0.000 A 
ATOM     25  C   UNL     1       8.234  10.563  17.506  0.00  0.00    +0.000 A 
ATOM     26  C   UNL     1       8.704  11.859  17.719  0.00  0.00    +0.000 A 
ATOM     27  C   UNL     1       9.508  12.097  18.821  0.00  0.00    +0.000 A 
ATOM     28  N   UNL     1       9.863  11.146  19.713  0.00  0.00    +0.000 NA
ATOM     29  C   UNL     1       9.383   9.897  19.492  0.00  0.00    +0.000 A 
ENDBRANCH  21  24
ENDBRANCH   1  22
TORSDOF 6
ENDMDL
MODEL 7
REMARK VINA RESULT:      -7.7      7.685      9.513
REMARK  Name = 
REMARK  6 active torsions:
REMARK  status: ('A' for Active; 'I' for Inactive)
REMARK    1  A    between atoms: C_2  and  C_22
REMARK    2  A    between atoms: N_3  and  C_4
REMARK    3  A    between atoms: C_8  and  N_9
REMARK    4  A    between atoms: C_12  and  C_13
REMARK    5  A    between atoms: C_13  and  O_15
REMARK    6  A    between atoms: C_16  and  C_17
REMARK                            x       y       z     vdW  Elec       q    Type
REMARK                         _______ _______ _______ _____ _____    ______ ____
ROOT
ATOM      1  C   UNL     1       0.756  10.409  18.972  0.00  0.00    +0.000 A 
ATOM      2  C   UNL     1       1.502  11.579  18.817  0.00  0.00    +0.000 A 
ATOM      3  C   UNL     1       0.868  12.801  18.597  0.00  0.00    +0.000 A 
ATOM      4  C   UNL     1      -0.521  12.868  18.556  0.00  0.00    +0.000 A 
ATOM      5  C   UNL     1      -1.289  11.709  18.751  0.00  0.00    +0.000 A 
ATOM      6  C   UNL     1      -0.646  10.474  18.903  0.00  0.00    +0.000 A 
ENDROOT
BRANCH   5   7
ATOM      7  N   UNL     1      -2.707  11.844  18.776  0.00  0.00    +0.000 N 
ATOM      8  N   UNL     1      -3.267  12.347  19.910  0.00  0.00    +0.000 NA
ATOM      9  C   UNL     1      -4.557  12.488  19.634  0.00  0.00    +0.000 A 
ATOM     10  C   UNL     1      -4.897  11.986  18.369  0.00  0.00    +0.000 A 
ATOM     11  C   UNL     1      -3.682  11.537  17.846  0.00  0.00    +0.000 A 
BRANCH  11  12
ATOM     12  C   UNL     1      -3.465  10.765  16.605  0.00  0.00    +0.000 C 
ATOM     13  F   UNL     1      -4.521  10.749  15.758  0.00  0.00    +0.000 F 
ATOM     14  F   UNL     1      -2.438  11.272  15.877  0.00  0.00    +0.000 F 
ATOM     15  F   UNL     1      -3.177   9.468  16.878  0.00  0.00    +0.000 F 
ENDBRANCH  11  12
BRANCH  10  16
ATOM     16  C   UNL     1      -6.195  11.886  17.716  0.00  0.00    +0.000 C 
ATOM     17  O   UNL     1      -6.622  12.737  16.954  0.00  0.00    +0.000 OA
BRANCH  16  18
ATOM     18  O   UNL     1      -6.920  10.780  18.010  0.00  0.00    +0.000 OA
ATOM     19  H   UNL     1      -7.227  10.255  17.252  0.00  0.00    +0.000 HD
ENDBRANCH  16  18
ENDBRANCH  10  16
ENDBRANCH   5   7
BRANCH   1  22
ATOM     20  O   UNL     1       2.441   8.758  17.175  0.00  0.00    +0.000 OA
ATOM     21  C   UNL     1       2.097   8.416  18.297  0.00  0.00    +0.000 C 
ATOM     22  N   UNL     1       1.341   9.144  19.200  0.00  0.00    +0.000 N 
ATOM     23  H   UNL     1       1.319   8.813  20.157  0.00  0.00    +0.000 HD
BRANCH  21  24
ATOM     24  C   UNL     1       2.582   7.109  18.800  0.00  0.00    +0.000 A 
ATOM     25  C   UNL     1       2.056   6.494  19.937  0.00  0.00    +0.000 A 
ATOM     26  C   UNL     1       2.562   5.257  20.334  0.00  0.00    +0.000 A 
ATOM     27  C   UNL     1       3.574   4.684  19.581  0.00  0.00    +0.000 A 
ATOM     28  N   UNL     1       4.100   5.252  18.473  0.00  0.00    +0.000 NA
ATOM     29  C   UNL     1       3.583   6.448  18.098  0.00  0.00    +0.000 A 
ENDBRANCH  21  24
ENDBRANCH   1  22
TORSDOF 6
ENDMDL
MODEL 8
REMARK VINA RESULT:      -7.7      4.068      6.763
REMARK  Name = 
REMARK  6 active torsions:
REMARK  status: ('A' for Active; 'I' for Inactive)
REMARK    1  A    between atoms: C_2  and  C_22
REMARK    2  A    between atoms: N_3  and  C_4
REMARK    3  A    between atoms: C_8  and  N_9
REMARK    4  A    between atoms: C_12  and  C_13
REMARK    5  A    between atoms: C_13  and  O_15
REMARK    6  A    between atoms: C_16  and  C_17
REMARK                            x       y       z     vdW  Elec       q    Type
REMARK                         _______ _______ _______ _____ _____    ______ ____
ROOT
ATOM      1  C   UNL     1       2.181   5.430  20.617  0.00  0.00    +0.000 A 
ATOM      2  C   UNL     1       2.172   4.247  21.357  0.00  0.00    +0.000 A 
ATOM      3  C   UNL     1       2.819   3.108  20.881  0.00  0.00    +0.000 A 
ATOM      4  C   UNL     1       3.505   3.150  19.672  0.00  0.00    +0.000 A 
ATOM      5  C   UNL     1       3.560   4.342  18.933  0.00  0.00    +0.000 A 
ATOM      6  C   UNL     1       2.851   5.464  19.382  0.00  0.00    +0.000 A 
ENDROOT
BRANCH   5   7
ATOM      7  N   UNL     1       4.339   4.354  17.741  0.00  0.00    +0.000 N 
ATOM      8  N   UNL     1       3.814   3.742  16.644  0.00  0.00    +0.000 NA
ATOM      9  C   UNL     1       4.661   4.000  15.656  0.00  0.00    +0.000 A 
ATOM     10  C   UNL     1       5.805   4.685  16.090  0.00  0.00    +0.000 A 
ATOM     11  C   UNL     1       5.590   4.869  17.458  0.00  0.00    +0.000 A 
BRANCH  11  12
ATOM     12  C   UNL     1       6.545   5.390  18.459  0.00  0.00    +0.000 C 
ATOM     13  F   UNL     1       7.772   4.821  18.417  0.00  0.00    +0.000 F 
ATOM     14  F   UNL     1       6.767   6.718  18.289  0.00  0.00    +0.000 F 
ATOM     15  F   UNL     1       6.082   5.206  19.720  0.00  0.00    +0.000 F 
ENDBRANCH  11  12
BRANCH  10  16
ATOM     16  C   UNL     1       6.991   5.096  15.351  0.00  0.00    +0.000 C 
ATOM     17  O   UNL     1       7.667   6.061  15.666  0.00  0.00    +0.000 OA
BRANCH  16  18
ATOM     18  O   UNL     1       7.305   4.340  14.272  0.00  0.00    +0.000 OA
ATOM     19  H   UNL     1       7.468   3.397  14.442  0.00  0.00    +0.000 HD
ENDBRANCH  16  18
ENDBRANCH  10  16
ENDBRANCH   5   7
BRANCH   1  22
ATOM     20  O   UNL     1       2.132   8.111  19.350  0.00  0.00    +0.000 OA
ATOM     21  C   UNL     1       1.592   7.847  20.415  0.00  0.00    +0.000 C 
ATOM     22  N   UNL     1       1.547   6.616  21.048  0.00  0.00    +0.000 N 
ATOM     23  H   UNL     1       0.889   6.514  21.811  0.00  0.00    +0.000 HD
BRANCH  21  24
ATOM     24  C   UNL     1       0.840   8.927  21.094  0.00  0.00    +0.000 A 
ATOM     25  C   UNL     1       0.012   9.818  20.410  0.00  0.00    +0.000 A 
ATOM     26  C   UNL     1      -0.670  10.799  21.129  0.00  0.00    +0.000 A 
ATOM     27  C   UNL     1      -0.496  10.853  22.503  0.00  0.00    +0.000 A 
ATOM     28  N   UNL     1       0.295  10.002  23.194  0.00  0.00    +0.000 NA
ATOM     29  C   UNL     1       0.937   9.048  22.475  0.00  0.00    +0.000 A 
ENDBRANCH  21  24
ENDBRANCH   1  22
TORSDOF 6
ENDMDL
MODEL 9
REMARK VINA RESULT:      -7.7      1.079      1.326
REMARK  Name = 
REMARK  6 active torsions:
REMARK  status: ('A' for Active; 'I' for Inactive)
REMARK    1  A    between atoms: C_2  and  C_22
REMARK    2  A    between atoms: N_3  and  C_4
REMARK    3  A    between atoms: C_8  and  N_9
REMARK    4  A    between atoms: C_12  and  C_13
REMARK    5  A    between atoms: C_13  and  O_15
REMARK    6  A    between atoms: C_16  and  C_17
REMARK                            x       y       z     vdW  Elec       q    Type
REMARK                         _______ _______ _______ _____ _____    ______ ____
ROOT
ATOM      1  C   UNL     1       7.311   6.475  17.744  0.00  0.00    +0.000 A 
ATOM      2  C   UNL     1       7.333   6.097  16.401  0.00  0.00    +0.000 A 
ATOM      3  C   UNL     1       6.579   5.012  15.956  0.00  0.00    +0.000 A 
ATOM      4  C   UNL     1       5.775   4.311  16.847  0.00  0.00    +0.000 A 
ATOM      5  C   UNL     1       5.707   4.700  18.195  0.00  0.00    +0.000 A 
ATOM      6  C   UNL     1       6.519   5.748  18.650  0.00  0.00    +0.000 A 
ENDROOT
BRANCH   5   7
ATOM      7  N   UNL     1       4.811   3.998  19.049  0.00  0.00    +0.000 N 
ATOM      8  N   UNL     1       5.210   2.782  19.512  0.00  0.00    +0.000 NA
ATOM      9  C   UNL     1       4.271   2.404  20.369  0.00  0.00    +0.000 A 
ATOM     10  C   UNL     1       3.188   3.295  20.413  0.00  0.00    +0.000 A 
ATOM     11  C   UNL     1       3.546   4.305  19.515  0.00  0.00    +0.000 A 
BRANCH  11  12
ATOM     12  C   UNL     1       2.708   5.423  19.036  0.00  0.00    +0.000 C 
ATOM     13  F   UNL     1       3.380   6.384  18.361  0.00  0.00    +0.000 F 
ATOM     14  F   UNL     1       1.750   4.995  18.176  0.00  0.00    +0.000 F 
ATOM     15  F   UNL     1       2.087   6.047  20.068  0.00  0.00    +0.000 F 
ENDBRANCH  11  12
BRANCH  10  16
ATOM     16  C   UNL     1       1.940   3.221  21.158  0.00  0.00    +0.000 C 
ATOM     17  O   UNL     1       1.894   3.215  22.377  0.00  0.00    +0.000 OA
BRANCH  16  18
ATOM     18  O   UNL     1       0.811   3.149  20.413  0.00  0.00    +0.000 OA
ATOM     19  H   UNL     1      -0.016   3.383  20.867  0.00  0.00    +0.000 HD
ENDBRANCH  16  18
ENDBRANCH  10  16
ENDBRANCH   5   7
BRANCH   1  22
ATOM     20  O   UNL     1       7.101   9.361  17.094  0.00  0.00    +0.000 OA
ATOM     21  C   UNL     1       7.914   8.892  17.878  0.00  0.00    +0.000 C 
ATOM     22  N   UNL     1       8.049   7.566  18.253  0.00  0.00    +0.000 N 
ATOM     23  H   UNL     1       8.627   7.372  19.062  0.00  0.00    +0.000 HD
BRANCH  21  24
ATOM     24  C   UNL     1       8.828   9.833  18.568  0.00  0.00    +0.000 A 
ATOM     25  C   UNL     1       8.936   9.898  19.958  0.00  0.00    +0.000 A 
ATOM     26  C   UNL     1       9.830  10.804  20.526  0.00  0.00    +0.000 A 
ATOM     27  C   UNL     1      10.579  11.610  19.684  0.00  0.00    +0.000 A 
ATOM     28  N   UNL     1      10.501  11.567  18.336  0.00  0.00    +0.000 NA
ATOM     29  C   UNL     1       9.634  10.668  17.806  0.00  0.00    +0.000 A 
ENDBRANCH  21  24
ENDBRANCH   1  22
TORSDOF 6
ENDMDL
