MODEL 1
REMARK VINA RESULT:      -8.3      0.000      0.000
REMARK  Name = 
REMARK  8 active torsions:
REMARK  status: ('A' for Active; 'I' for Inactive)
REMARK    1  A    between atoms: C_1  and  N_2
REMARK    2  A    between atoms: C_6  and  C_7
REMARK    3  A    between atoms: C_7  and  C_8
REMARK    4  A    between atoms: C_8  and  C_10
REMARK    5  A    between atoms: C_14  and  N_15
REMARK    6  A    between atoms: C_20  and  C_21
REMARK    7  A    between atoms: C_21  and  N_22
REMARK    8  A    between atoms: C_24  and  C_25
REMARK                            x       y       z     vdW  Elec       q    Type
REMARK                         _______ _______ _______ _____ _____    ______ ____
ROOT
ATOM      1  N   UNL     1       2.652   7.734  19.249  0.00  0.00    +0.000 N 
ATOM      2  C   UNL     1       2.329   8.534  20.457  0.00  0.00    +0.000 C 
ATOM      3  C   UNL     1       1.104   9.278  20.014  0.00  0.00    +0.000 A 
ATOM      4  C   UNL     1       1.204   9.438  18.629  0.00  0.00    +0.000 A 
ATOM      5  C   UNL     1       0.170   9.909  17.842  0.00  0.00    +0.000 A 
ATOM      6  C   UNL     1      -1.043  10.207  18.472  0.00  0.00    +0.000 A 
ATOM      7  C   UNL     1      -1.159  10.027  19.875  0.00  0.00    +0.000 A 
ATOM      8  C   UNL     1      -0.087   9.559  20.676  0.00  0.00    +0.000 A 
ATOM      9  C   UNL     1       2.314   8.571  18.155  0.00  0.00    +0.000 C 
ATOM     10  O   UNL     1       2.660   8.481  16.989  0.00  0.00    +0.000 OA
ENDROOT
BRANCH   1  15
ATOM     11  C   UNL     1       2.433   4.178  18.645  0.00  0.00    +0.000 A 
ATOM     12  C   UNL     1       2.160   3.756  19.955  0.00  0.00    +0.000 A 
ATOM     13  C   UNL     1       1.605   4.641  20.868  0.00  0.00    +0.000 A 
ATOM     14  C   UNL     1       1.452   5.984  20.527  0.00  0.00    +0.000 A 
ATOM     15  C   UNL     1       1.961   6.444  19.295  0.00  0.00    +0.000 A 
ATOM     16  C   UNL     1       2.272   5.519  18.293  0.00  0.00    +0.000 A 
BRANCH  11  17
ATOM     17  C   UNL     1       3.096   3.228  17.721  0.00  0.00    +0.000 C 
ATOM     18  O   UNL     1       2.803   2.036  17.781  0.00  0.00    +0.000 OA
BRANCH  17  19
ATOM     19  C   UNL     1       4.093   3.755  16.719  0.00  0.00    +0.000 C 
BRANCH  19  25
ATOM     20  C   UNL     1       6.818   4.502  15.243  0.00  0.00    +0.000 C 
ATOM     21  N   UNL     1       6.564   4.436  16.657  0.00  0.00    +0.000 N 
ATOM     22  C   UNL     1       7.467   4.756  17.625  0.00  0.00    +0.000 A 
ATOM     23  N   UNL     1       6.940   4.537  18.808  0.00  0.00    +0.000 NA
ATOM     24  N   UNL     1       5.657   4.095  18.613  0.00  0.00    +0.000 NA
ATOM     25  C   UNL     1       5.417   4.058  17.314  0.00  0.00    +0.000 A 
ENDBRANCH  19  25
ENDBRANCH  17  19
ENDBRANCH  11  17
ENDBRANCH   1  15
BRANCH   8  26
ATOM     26  C   UNL     1      -0.333   9.271  22.131  0.00  0.00    +0.000 C 
ATOM     27  F   UNL     1       0.795   9.192  22.883  0.00  0.00    +0.000 F 
ATOM     28  F   UNL     1      -1.090  10.239  22.722  0.00  0.00    +0.000 F 
ATOM     29  F   UNL     1      -1.002   8.097  22.332  0.00  0.00    +0.000 F 
ENDBRANCH   8  26
BRANCH   6  30
ATOM     30  C   UNL     1      -2.250  10.579  17.652  0.00  0.00    +0.000 C 
BRANCH  30  31
ATOM     31  N   UNL     1      -1.940  11.658  16.720  0.00  0.00    +0.000 NA
ATOM     32  H   UNL     1      -1.018  11.497  16.317  0.00  0.00    +0.000 HD
ATOM     33  H   UNL     1      -1.871  12.534  17.236  0.00  0.00    +0.000 HD
ENDBRANCH  30  31
ENDBRANCH   6  30
TORSDOF 7
ENDMDL
MODEL 2
REMARK VINA RESULT:      -8.3      3.574      8.131
REMARK  Name = 
REMARK  8 active torsions:
REMARK  status: ('A' for Active; 'I' for Inactive)
REMARK    1  A    between atoms: C_1  and  N_2
REMARK    2  A    between atoms: C_6  and  C_7
REMARK    3  A    between atoms: C_7  and  C_8
REMARK    4  A    between atoms: C_8  and  C_10
REMARK    5  A    between atoms: C_14  and  N_15
REMARK    6  A    between atoms: C_20  and  C_21
REMARK    7  A    between atoms: C_21  and  N_22
REMARK    8  A    between atoms: C_24  and  C_25
REMARK                            x       y       z     vdW  Elec       q    Type
REMARK                         _______ _______ _______ _____ _____    ______ ____
ROOT
ATOM      1  N   UNL     1       4.170   4.429  18.914  0.00  0.00    +0.000 N 
ATOM      2  C   UNL     1       5.510   5.022  19.159  0.00  0.00    +0.000 C 
ATOM      3  C   UNL     1       6.132   4.945  17.797  0.00  0.00    +0.000 A 
ATOM      4  C   UNL     1       5.559   3.848  17.149  0.00  0.00    +0.000 A 
ATOM      5  C   UNL     1       5.746   3.577  15.806  0.00  0.00    +0.000 A 
ATOM      6  C   UNL     1       6.526   4.470  15.064  0.00  0.00    +0.000 A 
ATOM      7  C   UNL     1       7.094   5.598  15.711  0.00  0.00    +0.000 A 
ATOM      8  C   UNL     1       6.910   5.859  17.093  0.00  0.00    +0.000 A 
ATOM      9  C   UNL     1       4.393   3.407  17.957  0.00  0.00    +0.000 C 
ATOM     10  O   UNL     1       3.673   2.468  17.662  0.00  0.00    +0.000 OA
ENDROOT
BRANCH   1  15
ATOM     11  C   UNL     1       1.991   7.227  19.606  0.00  0.00    +0.000 A 
ATOM     12  C   UNL     1       2.544   8.154  18.710  0.00  0.00    +0.000 A 
ATOM     13  C   UNL     1       3.270   7.713  17.613  0.00  0.00    +0.000 A 
ATOM     14  C   UNL     1       3.570   6.358  17.480  0.00  0.00    +0.000 A 
ATOM     15  C   UNL     1       3.220   5.470  18.518  0.00  0.00    +0.000 A 
ATOM     16  C   UNL     1       2.277   5.868  19.472  0.00  0.00    +0.000 A 
BRANCH  11  17
ATOM     17  C   UNL     1       1.289   7.738  20.806  0.00  0.00    +0.000 C 
ATOM     18  O   UNL     1       0.295   7.141  21.215  0.00  0.00    +0.000 OA
BRANCH  17  19
ATOM     19  C   UNL     1       1.828   8.961  21.506  0.00  0.00    +0.000 C 
BRANCH  19  25
ATOM     20  C   UNL     1       0.064  11.058  19.878  0.00  0.00    +0.000 C 
ATOM     21  N   UNL     1      -0.023  10.719  21.273  0.00  0.00    +0.000 N 
ATOM     22  C   UNL     1      -0.951  11.216  22.138  0.00  0.00    +0.000 A 
ATOM     23  N   UNL     1      -0.722  10.749  23.344  0.00  0.00    +0.000 NA
ATOM     24  N   UNL     1       0.357   9.906  23.263  0.00  0.00    +0.000 NA
ATOM     25  C   UNL     1       0.765   9.865  22.007  0.00  0.00    +0.000 A 
ENDBRANCH  19  25
ENDBRANCH  17  19
ENDBRANCH  11  17
ENDBRANCH   1  15
BRANCH   8  26
ATOM     26  C   UNL     1       7.436   7.144  17.670  0.00  0.00    +0.000 C 
ATOM     27  F   UNL     1       6.472   8.034  18.018  0.00  0.00    +0.000 F 
ATOM     28  F   UNL     1       8.157   6.933  18.809  0.00  0.00    +0.000 F 
ATOM     29  F   UNL     1       8.270   7.806  16.815  0.00  0.00    +0.000 F 
ENDBRANCH   8  26
BRANCH   6  30
ATOM     30  C   UNL     1       6.642   4.313  13.571  0.00  0.00    +0.000 C 
BRANCH  30  31
ATOM     31  N   UNL     1       5.935   3.121  13.112  0.00  0.00    +0.000 NA
ATOM     32  H   UNL     1       6.220   2.324  13.680  0.00  0.00    +0.000 HD
ATOM     33  H   UNL     1       6.229   2.907  12.160  0.00  0.00    +0.000 HD
ENDBRANCH  30  31
ENDBRANCH   6  30
TORSDOF 7
ENDMDL
MODEL 3
REMARK VINA RESULT:      -8.1      3.601      8.155
REMARK  Name = 
REMARK  8 active torsions:
REMARK  status: ('A' for Active; 'I' for Inactive)
REMARK    1  A    between atoms: C_1  and  N_2
REMARK    2  A    between atoms: C_6  and  C_7
REMARK    3  A    between atoms: C_7  and  C_8
REMARK    4  A    between atoms: C_8  and  C_10
REMARK    5  A    between atoms: C_14  and  N_15
REMARK    6  A    between atoms: C_20  and  C_21
REMARK    7  A    between atoms: C_21  and  N_22
REMARK    8  A    between atoms: C_24  and  C_25
REMARK                            x       y       z     vdW  Elec       q    Type
REMARK                         _______ _______ _______ _____ _____    ______ ____
ROOT
ATOM      1  N   UNL     1       3.644   4.711  19.349  0.00  0.00    +0.000 N 
ATOM      2  C   UNL     1       5.044   5.207  19.392  0.00  0.00    +0.000 C 
ATOM      3  C   UNL     1       5.486   4.996  17.974  0.00  0.00    +0.000 A 
ATOM      4  C   UNL     1       4.757   3.912  17.477  0.00  0.00    +0.000 A 
ATOM      5  C   UNL     1       4.756   3.546  16.143  0.00  0.00    +0.000 A 
ATOM      6  C   UNL     1       5.503   4.326  15.254  0.00  0.00    +0.000 A 
ATOM      7  C   UNL     1       6.228   5.440  15.748  0.00  0.00    +0.000 A 
ATOM      8  C   UNL     1       6.236   5.799  17.120  0.00  0.00    +0.000 A 
ATOM      9  C   UNL     1       3.671   3.619  18.446  0.00  0.00    +0.000 C 
ATOM     10  O   UNL     1       2.852   2.725  18.305  0.00  0.00    +0.000 OA
ENDROOT
BRANCH   1  15
ATOM     11  C   UNL     1       1.810   7.737  20.085  0.00  0.00    +0.000 A 
ATOM     12  C   UNL     1       2.302   8.542  19.046  0.00  0.00    +0.000 A 
ATOM     13  C   UNL     1       2.828   7.956  17.904  0.00  0.00    +0.000 A 
ATOM     14  C   UNL     1       3.000   6.574  17.848  0.00  0.00    +0.000 A 
ATOM     15  C   UNL     1       2.731   5.801  18.997  0.00  0.00    +0.000 A 
ATOM     16  C   UNL     1       1.968   6.351  20.031  0.00  0.00    +0.000 A 
BRANCH  11  17
ATOM     17  C   UNL     1       1.327   8.396  21.321  0.00  0.00    +0.000 C 
ATOM     18  O   UNL     1       2.135   8.664  22.208  0.00  0.00    +0.000 OA
BRANCH  17  19
ATOM     19  C   UNL     1      -0.136   8.742  21.443  0.00  0.00    +0.000 C 
BRANCH  19  25
ATOM     20  C   UNL     1      -0.763  11.268  19.603  0.00  0.00    +0.000 C 
ATOM     21  N   UNL     1      -0.701  11.209  21.039  0.00  0.00    +0.000 N 
ATOM     22  C   UNL     1      -0.973  12.252  21.873  0.00  0.00    +0.000 A 
ATOM     23  N   UNL     1      -0.773  11.883  23.117  0.00  0.00    +0.000 NA
ATOM     24  N   UNL     1      -0.392  10.566  23.102  0.00  0.00    +0.000 NA
ATOM     25  C   UNL     1      -0.374  10.148  21.849  0.00  0.00    +0.000 A 
ENDBRANCH  19  25
ENDBRANCH  17  19
ENDBRANCH  11  17
ENDBRANCH   1  15
BRANCH   8  26
ATOM     26  C   UNL     1       6.923   7.069  17.540  0.00  0.00    +0.000 C 
ATOM     27  F   UNL     1       6.085   8.120  17.728  0.00  0.00    +0.000 F 
ATOM     28  F   UNL     1       7.585   6.923  18.724  0.00  0.00    +0.000 F 
ATOM     29  F   UNL     1       7.858   7.488  16.638  0.00  0.00    +0.000 F 
ENDBRANCH   8  26
BRANCH   6  30
ATOM     30  C   UNL     1       5.421   4.070  13.773  0.00  0.00    +0.000 C 
BRANCH  30  31
ATOM     31  N   UNL     1       6.523   3.224  13.324  0.00  0.00    +0.000 NA
ATOM     32  H   UNL     1       6.627   2.441  13.970  0.00  0.00    +0.000 HD
ATOM     33  H   UNL     1       7.392   3.752  13.381  0.00  0.00    +0.000 HD
ENDBRANCH  30  31
ENDBRANCH   6  30
TORSDOF 7
ENDMDL
MODEL 4
REMARK VINA RESULT:      -8.1      3.589      8.065
REMARK  Name = 
REMARK  8 active torsions:
REMARK  status: ('A' for Active; 'I' for Inactive)
REMARK    1  A    between atoms: C_1  and  N_2
REMARK    2  A    between atoms: C_6  and  C_7
REMARK    3  A    between atoms: C_7  and  C_8
REMARK    4  A    between atoms: C_8  and  C_10
REMARK    5  A    between atoms: C_14  and  N_15
REMARK    6  A    between atoms: C_20  and  C_21
REMARK    7  A    between atoms: C_21  and  N_22
REMARK    8  A    between atoms: C_24  and  C_25
REMARK                            x       y       z     vdW  Elec       q    Type
REMARK                         _______ _______ _______ _____ _____    ______ ____
ROOT
ATOM      1  N   UNL     1       3.968   4.814  19.140  0.00  0.00    +0.000 N 
ATOM      2  C   UNL     1       5.328   5.377  19.345  0.00  0.00    +0.000 C 
ATOM      3  C   UNL     1       5.960   5.145  18.006  0.00  0.00    +0.000 A 
ATOM      4  C   UNL     1       5.350   4.013  17.457  0.00  0.00    +0.000 A 
ATOM      5  C   UNL     1       5.540   3.607  16.150  0.00  0.00    +0.000 A 
ATOM      6  C   UNL     1       6.362   4.394  15.337  0.00  0.00    +0.000 A 
ATOM      7  C   UNL     1       6.967   5.556  15.879  0.00  0.00    +0.000 A 
ATOM      8  C   UNL     1       6.781   5.956  17.227  0.00  0.00    +0.000 A 
ATOM      9  C   UNL     1       4.160   3.697  18.288  0.00  0.00    +0.000 C 
ATOM     10  O   UNL     1       3.406   2.762  18.074  0.00  0.00    +0.000 OA
ENDROOT
BRANCH   1  15
ATOM     11  C   UNL     1       1.965   7.799  19.509  0.00  0.00    +0.000 A 
ATOM     12  C   UNL     1       2.540   8.569  18.486  0.00  0.00    +0.000 A 
ATOM     13  C   UNL     1       3.206   7.948  17.440  0.00  0.00    +0.000 A 
ATOM     14  C   UNL     1       3.429   6.572  17.479  0.00  0.00    +0.000 A 
ATOM     15  C   UNL     1       3.063   5.848  18.633  0.00  0.00    +0.000 A 
ATOM     16  C   UNL     1       2.174   6.420  19.548  0.00  0.00    +0.000 A 
BRANCH  11  17
ATOM     17  C   UNL     1       1.329   8.501  20.648  0.00  0.00    +0.000 C 
ATOM     18  O   UNL     1       1.778   8.331  21.780  0.00  0.00    +0.000 OA
BRANCH  17  19
ATOM     19  C   UNL     1       0.165   9.423  20.382  0.00  0.00    +0.000 C 
BRANCH  19  25
ATOM     20  C   UNL     1       1.485  11.843  18.783  0.00  0.00    +0.000 C 
ATOM     21  N   UNL     1       0.922  11.856  20.106  0.00  0.00    +0.000 N 
ATOM     22  C   UNL     1       0.804  12.964  20.890  0.00  0.00    +0.000 A 
ATOM     23  N   UNL     1       0.299  12.627  22.055  0.00  0.00    +0.000 NA
ATOM     24  N   UNL     1       0.054  11.279  22.024  0.00  0.00    +0.000 NA
ATOM     25  C   UNL     1       0.404  10.814  20.837  0.00  0.00    +0.000 A 
ENDBRANCH  19  25
ENDBRANCH  17  19
ENDBRANCH  11  17
ENDBRANCH   1  15
BRANCH   8  26
ATOM     26  C   UNL     1       7.350   7.269  17.686  0.00  0.00    +0.000 C 
ATOM     27  F   UNL     1       8.063   7.196  18.839  0.00  0.00    +0.000 F 
ATOM     28  F   UNL     1       8.208   7.801  16.768  0.00  0.00    +0.000 F 
ATOM     29  F   UNL     1       6.390   8.218  17.895  0.00  0.00    +0.000 F 
ENDBRANCH   8  26
BRANCH   6  30
ATOM     30  C   UNL     1       6.487   4.089  13.867  0.00  0.00    +0.000 C 
BRANCH  30  31
ATOM     31  N   UNL     1       7.379   5.037  13.208  0.00  0.00    +0.000 NA
ATOM     32  H   UNL     1       6.860   5.537  12.487  0.00  0.00    +0.000 HD
ATOM     33  H   UNL     1       8.110   4.522  12.720  0.00  0.00    +0.000 HD
ENDBRANCH  30  31
ENDBRANCH   6  30
TORSDOF 7
ENDMDL
MODEL 5
REMARK VINA RESULT:      -7.9      4.471      7.429
REMARK  Name = 
REMARK  8 active torsions:
REMARK  status: ('A' for Active; 'I' for Inactive)
REMARK    1  A    between atoms: C_1  and  N_2
REMARK    2  A    between atoms: C_6  and  C_7
REMARK    3  A    between atoms: C_7  and  C_8
REMARK    4  A    between atoms: C_8  and  C_10
REMARK    5  A    between atoms: C_14  and  N_15
REMARK    6  A    between atoms: C_20  and  C_21
REMARK    7  A    between atoms: C_21  and  N_22
REMARK    8  A    between atoms: C_24  and  C_25
REMARK                            x       y       z     vdW  Elec       q    Type
REMARK                         _______ _______ _______ _____ _____    ______ ____
ROOT
ATOM      1  N   UNL     1       6.193   5.494  15.415  0.00  0.00    +0.000 N 
ATOM      2  C   UNL     1       5.003   6.330  15.717  0.00  0.00    +0.000 C 
ATOM      3  C   UNL     1       4.217   5.428  16.621  0.00  0.00    +0.000 A 
ATOM      4  C   UNL     1       4.529   4.114  16.258  0.00  0.00    +0.000 A 
ATOM      5  C   UNL     1       4.142   3.011  16.995  0.00  0.00    +0.000 A 
ATOM      6  C   UNL     1       3.429   3.235  18.177  0.00  0.00    +0.000 A 
ATOM      7  C   UNL     1       3.127   4.566  18.564  0.00  0.00    +0.000 A 
ATOM      8  C   UNL     1       3.513   5.692  17.792  0.00  0.00    +0.000 A 
ATOM      9  C   UNL     1       5.699   4.167  15.345  0.00  0.00    +0.000 C 
ATOM     10  O   UNL     1       6.222   3.184  14.847  0.00  0.00    +0.000 OA
ENDROOT
BRANCH   1  15
ATOM     11  C   UNL     1       7.925   7.531  17.846  0.00  0.00    +0.000 A 
ATOM     12  C   UNL     1       7.822   6.675  18.953  0.00  0.00    +0.000 A 
ATOM     13  C   UNL     1       7.622   5.315  18.764  0.00  0.00    +0.000 A 
ATOM     14  C   UNL     1       7.381   4.822  17.483  0.00  0.00    +0.000 A 
ATOM     15  C   UNL     1       7.241   5.727  16.411  0.00  0.00    +0.000 A 
ATOM     16  C   UNL     1       7.698   7.041  16.559  0.00  0.00    +0.000 A 
BRANCH  11  17
ATOM     17  C   UNL     1       8.062   8.986  18.089  0.00  0.00    +0.000 C 
ATOM     18  O   UNL     1       7.367   9.766  17.441  0.00  0.00    +0.000 OA
BRANCH  17  19
ATOM     19  C   UNL     1       9.031   9.465  19.140  0.00  0.00    +0.000 C 
BRANCH  19  25
ATOM     20  C   UNL     1       9.130  11.948  21.136  0.00  0.00    +0.000 C 
ATOM     21  N   UNL     1       9.622  11.874  19.787  0.00  0.00    +0.000 N 
ATOM     22  C   UNL     1      10.290  12.874  19.146  0.00  0.00    +0.000 A 
ATOM     23  N   UNL     1      10.553  12.508  17.913  0.00  0.00    +0.000 NA
ATOM     24  N   UNL     1      10.076  11.233  17.750  0.00  0.00    +0.000 NA
ATOM     25  C   UNL     1       9.536  10.837  18.889  0.00  0.00    +0.000 A 
ENDBRANCH  19  25
ENDBRANCH  17  19
ENDBRANCH  11  17
ENDBRANCH   1  15
BRANCH   8  26
ATOM     26  C   UNL     1       3.270   7.071  18.338  0.00  0.00    +0.000 C 
ATOM     27  F   UNL     1       4.275   7.952  18.099  0.00  0.00    +0.000 F 
ATOM     28  F   UNL     1       2.156   7.644  17.798  0.00  0.00    +0.000 F 
ATOM     29  F   UNL     1       3.076   7.078  19.690  0.00  0.00    +0.000 F 
ENDBRANCH   8  26
BRANCH   6  30
ATOM     30  C   UNL     1       3.112   2.087  19.098  0.00  0.00    +0.000 C 
BRANCH  30  31
ATOM     31  N   UNL     1       1.736   1.633  18.918  0.00  0.00    +0.000 NA
ATOM     32  H   UNL     1       1.519   0.936  19.629  0.00  0.00    +0.000 HD
ATOM     33  H   UNL     1       1.659   1.153  18.022  0.00  0.00    +0.000 HD
ENDBRANCH  30  31
ENDBRANCH   6  30
TORSDOF 7
ENDMDL
MODEL 6
REMARK VINA RESULT:      -7.9      0.918      1.484
REMARK  Name = 
REMARK  8 active torsions:
REMARK  status: ('A' for Active; 'I' for Inactive)
REMARK    1  A    between atoms: C_1  and  N_2
REMARK    2  A    between atoms: C_6  and  C_7
REMARK    3  A    between atoms: C_7  and  C_8
REMARK    4  A    between atoms: C_8  and  C_10
REMARK    5  A    between atoms: C_14  and  N_15
REMARK    6  A    between atoms: C_20  and  C_21
REMARK    7  A    between atoms: C_21  and  N_22
REMARK    8  A    between atoms: C_24  and  C_25
REMARK                            x       y       z     vdW  Elec       q    Type
REMARK                         _______ _______ _______ _____ _____    ______ ____
ROOT
ATOM      1  N   UNL     1       2.646   7.756  19.325  0.00  0.00    +0.000 N 
ATOM      2  C   UNL     1       2.300   8.570  20.518  0.00  0.00    +0.000 C 
ATOM      3  C   UNL     1       1.082   9.305  20.044  0.00  0.00    +0.000 A 
ATOM      4  C   UNL     1       1.205   9.448  18.659  0.00  0.00    +0.000 A 
ATOM      5  C   UNL     1       0.182   9.907  17.850  0.00  0.00    +0.000 A 
ATOM      6  C   UNL     1      -1.041  10.211  18.456  0.00  0.00    +0.000 A 
ATOM      7  C   UNL     1      -1.180  10.048  19.858  0.00  0.00    +0.000 A 
ATOM      8  C   UNL     1      -0.120   9.593  20.683  0.00  0.00    +0.000 A 
ATOM      9  C   UNL     1       2.324   8.578  18.216  0.00  0.00    +0.000 C 
ATOM     10  O   UNL     1       2.690   8.473  17.056  0.00  0.00    +0.000 OA
ENDROOT
BRANCH   1  15
ATOM     11  C   UNL     1       2.337   4.240  18.549  0.00  0.00    +0.000 A 
ATOM     12  C   UNL     1       2.212   3.744  19.855  0.00  0.00    +0.000 A 
ATOM     13  C   UNL     1       1.770   4.575  20.875  0.00  0.00    +0.000 A 
ATOM     14  C   UNL     1       1.588   5.935  20.631  0.00  0.00    +0.000 A 
ATOM     15  C   UNL     1       1.956   6.465  19.377  0.00  0.00    +0.000 A 
ATOM     16  C   UNL     1       2.145   5.598  18.295  0.00  0.00    +0.000 A 
BRANCH  11  17
ATOM     17  C   UNL     1       2.885   3.344  17.504  0.00  0.00    +0.000 C 
ATOM     18  O   UNL     1       2.108   2.670  16.829  0.00  0.00    +0.000 OA
BRANCH  17  19
ATOM     19  C   UNL     1       4.376   3.305  17.280  0.00  0.00    +0.000 C 
BRANCH  19  25
ATOM     20  C   UNL     1       5.865   5.294  19.277  0.00  0.00    +0.000 C 
ATOM     21  N   UNL     1       5.652   5.451  17.863  0.00  0.00    +0.000 N 
ATOM     22  C   UNL     1       6.126   6.486  17.114  0.00  0.00    +0.000 A 
ATOM     23  N   UNL     1       5.711   6.358  15.875  0.00  0.00    +0.000 NA
ATOM     24  N   UNL     1       4.977   5.202  15.802  0.00  0.00    +0.000 NA
ATOM     25  C   UNL     1       4.962   4.637  16.996  0.00  0.00    +0.000 A 
ENDBRANCH  19  25
ENDBRANCH  17  19
ENDBRANCH  11  17
ENDBRANCH   1  15
BRANCH   8  26
ATOM     26  C   UNL     1      -0.390   9.322  22.137  0.00  0.00    +0.000 C 
ATOM     27  F   UNL     1      -1.245  10.201  22.719  0.00  0.00    +0.000 F 
ATOM     28  F   UNL     1      -0.951   8.094  22.332  0.00  0.00    +0.000 F 
ATOM     29  F   UNL     1       0.744   9.340  22.898  0.00  0.00    +0.000 F 
ENDBRANCH   8  26
BRANCH   6  30
ATOM     30  C   UNL     1      -2.235  10.569  17.611  0.00  0.00    +0.000 C 
BRANCH  30  31
ATOM     31  N   UNL     1      -2.357  12.015  17.460  0.00  0.00    +0.000 NA
ATOM     32  H   UNL     1      -2.515  12.236  16.477  0.00  0.00    +0.000 HD
ATOM     33  H   UNL     1      -1.469  12.451  17.706  0.00  0.00    +0.000 HD
ENDBRANCH  30  31
ENDBRANCH   6  30
TORSDOF 7
ENDMDL
MODEL 7
REMARK VINA RESULT:      -7.9      3.493      8.206
REMARK  Name = 
REMARK  8 active torsions:
REMARK  status: ('A' for Active; 'I' for Inactive)
REMARK    1  A    between atoms: C_1  and  N_2
REMARK    2  A    between atoms: C_6  and  C_7
REMARK    3  A    between atoms: C_7  and  C_8
REMARK    4  A    between atoms: C_8  and  C_10
REMARK    5  A    between atoms: C_14  and  N_15
REMARK    6  A    between atoms: C_20  and  C_21
REMARK    7  A    between atoms: C_21  and  N_22
REMARK    8  A    between atoms: C_24  and  C_25
REMARK                            x       y       z     vdW  Elec       q    Type
REMARK                         _______ _______ _______ _____ _____    ______ ____
ROOT
ATOM      1  N   UNL     1       3.947   4.828  19.167  0.00  0.00    +0.000 N 
ATOM      2  C   UNL     1       5.309   5.388  19.361  0.00  0.00    +0.000 C 
ATOM      3  C   UNL     1       5.930   5.156  18.015  0.00  0.00    +0.000 A 
ATOM      4  C   UNL     1       5.313   4.026  17.471  0.00  0.00    +0.000 A 
ATOM      5  C   UNL     1       5.490   3.621  16.161  0.00  0.00    +0.000 A 
ATOM      6  C   UNL     1       6.307   4.407  15.342  0.00  0.00    +0.000 A 
ATOM      7  C   UNL     1       6.919   5.568  15.881  0.00  0.00    +0.000 A 
ATOM      8  C   UNL     1       6.745   5.967  17.231  0.00  0.00    +0.000 A 
ATOM      9  C   UNL     1       4.130   3.711  18.312  0.00  0.00    +0.000 C 
ATOM     10  O   UNL     1       3.373   2.778  18.104  0.00  0.00    +0.000 OA
ENDROOT
BRANCH   1  15
ATOM     11  C   UNL     1       1.919   7.791  19.568  0.00  0.00    +0.000 A 
ATOM     12  C   UNL     1       2.497   8.583  18.565  0.00  0.00    +0.000 A 
ATOM     13  C   UNL     1       3.179   7.985  17.514  0.00  0.00    +0.000 A 
ATOM     14  C   UNL     1       3.411   6.611  17.532  0.00  0.00    +0.000 A 
ATOM     15  C   UNL     1       3.040   5.864  18.669  0.00  0.00    +0.000 A 
ATOM     16  C   UNL     1       2.137   6.413  19.585  0.00  0.00    +0.000 A 
BRANCH  11  17
ATOM     17  C   UNL     1       1.266   8.468  20.713  0.00  0.00    +0.000 C 
ATOM     18  O   UNL     1       1.827   8.464  21.807  0.00  0.00    +0.000 OA
BRANCH  17  19
ATOM     19  C   UNL     1      -0.055   9.164  20.496  0.00  0.00    +0.000 C 
BRANCH  19  25
ATOM     20  C   UNL     1      -1.049  10.763  23.068  0.00  0.00    +0.000 C 
ATOM     21  N   UNL     1      -0.382  11.281  21.905  0.00  0.00    +0.000 N 
ATOM     22  C   UNL     1       0.002  12.578  21.741  0.00  0.00    +0.000 A 
ATOM     23  N   UNL     1       0.535  12.731  20.551  0.00  0.00    +0.000 NA
ATOM     24  N   UNL     1       0.530  11.507  19.934  0.00  0.00    +0.000 NA
ATOM     25  C   UNL     1       0.001  10.622  20.761  0.00  0.00    +0.000 A 
ENDBRANCH  19  25
ENDBRANCH  17  19
ENDBRANCH  11  17
ENDBRANCH   1  15
BRANCH   8  26
ATOM     26  C   UNL     1       7.321   7.279  17.686  0.00  0.00    +0.000 C 
ATOM     27  F   UNL     1       8.159   7.861  16.791  0.00  0.00    +0.000 F 
ATOM     28  F   UNL     1       6.349   8.207  17.923  0.00  0.00    +0.000 F 
ATOM     29  F   UNL     1       8.027   7.171  18.850  0.00  0.00    +0.000 F 
ENDBRANCH   8  26
BRANCH   6  30
ATOM     30  C   UNL     1       6.418   4.104  13.871  0.00  0.00    +0.000 C 
BRANCH  30  31
ATOM     31  N   UNL     1       7.306   5.051  13.205  0.00  0.00    +0.000 NA
ATOM     32  H   UNL     1       6.789   5.903  12.994  0.00  0.00    +0.000 HD
ATOM     33  H   UNL     1       7.589   4.665  12.305  0.00  0.00    +0.000 HD
ENDBRANCH  30  31
ENDBRANCH   6  30
TORSDOF 7
ENDMDL
MODEL 8
REMARK VINA RESULT:      -7.9      3.355      8.004
REMARK  Name = 
REMARK  8 active torsions:
REMARK  status: ('A' for Active; 'I' for Inactive)
REMARK    1  A    between atoms: C_1  and  N_2
REMARK    2  A    between atoms: C_6  and  C_7
REMARK    3  A    between atoms: C_7  and  C_8
REMARK    4  A    between atoms: C_8  and  C_10
REMARK    5  A    between atoms: C_14  and  N_15
REMARK    6  A    between atoms: C_20  and  C_21
REMARK    7  A    between atoms: C_21  and  N_22
REMARK    8  A    between atoms: C_24  and  C_25
REMARK                            x       y       z     vdW  Elec       q    Type
REMARK                         _______ _______ _______ _____ _____    ______ ____
ROOT
ATOM      1  N   UNL     1       3.921   4.753  19.262  0.00  0.00    +0.000 N 
ATOM      2  C   UNL     1       5.292   5.310  19.396  0.00  0.00    +0.000 C 
ATOM      3  C   UNL     1       5.862   5.051  18.034  0.00  0.00    +0.000 A 
ATOM      4  C   UNL     1       5.221   3.913  17.534  0.00  0.00    +0.000 A 
ATOM      5  C   UNL     1       5.350   3.482  16.226  0.00  0.00    +0.000 A 
ATOM      6  C   UNL     1       6.139   4.250  15.363  0.00  0.00    +0.000 A 
ATOM      7  C   UNL     1       6.775   5.417  15.857  0.00  0.00    +0.000 A 
ATOM      8  C   UNL     1       6.652   5.842  17.205  0.00  0.00    +0.000 A 
ATOM      9  C   UNL     1       4.068   3.620  18.423  0.00  0.00    +0.000 C 
ATOM     10  O   UNL     1       3.300   2.686  18.260  0.00  0.00    +0.000 OA
ENDROOT
BRANCH   1  15
ATOM     11  C   UNL     1       1.913   7.728  19.682  0.00  0.00    +0.000 A 
ATOM     12  C   UNL     1       2.461   8.503  18.648  0.00  0.00    +0.000 A 
ATOM     13  C   UNL     1       3.107   7.887  17.586  0.00  0.00    +0.000 A 
ATOM     14  C   UNL     1       3.337   6.512  17.617  0.00  0.00    +0.000 A 
ATOM     15  C   UNL     1       3.001   5.784  18.778  0.00  0.00    +0.000 A 
ATOM     16  C   UNL     1       2.129   6.350  19.714  0.00  0.00    +0.000 A 
BRANCH  11  17
ATOM     17  C   UNL     1       1.299   8.425  20.836  0.00  0.00    +0.000 C 
ATOM     18  O   UNL     1       1.885   8.418  21.917  0.00  0.00    +0.000 OA
BRANCH  17  19
ATOM     19  C   UNL     1      -0.013   9.142  20.645  0.00  0.00    +0.000 C 
BRANCH  19  25
ATOM     20  C   UNL     1      -1.283  10.316  17.967  0.00  0.00    +0.000 C 
ATOM     21  N   UNL     1      -0.467  10.998  18.935  0.00  0.00    +0.000 N 
ATOM     22  C   UNL     1      -0.149  12.322  18.890  0.00  0.00    +0.000 A 
ATOM     23  N   UNL     1       0.651  12.616  19.889  0.00  0.00    +0.000 NA
ATOM     24  N   UNL     1       0.836  11.472  20.621  0.00  0.00    +0.000 NA
ATOM     25  C   UNL     1       0.139  10.498  20.063  0.00  0.00    +0.000 A 
ENDBRANCH  19  25
ENDBRANCH  17  19
ENDBRANCH  11  17
ENDBRANCH   1  15
BRANCH   8  26
ATOM     26  C   UNL     1       7.249   7.160  17.614  0.00  0.00    +0.000 C 
ATOM     27  F   UNL     1       6.337   8.139  17.844  0.00  0.00    +0.000 F 
ATOM     28  F   UNL     1       7.964   7.058  18.771  0.00  0.00    +0.000 F 
ATOM     29  F   UNL     1       8.113   7.661  16.683  0.00  0.00    +0.000 F 
ENDBRANCH   8  26
BRANCH   6  30
ATOM     30  C   UNL     1       6.196   3.918  13.896  0.00  0.00    +0.000 C 
BRANCH  30  31
ATOM     31  N   UNL     1       7.191   4.737  13.210  0.00  0.00    +0.000 NA
ATOM     32  H   UNL     1       7.629   4.183  12.475  0.00  0.00    +0.000 HD
ATOM     33  H   UNL     1       7.935   4.973  13.864  0.00  0.00    +0.000 HD
ENDBRANCH  30  31
ENDBRANCH   6  30
TORSDOF 7
ENDMDL
MODEL 9
REMARK VINA RESULT:      -7.8      3.352      8.236
REMARK  Name = 
REMARK  8 active torsions:
REMARK  status: ('A' for Active; 'I' for Inactive)
REMARK    1  A    between atoms: C_1  and  N_2
REMARK    2  A    between atoms: C_6  and  C_7
REMARK    3  A    between atoms: C_7  and  C_8
REMARK    4  A    between atoms: C_8  and  C_10
REMARK    5  A    between atoms: C_14  and  N_15
REMARK    6  A    between atoms: C_20  and  C_21
REMARK    7  A    between atoms: C_21  and  N_22
REMARK    8  A    between atoms: C_24  and  C_25
REMARK                            x       y       z     vdW  Elec       q    Type
REMARK                         _______ _______ _______ _____ _____    ______ ____
ROOT
ATOM      1  N   UNL     1       4.065   4.692  19.015  0.00  0.00    +0.000 N 
ATOM      2  C   UNL     1       5.413   5.272  19.251  0.00  0.00    +0.000 C 
ATOM      3  C   UNL     1       6.058   5.101  17.909  0.00  0.00    +0.000 A 
ATOM      4  C   UNL     1       5.473   3.979  17.315  0.00  0.00    +0.000 A 
ATOM      5  C   UNL     1       5.679   3.625  15.994  0.00  0.00    +0.000 A 
ATOM      6  C   UNL     1       6.492   4.456  15.217  0.00  0.00    +0.000 A 
ATOM      7  C   UNL     1       7.072   5.608  15.806  0.00  0.00    +0.000 A 
ATOM      8  C   UNL     1       6.869   5.955  17.167  0.00  0.00    +0.000 A 
ATOM      9  C   UNL     1       4.283   3.611  18.125  0.00  0.00    +0.000 C 
ATOM     10  O   UNL     1       3.549   2.671  17.871  0.00  0.00    +0.000 OA
ENDROOT
BRANCH   1  15
ATOM     11  C   UNL     1       2.002   7.622  19.481  0.00  0.00    +0.000 A 
ATOM     12  C   UNL     1       2.570   8.441  18.493  0.00  0.00    +0.000 A 
ATOM     13  C   UNL     1       3.257   7.874  17.430  0.00  0.00    +0.000 A 
ATOM     14  C   UNL     1       3.506   6.503  17.419  0.00  0.00    +0.000 A 
ATOM     15  C   UNL     1       3.145   5.728  18.540  0.00  0.00    +0.000 A 
ATOM     16  C   UNL     1       2.236   6.246  19.468  0.00  0.00    +0.000 A 
BRANCH  11  17
ATOM     17  C   UNL     1       1.342   8.267  20.640  0.00  0.00    +0.000 C 
ATOM     18  O   UNL     1       0.772   7.561  21.470  0.00  0.00    +0.000 OA
BRANCH  17  19
ATOM     19  C   UNL     1       1.410   9.767  20.780  0.00  0.00    +0.000 C 
BRANCH  19  25
ATOM     20  C   UNL     1      -0.769  11.118  22.674  0.00  0.00    +0.000 C 
ATOM     21  N   UNL     1      -0.746  11.076  21.236  0.00  0.00    +0.000 N 
ATOM     22  C   UNL     1      -1.656  11.686  20.426  0.00  0.00    +0.000 A 
ATOM     23  N   UNL     1      -1.381  11.409  19.172  0.00  0.00    +0.000 NA
ATOM     24  N   UNL     1      -0.254  10.630  19.157  0.00  0.00    +0.000 NA
ATOM     25  C   UNL     1       0.149  10.449  20.402  0.00  0.00    +0.000 A 
ENDBRANCH  19  25
ENDBRANCH  17  19
ENDBRANCH  11  17
ENDBRANCH   1  15
BRANCH   8  26
ATOM     26  C   UNL     1       7.411   7.261  17.678  0.00  0.00    +0.000 C 
ATOM     27  F   UNL     1       6.462   8.194  17.941  0.00  0.00    +0.000 F 
ATOM     28  F   UNL     1       8.095   7.105  18.848  0.00  0.00    +0.000 F 
ATOM     29  F   UNL     1       8.286   7.847  16.808  0.00  0.00    +0.000 F 
ENDBRANCH   8  26
BRANCH   6  30
ATOM     30  C   UNL     1       6.632   4.208  13.738  0.00  0.00    +0.000 C 
BRANCH  30  31
ATOM     31  N   UNL     1       7.514   5.194  13.121  0.00  0.00    +0.000 NA
ATOM     32  H   UNL     1       6.978   6.033  12.904  0.00  0.00    +0.000 HD
ATOM     33  H   UNL     1       7.843   4.832  12.227  0.00  0.00    +0.000 HD
ENDBRANCH  30  31
ENDBRANCH   6  30
TORSDOF 7
ENDMDL
