MODEL 1
REMARK VINA RESULT:      -8.5      0.000      0.000
REMARK  Name = 
REMARK  8 active torsions:
REMARK  status: ('A' for Active; 'I' for Inactive)
REMARK    1  A    between atoms: C_1  and  N_2
REMARK    2  A    between atoms: C_6  and  C_7
REMARK    3  A    between atoms: C_7  and  C_8
REMARK    4  A    between atoms: C_8  and  C_9
REMARK    5  A    between atoms: C_13  and  N_14
REMARK    6  A    between atoms: C_20  and  C_21
REMARK    7  A    between atoms: C_21  and  C_22
REMARK    8  A    between atoms: C_22  and  C_23
REMARK                            x       y       z     vdW  Elec       q    Type
REMARK                         _______ _______ _______ _____ _____    ______ ____
ROOT
ATOM      1  N   UNL     1       5.998   5.413  15.687  0.00  0.00    +0.000 N 
ATOM      2  C   UNL     1       4.911   6.422  15.825  0.00  0.00    +0.000 C 
ATOM      3  C   UNL     1       4.130   5.861  16.964  0.00  0.00    +0.000 A 
ATOM      4  C   UNL     1       3.606   6.499  18.063  0.00  0.00    +0.000 A 
ATOM      5  F   UNL     1       3.593   7.834  18.134  0.00  0.00    +0.000 F 
ATOM      6  C   UNL     1       3.264   5.739  19.188  0.00  0.00    +0.000 A 
ATOM      7  C   UNL     1       3.432   4.337  19.197  0.00  0.00    +0.000 A 
ATOM      8  C   UNL     1       3.940   3.692  18.064  0.00  0.00    +0.000 A 
ATOM      9  C   UNL     1       4.304   4.483  16.974  0.00  0.00    +0.000 A 
ATOM     10  C   UNL     1       5.384   4.170  16.021  0.00  0.00    +0.000 C 
ATOM     11  O   UNL     1       5.783   3.043  15.785  0.00  0.00    +0.000 OA
ENDROOT
BRANCH   1  16
ATOM     12  C   UNL     1       7.863   7.723  17.797  0.00  0.00    +0.000 A 
ATOM     13  C   UNL     1       7.938   6.904  18.932  0.00  0.00    +0.000 A 
ATOM     14  C   UNL     1       7.816   5.520  18.814  0.00  0.00    +0.000 A 
ATOM     15  C   UNL     1       7.498   4.953  17.588  0.00  0.00    +0.000 A 
ATOM     16  C   UNL     1       7.133   5.790  16.523  0.00  0.00    +0.000 A 
ATOM     17  C   UNL     1       7.483   7.148  16.577  0.00  0.00    +0.000 A 
BRANCH  12  18
ATOM     18  C   UNL     1       8.186   9.197  17.904  0.00  0.00    +0.000 C 
BRANCH  18  19
ATOM     19  C   UNL     1       9.049   9.573  19.112  0.00  0.00    +0.000 C 
BRANCH  19  25
ATOM     20  C   UNL     1       9.298  11.858  21.263  0.00  0.00    +0.000 C 
ATOM     21  N   UNL     1       9.742  11.905  19.898  0.00  0.00    +0.000 N 
ATOM     22  C   UNL     1      10.323  12.977  19.291  0.00  0.00    +0.000 A 
ATOM     23  N   UNL     1      10.624  12.669  18.052  0.00  0.00    +0.000 NA
ATOM     24  N   UNL     1      10.216  11.375  17.835  0.00  0.00    +0.000 NA
ATOM     25  C   UNL     1       9.669  10.919  18.947  0.00  0.00    +0.000 A 
ENDBRANCH  19  25
ENDBRANCH  18  19
ENDBRANCH  12  18
ENDBRANCH   1  16
BRANCH   7  26
ATOM     26  C   UNL     1       3.203   3.548  20.468  0.00  0.00    +0.000 C 
BRANCH  26  27
ATOM     27  C   UNL     1       2.026   2.565  20.387  0.00  0.00    +0.000 C 
BRANCH  27  28
ATOM     28  C   UNL     1       0.781   3.156  19.749  0.00  0.00    +0.000 C 
ATOM     29  F   UNL     1       0.388   2.369  18.714  0.00  0.00    +0.000 F 
ENDBRANCH  27  28
ENDBRANCH  26  27
ENDBRANCH   7  26
TORSDOF 7
ENDMDL
MODEL 2
REMARK VINA RESULT:      -8.3      5.125      7.170
REMARK  Name = 
REMARK  8 active torsions:
REMARK  status: ('A' for Active; 'I' for Inactive)
REMARK    1  A    between atoms: C_1  and  N_2
REMARK    2  A    between atoms: C_6  and  C_7
REMARK    3  A    between atoms: C_7  and  C_8
REMARK    4  A    between atoms: C_8  and  C_9
REMARK    5  A    between atoms: C_13  and  N_14
REMARK    6  A    between atoms: C_20  and  C_21
REMARK    7  A    between atoms: C_21  and  C_22
REMARK    8  A    between atoms: C_22  and  C_23
REMARK                            x       y       z     vdW  Elec       q    Type
REMARK                         _______ _______ _______ _____ _____    ______ ____
ROOT
ATOM      1  N   UNL     1       2.670   3.786  19.312  0.00  0.00    +0.000 N 
ATOM      2  C   UNL     1       4.001   3.993  19.947  0.00  0.00    +0.000 C 
ATOM      3  C   UNL     1       4.879   4.149  18.752  0.00  0.00    +0.000 A 
ATOM      4  C   UNL     1       5.876   5.064  18.514  0.00  0.00    +0.000 A 
ATOM      5  F   UNL     1       6.315   5.864  19.491  0.00  0.00    +0.000 F 
ATOM      6  C   UNL     1       6.293   5.283  17.195  0.00  0.00    +0.000 A 
ATOM      7  C   UNL     1       5.717   4.568  16.122  0.00  0.00    +0.000 A 
ATOM      8  C   UNL     1       4.721   3.617  16.377  0.00  0.00    +0.000 A 
ATOM      9  C   UNL     1       4.306   3.450  17.698  0.00  0.00    +0.000 A 
ATOM     10  C   UNL     1       2.948   3.059  18.117  0.00  0.00    +0.000 C 
ATOM     11  O   UNL     1       2.174   2.423  17.423  0.00  0.00    +0.000 OA
ENDROOT
BRANCH   1  16
ATOM     12  C   UNL     1       1.831   7.197  20.277  0.00  0.00    +0.000 A 
ATOM     13  C   UNL     1       2.309   7.830  19.123  0.00  0.00    +0.000 A 
ATOM     14  C   UNL     1       2.433   7.122  17.928  0.00  0.00    +0.000 A 
ATOM     15  C   UNL     1       2.199   5.754  17.904  0.00  0.00    +0.000 A 
ATOM     16  C   UNL     1       2.010   5.073  19.116  0.00  0.00    +0.000 A 
ATOM     17  C   UNL     1       1.655   5.807  20.259  0.00  0.00    +0.000 A 
BRANCH  12  18
ATOM     18  C   UNL     1       1.519   8.011  21.514  0.00  0.00    +0.000 C 
BRANCH  18  19
ATOM     19  C   UNL     1       0.027   8.281  21.737  0.00  0.00    +0.000 C 
BRANCH  19  25
ATOM     20  C   UNL     1      -0.565  10.502  19.587  0.00  0.00    +0.000 C 
ATOM     21  N   UNL     1      -0.472  10.680  21.009  0.00  0.00    +0.000 N 
ATOM     22  C   UNL     1      -0.592  11.866  21.668  0.00  0.00    +0.000 A 
ATOM     23  N   UNL     1      -0.477  11.664  22.958  0.00  0.00    +0.000 NA
ATOM     24  N   UNL     1      -0.258  10.321  23.150  0.00  0.00    +0.000 NA
ATOM     25  C   UNL     1      -0.239   9.730  21.971  0.00  0.00    +0.000 A 
ENDBRANCH  19  25
ENDBRANCH  18  19
ENDBRANCH  12  18
ENDBRANCH   1  16
BRANCH   7  26
ATOM     26  C   UNL     1       6.066   4.921  14.693  0.00  0.00    +0.000 C 
BRANCH  26  27
ATOM     27  C   UNL     1       6.303   3.703  13.790  0.00  0.00    +0.000 C 
BRANCH  27  28
ATOM     28  C   UNL     1       5.314   3.593  12.642  0.00  0.00    +0.000 C 
ATOM     29  F   UNL     1       5.661   2.548  11.847  0.00  0.00    +0.000 F 
ENDBRANCH  27  28
ENDBRANCH  26  27
ENDBRANCH   7  26
TORSDOF 7
ENDMDL
MODEL 3
REMARK VINA RESULT:      -8.2      0.827      1.276
REMARK  Name = 
REMARK  8 active torsions:
REMARK  status: ('A' for Active; 'I' for Inactive)
REMARK    1  A    between atoms: C_1  and  N_2
REMARK    2  A    between atoms: C_6  and  C_7
REMARK    3  A    between atoms: C_7  and  C_8
REMARK    4  A    between atoms: C_8  and  C_9
REMARK    5  A    between atoms: C_13  and  N_14
REMARK    6  A    between atoms: C_20  and  C_21
REMARK    7  A    between atoms: C_21  and  C_22
REMARK    8  A    between atoms: C_22  and  C_23
REMARK                            x       y       z     vdW  Elec       q    Type
REMARK                         _______ _______ _______ _____ _____    ______ ____
ROOT
ATOM      1  N   UNL     1       6.004   5.580  15.708  0.00  0.00    +0.000 N 
ATOM      2  C   UNL     1       4.863   6.476  16.045  0.00  0.00    +0.000 C 
ATOM      3  C   UNL     1       4.171   5.688  17.105  0.00  0.00    +0.000 A 
ATOM      4  C   UNL     1       3.659   6.107  18.310  0.00  0.00    +0.000 A 
ATOM      5  F   UNL     1       3.565   7.410  18.595  0.00  0.00    +0.000 F 
ATOM      6  C   UNL     1       3.416   5.156  19.310  0.00  0.00    +0.000 A 
ATOM      7  C   UNL     1       3.674   3.785  19.087  0.00  0.00    +0.000 A 
ATOM      8  C   UNL     1       4.169   3.365  17.847  0.00  0.00    +0.000 A 
ATOM      9  C   UNL     1       4.432   4.342  16.887  0.00  0.00    +0.000 A 
ATOM     10  C   UNL     1       5.485   4.260  15.860  0.00  0.00    +0.000 C 
ATOM     11  O   UNL     1       5.943   3.215  15.431  0.00  0.00    +0.000 OA
ENDROOT
BRANCH   1  16
ATOM     12  C   UNL     1       7.903   7.743  17.939  0.00  0.00    +0.000 A 
ATOM     13  C   UNL     1       7.986   6.854  19.020  0.00  0.00    +0.000 A 
ATOM     14  C   UNL     1       7.855   5.481  18.816  0.00  0.00    +0.000 A 
ATOM     15  C   UNL     1       7.521   4.993  17.560  0.00  0.00    +0.000 A 
ATOM     16  C   UNL     1       7.150   5.898  16.554  0.00  0.00    +0.000 A 
ATOM     17  C   UNL     1       7.507   7.248  16.690  0.00  0.00    +0.000 A 
BRANCH  12  18
ATOM     18  C   UNL     1       8.235   9.206  18.136  0.00  0.00    +0.000 C 
BRANCH  18  19
ATOM     19  C   UNL     1       9.330   9.476  19.172  0.00  0.00    +0.000 C 
BRANCH  19  25
ATOM     20  C   UNL     1      10.713  11.825  17.599  0.00  0.00    +0.000 C 
ATOM     21  N   UNL     1      10.018  11.917  18.853  0.00  0.00    +0.000 N 
ATOM     22  C   UNL     1       9.871  13.049  19.596  0.00  0.00    +0.000 A 
ATOM     23  N   UNL     1       9.166  12.781  20.668  0.00  0.00    +0.000 NA
ATOM     24  N   UNL     1       8.858  11.443  20.638  0.00  0.00    +0.000 NA
ATOM     25  C   UNL     1       9.386  10.918  19.549  0.00  0.00    +0.000 A 
ENDBRANCH  19  25
ENDBRANCH  18  19
ENDBRANCH  12  18
ENDBRANCH   1  16
BRANCH   7  26
ATOM     26  C   UNL     1       3.552   2.792  20.221  0.00  0.00    +0.000 C 
BRANCH  26  27
ATOM     27  C   UNL     1       2.122   2.287  20.457  0.00  0.00    +0.000 C 
BRANCH  27  28
ATOM     28  C   UNL     1       1.265   3.240  21.273  0.00  0.00    +0.000 C 
ATOM     29  F   UNL     1       0.486   3.973  20.436  0.00  0.00    +0.000 F 
ENDBRANCH  27  28
ENDBRANCH  26  27
ENDBRANCH   7  26
TORSDOF 7
ENDMDL
MODEL 4
REMARK VINA RESULT:      -8.1      5.085      7.084
REMARK  Name = 
REMARK  8 active torsions:
REMARK  status: ('A' for Active; 'I' for Inactive)
REMARK    1  A    between atoms: C_1  and  N_2
REMARK    2  A    between atoms: C_6  and  C_7
REMARK    3  A    between atoms: C_7  and  C_8
REMARK    4  A    between atoms: C_8  and  C_9
REMARK    5  A    between atoms: C_13  and  N_14
REMARK    6  A    between atoms: C_20  and  C_21
REMARK    7  A    between atoms: C_21  and  C_22
REMARK    8  A    between atoms: C_22  and  C_23
REMARK                            x       y       z     vdW  Elec       q    Type
REMARK                         _______ _______ _______ _____ _____    ______ ____
ROOT
ATOM      1  N   UNL     1       2.587   3.712  19.276  0.00  0.00    +0.000 N 
ATOM      2  C   UNL     1       3.860   3.861  20.034  0.00  0.00    +0.000 C 
ATOM      3  C   UNL     1       4.853   3.971  18.927  0.00  0.00    +0.000 A 
ATOM      4  C   UNL     1       5.909   4.839  18.784  0.00  0.00    +0.000 A 
ATOM      5  F   UNL     1       6.290   5.623  19.798  0.00  0.00    +0.000 F 
ATOM      6  C   UNL     1       6.458   5.033  17.510  0.00  0.00    +0.000 A 
ATOM      7  C   UNL     1       5.953   4.340  16.387  0.00  0.00    +0.000 A 
ATOM      8  C   UNL     1       4.896   3.437  16.548  0.00  0.00    +0.000 A 
ATOM      9  C   UNL     1       4.351   3.294  17.824  0.00  0.00    +0.000 A 
ATOM     10  C   UNL     1       2.943   2.967  18.113  0.00  0.00    +0.000 C 
ATOM     11  O   UNL     1       2.210   2.363  17.349  0.00  0.00    +0.000 OA
ENDROOT
BRANCH   1  16
ATOM     12  C   UNL     1       1.874   7.181  20.127  0.00  0.00    +0.000 A 
ATOM     13  C   UNL     1       2.450   7.764  18.990  0.00  0.00    +0.000 A 
ATOM     14  C   UNL     1       2.604   7.024  17.818  0.00  0.00    +0.000 A 
ATOM     15  C   UNL     1       2.300   5.669  17.807  0.00  0.00    +0.000 A 
ATOM     16  C   UNL     1       2.007   5.026  19.018  0.00  0.00    +0.000 A 
ATOM     17  C   UNL     1       1.627   5.801  20.125  0.00  0.00    +0.000 A 
BRANCH  12  18
ATOM     18  C   UNL     1       1.536   8.036  21.328  0.00  0.00    +0.000 C 
BRANCH  18  19
ATOM     19  C   UNL     1       0.046   8.360  21.479  0.00  0.00    +0.000 C 
BRANCH  19  25
ATOM     20  C   UNL     1      -1.012  10.859  23.074  0.00  0.00    +0.000 C 
ATOM     21  N   UNL     1      -0.761  10.778  21.661  0.00  0.00    +0.000 N 
ATOM     22  C   UNL     1      -0.978  11.777  20.760  0.00  0.00    +0.000 A 
ATOM     23  N   UNL     1      -0.621  11.373  19.565  0.00  0.00    +0.000 NA
ATOM     24  N   UNL     1      -0.179  10.077  19.679  0.00  0.00    +0.000 NA
ATOM     25  C   UNL     1      -0.279   9.713  20.944  0.00  0.00    +0.000 A 
ENDBRANCH  19  25
ENDBRANCH  18  19
ENDBRANCH  12  18
ENDBRANCH   1  16
BRANCH   7  26
ATOM     26  C   UNL     1       6.451   4.671  14.998  0.00  0.00    +0.000 C 
BRANCH  26  27
ATOM     27  C   UNL     1       5.519   4.198  13.873  0.00  0.00    +0.000 C 
BRANCH  27  28
ATOM     28  C   UNL     1       6.244   3.505  12.732  0.00  0.00    +0.000 C 
ATOM     29  F   UNL     1       5.345   2.820  11.978  0.00  0.00    +0.000 F 
ENDBRANCH  27  28
ENDBRANCH  26  27
ENDBRANCH   7  26
TORSDOF 7
ENDMDL
MODEL 5
REMARK VINA RESULT:      -8.0      3.994      6.365
REMARK  Name = 
REMARK  8 active torsions:
REMARK  status: ('A' for Active; 'I' for Inactive)
REMARK    1  A    between atoms: C_1  and  N_2
REMARK    2  A    between atoms: C_6  and  C_7
REMARK    3  A    between atoms: C_7  and  C_8
REMARK    4  A    between atoms: C_8  and  C_9
REMARK    5  A    between atoms: C_13  and  N_14
REMARK    6  A    between atoms: C_20  and  C_21
REMARK    7  A    between atoms: C_21  and  C_22
REMARK    8  A    between atoms: C_22  and  C_23
REMARK                            x       y       z     vdW  Elec       q    Type
REMARK                         _______ _______ _______ _____ _____    ______ ____
ROOT
ATOM      1  N   UNL     1       6.472   5.465  18.729  0.00  0.00    +0.000 N 
ATOM      2  C   UNL     1       6.071   6.718  18.030  0.00  0.00    +0.000 C 
ATOM      3  C   UNL     1       6.140   6.295  16.602  0.00  0.00    +0.000 A 
ATOM      4  C   UNL     1       5.255   6.530  15.578  0.00  0.00    +0.000 A 
ATOM      5  F   UNL     1       4.242   7.389  15.735  0.00  0.00    +0.000 F 
ATOM      6  C   UNL     1       5.310   5.720  14.436  0.00  0.00    +0.000 A 
ATOM      7  C   UNL     1       6.267   4.688  14.322  0.00  0.00    +0.000 A 
ATOM      8  C   UNL     1       7.183   4.473  15.359  0.00  0.00    +0.000 A 
ATOM      9  C   UNL     1       7.077   5.275  16.496  0.00  0.00    +0.000 A 
ATOM     10  C   UNL     1       7.429   4.857  17.864  0.00  0.00    +0.000 C 
ATOM     11  O   UNL     1       8.235   3.981  18.127  0.00  0.00    +0.000 OA
ENDROOT
BRANCH   1  16
ATOM     12  C   UNL     1       2.904   5.001  19.298  0.00  0.00    +0.000 A 
ATOM     13  C   UNL     1       2.682   4.068  18.276  0.00  0.00    +0.000 A 
ATOM     14  C   UNL     1       3.733   3.296  17.783  0.00  0.00    +0.000 A 
ATOM     15  C   UNL     1       5.031   3.532  18.217  0.00  0.00    +0.000 A 
ATOM     16  C   UNL     1       5.290   4.657  19.013  0.00  0.00    +0.000 A 
ATOM     17  C   UNL     1       4.222   5.273  19.685  0.00  0.00    +0.000 A 
BRANCH  12  18
ATOM     18  C   UNL     1       1.732   5.695  19.957  0.00  0.00    +0.000 C 
BRANCH  18  19
ATOM     19  C   UNL     1       2.039   7.101  20.481  0.00  0.00    +0.000 C 
BRANCH  19  25
ATOM     20  C   UNL     1       0.184   9.644  20.486  0.00  0.00    +0.000 C 
ATOM     21  N   UNL     1       1.061   9.216  19.431  0.00  0.00    +0.000 N 
ATOM     22  C   UNL     1       1.209   9.833  18.225  0.00  0.00    +0.000 A 
ATOM     23  N   UNL     1       2.103   9.193  17.512  0.00  0.00    +0.000 NA
ATOM     24  N   UNL     1       2.539   8.123  18.256  0.00  0.00    +0.000 NA
ATOM     25  C   UNL     1       1.897   8.129  19.409  0.00  0.00    +0.000 A 
ENDBRANCH  19  25
ENDBRANCH  18  19
ENDBRANCH  12  18
ENDBRANCH   1  16
BRANCH   7  26
ATOM     26  C   UNL     1       6.218   3.726  13.156  0.00  0.00    +0.000 C 
BRANCH  26  27
ATOM     27  C   UNL     1       4.796   3.313  12.747  0.00  0.00    +0.000 C 
BRANCH  27  28
ATOM     28  C   UNL     1       4.649   3.022  11.264  0.00  0.00    +0.000 C 
ATOM     29  F   UNL     1       3.734   3.870  10.727  0.00  0.00    +0.000 F 
ENDBRANCH  27  28
ENDBRANCH  26  27
ENDBRANCH   7  26
TORSDOF 7
ENDMDL
MODEL 6
REMARK VINA RESULT:      -7.9      5.012      7.231
REMARK  Name = 
REMARK  8 active torsions:
REMARK  status: ('A' for Active; 'I' for Inactive)
REMARK    1  A    between atoms: C_1  and  N_2
REMARK    2  A    between atoms: C_6  and  C_7
REMARK    3  A    between atoms: C_7  and  C_8
REMARK    4  A    between atoms: C_8  and  C_9
REMARK    5  A    between atoms: C_13  and  N_14
REMARK    6  A    between atoms: C_20  and  C_21
REMARK    7  A    between atoms: C_21  and  C_22
REMARK    8  A    between atoms: C_22  and  C_23
REMARK                            x       y       z     vdW  Elec       q    Type
REMARK                         _______ _______ _______ _____ _____    ______ ____
ROOT
ATOM      1  N   UNL     1       4.036   4.758  19.545  0.00  0.00    +0.000 N 
ATOM      2  C   UNL     1       5.316   5.511  19.428  0.00  0.00    +0.000 C 
ATOM      3  C   UNL     1       5.675   5.264  18.002  0.00  0.00    +0.000 A 
ATOM      4  C   UNL     1       6.138   6.144  17.053  0.00  0.00    +0.000 A 
ATOM      5  F   UNL     1       6.512   7.381  17.395  0.00  0.00    +0.000 F 
ATOM      6  C   UNL     1       6.031   5.798  15.700  0.00  0.00    +0.000 A 
ATOM      7  C   UNL     1       5.476   4.561  15.308  0.00  0.00    +0.000 A 
ATOM      8  C   UNL     1       5.033   3.659  16.282  0.00  0.00    +0.000 A 
ATOM      9  C   UNL     1       5.122   4.050  17.618  0.00  0.00    +0.000 A 
ATOM     10  C   UNL     1       4.200   3.630  18.688  0.00  0.00    +0.000 C 
ATOM     11  O   UNL     1       3.553   2.597  18.668  0.00  0.00    +0.000 OA
ENDROOT
BRANCH   1  16
ATOM     12  C   UNL     1       1.726   7.491  20.225  0.00  0.00    +0.000 A 
ATOM     13  C   UNL     1       2.008   8.250  19.081  0.00  0.00    +0.000 A 
ATOM     14  C   UNL     1       2.550   7.645  17.948  0.00  0.00    +0.000 A 
ATOM     15  C   UNL     1       2.925   6.309  17.985  0.00  0.00    +0.000 A 
ATOM     16  C   UNL     1       2.915   5.632  19.214  0.00  0.00    +0.000 A 
ATOM     17  C   UNL     1       2.162   6.160  20.274  0.00  0.00    +0.000 A 
BRANCH  12  18
ATOM     18  C   UNL     1       0.966   8.111  21.377  0.00  0.00    +0.000 C 
BRANCH  18  19
ATOM     19  C   UNL     1       1.333   9.570  21.667  0.00  0.00    +0.000 C 
BRANCH  19  25
ATOM     20  C   UNL     1      -0.504  11.398  19.882  0.00  0.00    +0.000 C 
ATOM     21  N   UNL     1      -0.627  11.169  21.295  0.00  0.00    +0.000 N 
ATOM     22  C   UNL     1      -1.552  11.742  22.113  0.00  0.00    +0.000 A 
ATOM     23  N   UNL     1      -1.393  11.295  23.335  0.00  0.00    +0.000 NA
ATOM     24  N   UNL     1      -0.330  10.425  23.324  0.00  0.00    +0.000 NA
ATOM     25  C   UNL     1       0.142  10.361  22.093  0.00  0.00    +0.000 A 
ENDBRANCH  19  25
ENDBRANCH  18  19
ENDBRANCH  12  18
ENDBRANCH   1  16
BRANCH   7  26
ATOM     26  C   UNL     1       5.227   4.264  13.845  0.00  0.00    +0.000 C 
BRANCH  26  27
ATOM     27  C   UNL     1       6.483   3.835  13.074  0.00  0.00    +0.000 C 
BRANCH  27  28
ATOM     28  C   UNL     1       6.187   2.976  11.856  0.00  0.00    +0.000 C 
ATOM     29  F   UNL     1       4.850   2.748  11.781  0.00  0.00    +0.000 F 
ENDBRANCH  27  28
ENDBRANCH  26  27
ENDBRANCH   7  26
TORSDOF 7
ENDMDL
MODEL 7
REMARK VINA RESULT:      -7.9      1.001      1.145
REMARK  Name = 
REMARK  8 active torsions:
REMARK  status: ('A' for Active; 'I' for Inactive)
REMARK    1  A    between atoms: C_1  and  N_2
REMARK    2  A    between atoms: C_6  and  C_7
REMARK    3  A    between atoms: C_7  and  C_8
REMARK    4  A    between atoms: C_8  and  C_9
REMARK    5  A    between atoms: C_13  and  N_14
REMARK    6  A    between atoms: C_20  and  C_21
REMARK    7  A    between atoms: C_21  and  C_22
REMARK    8  A    between atoms: C_22  and  C_23
REMARK                            x       y       z     vdW  Elec       q    Type
REMARK                         _______ _______ _______ _____ _____    ______ ____
ROOT
ATOM      1  N   UNL     1       5.988   5.435  15.704  0.00  0.00    +0.000 N 
ATOM      2  C   UNL     1       4.988   6.538  15.688  0.00  0.00    +0.000 C 
ATOM      3  C   UNL     1       4.111   6.160  16.833  0.00  0.00    +0.000 A 
ATOM      4  C   UNL     1       3.597   6.946  17.837  0.00  0.00    +0.000 A 
ATOM      5  F   UNL     1       3.697   8.278  17.779  0.00  0.00    +0.000 F 
ATOM      6  C   UNL     1       3.141   6.333  19.011  0.00  0.00    +0.000 A 
ATOM      7  C   UNL     1       3.186   4.929  19.163  0.00  0.00    +0.000 A 
ATOM      8  C   UNL     1       3.686   4.135  18.124  0.00  0.00    +0.000 A 
ATOM      9  C   UNL     1       4.164   4.781  16.984  0.00  0.00    +0.000 A 
ATOM     10  C   UNL     1       5.254   4.286  16.124  0.00  0.00    +0.000 C 
ATOM     11  O   UNL     1       5.563   3.112  16.017  0.00  0.00    +0.000 OA
ENDROOT
BRANCH   1  16
ATOM     12  C   UNL     1       7.821   7.706  17.883  0.00  0.00    +0.000 A 
ATOM     13  C   UNL     1       7.892   6.862  18.999  0.00  0.00    +0.000 A 
ATOM     14  C   UNL     1       7.778   5.480  18.848  0.00  0.00    +0.000 A 
ATOM     15  C   UNL     1       7.474   4.939  17.606  0.00  0.00    +0.000 A 
ATOM     16  C   UNL     1       7.113   5.799  16.558  0.00  0.00    +0.000 A 
ATOM     17  C   UNL     1       7.455   7.158  16.647  0.00  0.00    +0.000 A 
BRANCH  12  18
ATOM     18  C   UNL     1       8.134   9.179  18.027  0.00  0.00    +0.000 C 
BRANCH  18  19
ATOM     19  C   UNL     1       9.164   9.507  19.112  0.00  0.00    +0.000 C 
BRANCH  19  25
ATOM     20  C   UNL     1       9.031  11.750  21.317  0.00  0.00    +0.000 C 
ATOM     21  N   UNL     1       9.547  11.880  19.982  0.00  0.00    +0.000 N 
ATOM     22  C   UNL     1      10.039  13.025  19.431  0.00  0.00    +0.000 A 
ATOM     23  N   UNL     1      10.443  12.784  18.208  0.00  0.00    +0.000 NA
ATOM     24  N   UNL     1      10.196  11.459  17.942  0.00  0.00    +0.000 NA
ATOM     25  C   UNL     1       9.640  10.917  19.009  0.00  0.00    +0.000 A 
ENDBRANCH  19  25
ENDBRANCH  18  19
ENDBRANCH  12  18
ENDBRANCH   1  16
BRANCH   7  26
ATOM     26  C   UNL     1       2.834   4.293  20.489  0.00  0.00    +0.000 C 
BRANCH  26  27
ATOM     27  C   UNL     1       2.863   2.758  20.471  0.00  0.00    +0.000 C 
BRANCH  27  28
ATOM     28  C   UNL     1       4.225   2.170  20.796  0.00  0.00    +0.000 C 
ATOM     29  F   UNL     1       4.654   1.422  19.746  0.00  0.00    +0.000 F 
ENDBRANCH  27  28
ENDBRANCH  26  27
ENDBRANCH   7  26
TORSDOF 7
ENDMDL
MODEL 8
REMARK VINA RESULT:      -7.8      5.312      7.374
REMARK  Name = 
REMARK  8 active torsions:
REMARK  status: ('A' for Active; 'I' for Inactive)
REMARK    1  A    between atoms: C_1  and  N_2
REMARK    2  A    between atoms: C_6  and  C_7
REMARK    3  A    between atoms: C_7  and  C_8
REMARK    4  A    between atoms: C_8  and  C_9
REMARK    5  A    between atoms: C_13  and  N_14
REMARK    6  A    between atoms: C_20  and  C_21
REMARK    7  A    between atoms: C_21  and  C_22
REMARK    8  A    between atoms: C_22  and  C_23
REMARK                            x       y       z     vdW  Elec       q    Type
REMARK                         _______ _______ _______ _____ _____    ______ ____
ROOT
ATOM      1  N   UNL     1       2.543   3.845  19.739  0.00  0.00    +0.000 N 
ATOM      2  C   UNL     1       3.914   4.055  20.282  0.00  0.00    +0.000 C 
ATOM      3  C   UNL     1       4.740   3.964  19.044  0.00  0.00    +0.000 A 
ATOM      4  C   UNL     1       5.779   4.761  18.628  0.00  0.00    +0.000 A 
ATOM      5  F   UNL     1       6.314   5.670  19.450  0.00  0.00    +0.000 F 
ATOM      6  C   UNL     1       6.144   4.747  17.275  0.00  0.00    +0.000 A 
ATOM      7  C   UNL     1       5.472   3.917  16.350  0.00  0.00    +0.000 A 
ATOM      8  C   UNL     1       4.433   3.088  16.789  0.00  0.00    +0.000 A 
ATOM      9  C   UNL     1       4.074   3.153  18.135  0.00  0.00    +0.000 A 
ATOM     10  C   UNL     1       2.717   2.925  18.663  0.00  0.00    +0.000 C 
ATOM     11  O   UNL     1       1.871   2.245  18.107  0.00  0.00    +0.000 OA
ENDROOT
BRANCH   1  16
ATOM     12  C   UNL     1       1.798   7.366  20.298  0.00  0.00    +0.000 A 
ATOM     13  C   UNL     1       2.376   7.858  19.121  0.00  0.00    +0.000 A 
ATOM     14  C   UNL     1       2.544   7.026  18.014  0.00  0.00    +0.000 A 
ATOM     15  C   UNL     1       2.251   5.673  18.112  0.00  0.00    +0.000 A 
ATOM     16  C   UNL     1       1.955   5.129  19.371  0.00  0.00    +0.000 A 
ATOM     17  C   UNL     1       1.561   5.989  20.407  0.00  0.00    +0.000 A 
BRANCH  12  18
ATOM     18  C   UNL     1       1.444   8.315  21.423  0.00  0.00    +0.000 C 
BRANCH  18  19
ATOM     19  C   UNL     1      -0.059   8.540  21.616  0.00  0.00    +0.000 C 
BRANCH  19  25
ATOM     20  C   UNL     1      -0.854  10.839  19.619  0.00  0.00    +0.000 C 
ATOM     21  N   UNL     1      -0.686  10.950  21.041  0.00  0.00    +0.000 N 
ATOM     22  C   UNL     1      -0.811  12.096  21.766  0.00  0.00    +0.000 A 
ATOM     23  N   UNL     1      -0.614  11.836  23.036  0.00  0.00    +0.000 NA
ATOM     24  N   UNL     1      -0.336  10.495  23.146  0.00  0.00    +0.000 NA
ATOM     25  C   UNL     1      -0.364   9.964  21.938  0.00  0.00    +0.000 A 
ENDBRANCH  19  25
ENDBRANCH  18  19
ENDBRANCH  12  18
ENDBRANCH   1  16
BRANCH   7  26
ATOM     26  C   UNL     1       5.772   4.022  14.871  0.00  0.00    +0.000 C 
BRANCH  26  27
ATOM     27  C   UNL     1       6.736   5.162  14.510  0.00  0.00    +0.000 C 
BRANCH  27  28
ATOM     28  C   UNL     1       7.350   5.026  13.128  0.00  0.00    +0.000 C 
ATOM     29  F   UNL     1       8.566   5.631  13.114  0.00  0.00    +0.000 F 
ENDBRANCH  27  28
ENDBRANCH  26  27
ENDBRANCH   7  26
TORSDOF 7
ENDMDL
MODEL 9
REMARK VINA RESULT:      -7.7      3.913      6.490
REMARK  Name = 
REMARK  8 active torsions:
REMARK  status: ('A' for Active; 'I' for Inactive)
REMARK    1  A    between atoms: C_1  and  N_2
REMARK    2  A    between atoms: C_6  and  C_7
REMARK    3  A    between atoms: C_7  and  C_8
REMARK    4  A    between atoms: C_8  and  C_9
REMARK    5  A    between atoms: C_13  and  N_14
REMARK    6  A    between atoms: C_20  and  C_21
REMARK    7  A    between atoms: C_21  and  C_22
REMARK    8  A    between atoms: C_22  and  C_23
REMARK                            x       y       z     vdW  Elec       q    Type
REMARK                         _______ _______ _______ _____ _____    ______ ____
ROOT
ATOM      1  N   UNL     1       6.729   5.553  18.578  0.00  0.00    +0.000 N 
ATOM      2  C   UNL     1       6.300   6.785  17.860  0.00  0.00    +0.000 C 
ATOM      3  C   UNL     1       6.168   6.282  16.462  0.00  0.00    +0.000 A 
ATOM      4  C   UNL     1       5.171   6.508  15.544  0.00  0.00    +0.000 A 
ATOM      5  F   UNL     1       4.227   7.426  15.774  0.00  0.00    +0.000 F 
ATOM      6  C   UNL     1       5.043   5.635  14.455  0.00  0.00    +0.000 A 
ATOM      7  C   UNL     1       5.930   4.549  14.286  0.00  0.00    +0.000 A 
ATOM      8  C   UNL     1       6.960   4.344  15.212  0.00  0.00    +0.000 A 
ATOM      9  C   UNL     1       7.036   5.211  16.302  0.00  0.00    +0.000 A 
ATOM     10  C   UNL     1       7.540   4.850  17.639  0.00  0.00    +0.000 C 
ATOM     11  O   UNL     1       8.332   3.948  17.852  0.00  0.00    +0.000 OA
ENDROOT
BRANCH   1  16
ATOM     12  C   UNL     1       3.146   5.105  19.058  0.00  0.00    +0.000 A 
ATOM     13  C   UNL     1       3.036   3.864  18.416  0.00  0.00    +0.000 A 
ATOM     14  C   UNL     1       4.148   3.033  18.288  0.00  0.00    +0.000 A 
ATOM     15  C   UNL     1       5.400   3.481  18.688  0.00  0.00    +0.000 A 
ATOM     16  C   UNL     1       5.557   4.825  19.055  0.00  0.00    +0.000 A 
ATOM     17  C   UNL     1       4.421   5.572  19.404  0.00  0.00    +0.000 A 
BRANCH  12  18
ATOM     18  C   UNL     1       1.904   5.914  19.362  0.00  0.00    +0.000 C 
BRANCH  18  19
ATOM     19  C   UNL     1       2.167   7.225  20.109  0.00  0.00    +0.000 C 
BRANCH  19  25
ATOM     20  C   UNL     1       0.346   9.718  20.723  0.00  0.00    +0.000 C 
ATOM     21  N   UNL     1       1.101   9.474  19.525  0.00  0.00    +0.000 N 
ATOM     22  C   UNL     1       1.124  10.278  18.427  0.00  0.00    +0.000 A 
ATOM     23  N   UNL     1       1.932   9.769  17.528  0.00  0.00    +0.000 NA
ATOM     24  N   UNL     1       2.435   8.597  18.039  0.00  0.00    +0.000 NA
ATOM     25  C   UNL     1       1.920   8.412  19.239  0.00  0.00    +0.000 A 
ENDBRANCH  19  25
ENDBRANCH  18  19
ENDBRANCH  12  18
ENDBRANCH   1  16
BRANCH   7  26
ATOM     26  C   UNL     1       5.690   3.529  13.195  0.00  0.00    +0.000 C 
BRANCH  26  27
ATOM     27  C   UNL     1       6.830   3.429  12.172  0.00  0.00    +0.000 C 
BRANCH  27  28
ATOM     28  C   UNL     1       6.854   2.114  11.413  0.00  0.00    +0.000 C 
ATOM     29  F   UNL     1       8.013   2.022  10.710  0.00  0.00    +0.000 F 
ENDBRANCH  27  28
ENDBRANCH  26  27
ENDBRANCH   7  26
TORSDOF 7
ENDMDL
