MODEL 1
REMARK VINA RESULT:      -8.7      0.000      0.000
REMARK  Name = 
REMARK  5 active torsions:
REMARK  status: ('A' for Active; 'I' for Inactive)
REMARK    1  A    between atoms: C_2  and  C_17
REMARK    2  A    between atoms: N_3  and  C_4
REMARK    3  A    between atoms: C_7  and  C_8
REMARK    4  A    between atoms: C_8  and  N_9
REMARK    5  A    between atoms: C_20  and  N_21
REMARK                            x       y       z     vdW  Elec       q    Type
REMARK                         _______ _______ _______ _____ _____    ______ ____
ROOT
ATOM      1  O   UNL     1       7.846   9.682  17.136  0.00  0.00    +0.000 OA
ATOM      2  C   UNL     1       8.103   8.899  18.048  0.00  0.00    +0.000 C 
ATOM      3  N   UNL     1       8.932   9.134  19.131  0.00  0.00    +0.000 N 
ATOM      4  H   UNL     1       9.191   8.344  19.709  0.00  0.00    +0.000 HD
ENDROOT
BRANCH   3   5
ATOM      5  C   UNL     1       9.644  10.342  19.346  0.00  0.00    +0.000 A 
ATOM      6  C   UNL     1       9.564  11.053  20.546  0.00  0.00    +0.000 A 
ATOM      7  C   UNL     1      10.187  12.291  20.694  0.00  0.00    +0.000 A 
ATOM      8  C   UNL     1      10.932  12.841  19.649  0.00  0.00    +0.000 A 
ATOM      9  C   UNL     1      11.076  12.102  18.467  0.00  0.00    +0.000 A 
ATOM     10  C   UNL     1      10.434  10.862  18.315  0.00  0.00    +0.000 A 
BRANCH   8  11
ATOM     11  C   UNL     1      11.582  14.190  19.831  0.00  0.00    +0.000 C 
BRANCH  11  12
ATOM     12  N   UNL     1      11.145  15.156  18.843  0.00  0.00    +0.000 N 
ATOM     13  C   UNL     1      11.859  15.399  17.613  0.00  0.00    +0.000 C 
ATOM     14  C   UNL     1      11.128  16.588  17.021  0.00  0.00    +0.000 C 
ATOM     15  C   UNL     1       9.695  16.404  17.505  0.00  0.00    +0.000 C 
ATOM     16  C   UNL     1       9.871  15.697  18.826  0.00  0.00    +0.000 C 
ATOM     17  O   UNL     1       9.014  15.583  19.687  0.00  0.00    +0.000 OA
ENDBRANCH  11  12
ENDBRANCH   8  11
ENDBRANCH   3   5
BRANCH   2  18
ATOM     18  C   UNL     1       7.523   7.545  17.922  0.00  0.00    +0.000 A 
ATOM     19  C   UNL     1       6.483   7.389  17.002  0.00  0.00    +0.000 A 
ATOM     20  C   UNL     1       5.849   6.159  16.864  0.00  0.00    +0.000 A 
ATOM     21  C   UNL     1       6.257   5.061  17.629  0.00  0.00    +0.000 A 
ATOM     22  C   UNL     1       7.254   5.244  18.598  0.00  0.00    +0.000 A 
ATOM     23  C   UNL     1       7.907   6.477  18.735  0.00  0.00    +0.000 A 
BRANCH  21  24
ATOM     24  N   UNL     1       5.637   3.805  17.496  0.00  0.00    +0.000 N 
ATOM     25  C   UNL     1       4.280   3.560  17.741  0.00  0.00    +0.000 A 
ATOM     26  N   UNL     1       3.389   4.555  17.581  0.00  0.00    +0.000 NA
ATOM     27  C   UNL     1       2.096   4.280  17.815  0.00  0.00    +0.000 A 
ATOM     28  C   UNL     1       1.651   3.043  18.189  0.00  0.00    +0.000 A 
ATOM     29  C   UNL     1       2.629   2.086  18.330  0.00  0.00    +0.000 A 
ATOM     30  N   UNL     1       3.941   2.318  18.119  0.00  0.00    +0.000 NA
ATOM     31  H   UNL     1       6.160   3.042  17.908  0.00  0.00    +0.000 HD
ENDBRANCH  21  24
ENDBRANCH   2  18
TORSDOF 5
ENDMDL
MODEL 2
REMARK VINA RESULT:      -8.7      0.859      1.121
REMARK  Name = 
REMARK  5 active torsions:
REMARK  status: ('A' for Active; 'I' for Inactive)
REMARK    1  A    between atoms: C_2  and  C_17
REMARK    2  A    between atoms: N_3  and  C_4
REMARK    3  A    between atoms: C_7  and  C_8
REMARK    4  A    between atoms: C_8  and  N_9
REMARK    5  A    between atoms: C_20  and  N_21
REMARK                            x       y       z     vdW  Elec       q    Type
REMARK                         _______ _______ _______ _____ _____    ______ ____
ROOT
ATOM      1  O   UNL     1       7.571   9.601  17.095  0.00  0.00    +0.000 OA
ATOM      2  C   UNL     1       7.911   8.799  17.961  0.00  0.00    +0.000 C 
ATOM      3  N   UNL     1       8.822   9.019  18.981  0.00  0.00    +0.000 N 
ATOM      4  H   UNL     1       9.137   8.217  19.514  0.00  0.00    +0.000 HD
ENDROOT
BRANCH   3   5
ATOM      5  C   UNL     1       9.532  10.231  19.170  0.00  0.00    +0.000 A 
ATOM      6  C   UNL     1       9.532  10.915  20.389  0.00  0.00    +0.000 A 
ATOM      7  C   UNL     1      10.148  12.158  20.519  0.00  0.00    +0.000 A 
ATOM      8  C   UNL     1      10.807  12.742  19.435  0.00  0.00    +0.000 A 
ATOM      9  C   UNL     1      10.873  12.031  18.229  0.00  0.00    +0.000 A 
ATOM     10  C   UNL     1      10.237  10.785  18.097  0.00  0.00    +0.000 A 
BRANCH   8  11
ATOM     11  C   UNL     1      11.452  14.095  19.601  0.00  0.00    +0.000 C 
BRANCH  11  12
ATOM     12  N   UNL     1      10.847  15.105  18.756  0.00  0.00    +0.000 N 
ATOM     13  C   UNL     1       9.821  16.008  19.222  0.00  0.00    +0.000 C 
ATOM     14  C   UNL     1       9.397  16.728  17.958  0.00  0.00    +0.000 C 
ATOM     15  C   UNL     1      10.670  16.764  17.122  0.00  0.00    +0.000 C 
ATOM     16  C   UNL     1      11.393  15.511  17.551  0.00  0.00    +0.000 C 
ATOM     17  O   UNL     1      12.328  14.996  16.959  0.00  0.00    +0.000 OA
ENDBRANCH  11  12
ENDBRANCH   8  11
ENDBRANCH   3   5
BRANCH   2  18
ATOM     18  C   UNL     1       7.341   7.440  17.846  0.00  0.00    +0.000 A 
ATOM     19  C   UNL     1       6.217   7.296  17.028  0.00  0.00    +0.000 A 
ATOM     20  C   UNL     1       5.591   6.060  16.910  0.00  0.00    +0.000 A 
ATOM     21  C   UNL     1       6.089   4.944  17.592  0.00  0.00    +0.000 A 
ATOM     22  C   UNL     1       7.175   5.112  18.463  0.00  0.00    +0.000 A 
ATOM     23  C   UNL     1       7.820   6.351  18.578  0.00  0.00    +0.000 A 
BRANCH  21  24
ATOM     24  N   UNL     1       5.478   3.682  17.476  0.00  0.00    +0.000 N 
ATOM     25  C   UNL     1       4.136   3.419  17.782  0.00  0.00    +0.000 A 
ATOM     26  N   UNL     1       3.227   4.406  17.674  0.00  0.00    +0.000 NA
ATOM     27  C   UNL     1       1.951   4.114  17.966  0.00  0.00    +0.000 A 
ATOM     28  C   UNL     1       1.537   2.869  18.350  0.00  0.00    +0.000 A 
ATOM     29  C   UNL     1       2.531   1.922  18.435  0.00  0.00    +0.000 A 
ATOM     30  N   UNL     1       3.829   2.171  18.164  0.00  0.00    +0.000 NA
ATOM     31  H   UNL     1       6.027   2.922  17.855  0.00  0.00    +0.000 HD
ENDBRANCH  21  24
ENDBRANCH   2  18
TORSDOF 5
ENDMDL
MODEL 3
REMARK VINA RESULT:      -8.6      8.328     11.278
REMARK  Name = 
REMARK  5 active torsions:
REMARK  status: ('A' for Active; 'I' for Inactive)
REMARK    1  A    between atoms: C_2  and  C_17
REMARK    2  A    between atoms: N_3  and  C_4
REMARK    3  A    between atoms: C_7  and  C_8
REMARK    4  A    between atoms: C_8  and  N_9
REMARK    5  A    between atoms: C_20  and  N_21
REMARK                            x       y       z     vdW  Elec       q    Type
REMARK                         _______ _______ _______ _____ _____    ______ ____
ROOT
ATOM      1  O   UNL     1       1.599   9.747  22.061  0.00  0.00    +0.000 OA
ATOM      2  C   UNL     1       0.639   9.854  21.301  0.00  0.00    +0.000 C 
ATOM      3  N   UNL     1       0.505   9.271  20.052  0.00  0.00    +0.000 N 
ATOM      4  H   UNL     1      -0.257   9.585  19.463  0.00  0.00    +0.000 HD
ENDROOT
BRANCH   3   5
ATOM      5  C   UNL     1       1.491   8.456  19.440  0.00  0.00    +0.000 A 
ATOM      6  C   UNL     1       2.048   8.763  18.196  0.00  0.00    +0.000 A 
ATOM      7  C   UNL     1       2.936   7.892  17.568  0.00  0.00    +0.000 A 
ATOM      8  C   UNL     1       3.313   6.697  18.183  0.00  0.00    +0.000 A 
ATOM      9  C   UNL     1       2.815   6.414  19.462  0.00  0.00    +0.000 A 
ATOM     10  C   UNL     1       1.908   7.287  20.086  0.00  0.00    +0.000 A 
BRANCH   8  11
ATOM     11  C   UNL     1       4.264   5.765  17.473  0.00  0.00    +0.000 C 
BRANCH  11  12
ATOM     12  N   UNL     1       5.643   5.972  17.869  0.00  0.00    +0.000 N 
ATOM     13  C   UNL     1       6.385   7.164  17.537  0.00  0.00    +0.000 C 
ATOM     14  C   UNL     1       7.790   6.835  18.001  0.00  0.00    +0.000 C 
ATOM     15  C   UNL     1       7.565   5.913  19.193  0.00  0.00    +0.000 C 
ATOM     16  C   UNL     1       6.271   5.219  18.846  0.00  0.00    +0.000 C 
ATOM     17  O   UNL     1       5.843   4.209  19.382  0.00  0.00    +0.000 OA
ENDBRANCH  11  12
ENDBRANCH   8  11
ENDBRANCH   3   5
BRANCH   2  18
ATOM     18  C   UNL     1      -0.440  10.762  21.742  0.00  0.00    +0.000 A 
ATOM     19  C   UNL     1      -0.816  11.773  20.853  0.00  0.00    +0.000 A 
ATOM     20  C   UNL     1      -1.786  12.700  21.217  0.00  0.00    +0.000 A 
ATOM     21  C   UNL     1      -2.410  12.621  22.466  0.00  0.00    +0.000 A 
ATOM     22  C   UNL     1      -1.980  11.646  23.378  0.00  0.00    +0.000 A 
ATOM     23  C   UNL     1      -1.011  10.700  23.015  0.00  0.00    +0.000 A 
BRANCH  21  24
ATOM     24  N   UNL     1      -3.404  13.541  22.848  0.00  0.00    +0.000 N 
ATOM     25  C   UNL     1      -4.721  13.530  22.371  0.00  0.00    +0.000 A 
ATOM     26  N   UNL     1      -5.269  12.368  21.970  0.00  0.00    +0.000 NA
ATOM     27  C   UNL     1      -6.537  12.395  21.529  0.00  0.00    +0.000 A 
ATOM     28  C   UNL     1      -7.289  13.536  21.485  0.00  0.00    +0.000 A 
ATOM     29  C   UNL     1      -6.649  14.676  21.912  0.00  0.00    +0.000 A 
ATOM     30  N   UNL     1      -5.374  14.701  22.352  0.00  0.00    +0.000 NA
ATOM     31  H   UNL     1      -3.094  14.504  22.853  0.00  0.00    +0.000 HD
ENDBRANCH  21  24
ENDBRANCH   2  18
TORSDOF 5
ENDMDL
MODEL 4
REMARK VINA RESULT:      -8.6      8.820     12.492
REMARK  Name = 
REMARK  5 active torsions:
REMARK  status: ('A' for Active; 'I' for Inactive)
REMARK    1  A    between atoms: C_2  and  C_17
REMARK    2  A    between atoms: N_3  and  C_4
REMARK    3  A    between atoms: C_7  and  C_8
REMARK    4  A    between atoms: C_8  and  N_9
REMARK    5  A    between atoms: C_20  and  N_21
REMARK                            x       y       z     vdW  Elec       q    Type
REMARK                         _______ _______ _______ _____ _____    ______ ____
ROOT
ATOM      1  O   UNL     1      -0.999  10.076  18.763  0.00  0.00    +0.000 OA
ATOM      2  C   UNL     1      -0.494  10.351  19.848  0.00  0.00    +0.000 C 
ATOM      3  N   UNL     1       0.678   9.830  20.371  0.00  0.00    +0.000 N 
ATOM      4  H   UNL     1       0.882  10.011  21.347  0.00  0.00    +0.000 HD
ENDROOT
BRANCH   3   5
ATOM      5  C   UNL     1       1.481   8.859  19.720  0.00  0.00    +0.000 A 
ATOM      6  C   UNL     1       1.989   9.052  18.433  0.00  0.00    +0.000 A 
ATOM      7  C   UNL     1       2.686   8.041  17.774  0.00  0.00    +0.000 A 
ATOM      8  C   UNL     1       2.916   6.813  18.398  0.00  0.00    +0.000 A 
ATOM      9  C   UNL     1       2.472   6.637  19.715  0.00  0.00    +0.000 A 
ATOM     10  C   UNL     1       1.757   7.653  20.371  0.00  0.00    +0.000 A 
BRANCH   8  11
ATOM     11  C   UNL     1       3.660   5.731  17.654  0.00  0.00    +0.000 C 
BRANCH  11  12
ATOM     12  N   UNL     1       3.255   4.400  18.060  0.00  0.00    +0.000 N 
ATOM     13  C   UNL     1       2.064   3.756  17.561  0.00  0.00    +0.000 C 
ATOM     14  C   UNL     1       1.982   2.493  18.396  0.00  0.00    +0.000 C 
ATOM     15  C   UNL     1       3.440   2.157  18.681  0.00  0.00    +0.000 C 
ATOM     16  C   UNL     1       4.103   3.512  18.698  0.00  0.00    +0.000 C 
ATOM     17  O   UNL     1       5.213   3.751  19.146  0.00  0.00    +0.000 OA
ENDBRANCH  11  12
ENDBRANCH   8  11
ENDBRANCH   3   5
BRANCH   2  18
ATOM     18  C   UNL     1      -1.265  11.274  20.707  0.00  0.00    +0.000 A 
ATOM     19  C   UNL     1      -2.152  12.141  20.063  0.00  0.00    +0.000 A 
ATOM     20  C   UNL     1      -2.874  13.076  20.796  0.00  0.00    +0.000 A 
ATOM     21  C   UNL     1      -2.736  13.148  22.186  0.00  0.00    +0.000 A 
ATOM     22  C   UNL     1      -1.794  12.322  22.817  0.00  0.00    +0.000 A 
ATOM     23  C   UNL     1      -1.071  11.368  22.087  0.00  0.00    +0.000 A 
BRANCH  21  24
ATOM     24  N   UNL     1      -3.467  14.078  22.948  0.00  0.00    +0.000 N 
ATOM     25  C   UNL     1      -4.808  13.919  23.321  0.00  0.00    +0.000 A 
ATOM     26  N   UNL     1      -5.313  12.679  23.461  0.00  0.00    +0.000 NA
ATOM     27  C   UNL     1      -6.598  12.566  23.829  0.00  0.00    +0.000 A 
ATOM     28  C   UNL     1      -7.402  13.643  24.080  0.00  0.00    +0.000 A 
ATOM     29  C   UNL     1      -6.805  14.871  23.911  0.00  0.00    +0.000 A 
ATOM     30  N   UNL     1      -5.521  15.035  23.530  0.00  0.00    +0.000 NA
ATOM     31  H   UNL     1      -3.350  15.038  22.650  0.00  0.00    +0.000 HD
ENDBRANCH  21  24
ENDBRANCH   2  18
TORSDOF 5
ENDMDL
MODEL 5
REMARK VINA RESULT:      -8.6      8.752     12.435
REMARK  Name = 
REMARK  5 active torsions:
REMARK  status: ('A' for Active; 'I' for Inactive)
REMARK    1  A    between atoms: C_2  and  C_17
REMARK    2  A    between atoms: N_3  and  C_4
REMARK    3  A    between atoms: C_7  and  C_8
REMARK    4  A    between atoms: C_8  and  N_9
REMARK    5  A    between atoms: C_20  and  N_21
REMARK                            x       y       z     vdW  Elec       q    Type
REMARK                         _______ _______ _______ _____ _____    ______ ____
ROOT
ATOM      1  O   UNL     1      -0.980  10.025  18.665  0.00  0.00    +0.000 OA
ATOM      2  C   UNL     1      -0.451  10.313  19.736  0.00  0.00    +0.000 C 
ATOM      3  N   UNL     1       0.693   9.745  20.272  0.00  0.00    +0.000 N 
ATOM      4  H   UNL     1       0.914   9.953  21.238  0.00  0.00    +0.000 HD
ENDROOT
BRANCH   3   5
ATOM      5  C   UNL     1       1.433   8.705  19.656  0.00  0.00    +0.000 A 
ATOM      6  C   UNL     1       1.731   7.509  20.314  0.00  0.00    +0.000 A 
ATOM      7  C   UNL     1       2.550   6.546  19.726  0.00  0.00    +0.000 A 
ATOM      8  C   UNL     1       3.073   6.744  18.447  0.00  0.00    +0.000 A 
ATOM      9  C   UNL     1       2.721   7.908  17.751  0.00  0.00    +0.000 A 
ATOM     10  C   UNL     1       1.908   8.883  18.353  0.00  0.00    +0.000 A 
BRANCH   8  11
ATOM     11  C   UNL     1       3.969   5.692  17.841  0.00  0.00    +0.000 C 
BRANCH  11  12
ATOM     12  N   UNL     1       3.492   4.346  18.090  0.00  0.00    +0.000 N 
ATOM     13  C   UNL     1       2.371   3.768  17.388  0.00  0.00    +0.000 C 
ATOM     14  C   UNL     1       2.156   2.453  18.110  0.00  0.00    +0.000 C 
ATOM     15  C   UNL     1       3.556   2.061  18.565  0.00  0.00    +0.000 C 
ATOM     16  C   UNL     1       4.231   3.395  18.772  0.00  0.00    +0.000 C 
ATOM     17  O   UNL     1       5.272   3.575  19.382  0.00  0.00    +0.000 OA
ENDBRANCH  11  12
ENDBRANCH   8  11
ENDBRANCH   3   5
BRANCH   2  18
ATOM     18  C   UNL     1      -1.160  11.313  20.561  0.00  0.00    +0.000 A 
ATOM     19  C   UNL     1      -1.019  11.200  21.947  0.00  0.00    +0.000 A 
ATOM     20  C   UNL     1      -1.698  12.069  22.793  0.00  0.00    +0.000 A 
ATOM     21  C   UNL     1      -2.513  13.078  22.269  0.00  0.00    +0.000 A 
ATOM     22  C   UNL     1      -2.703  13.142  20.880  0.00  0.00    +0.000 A 
ATOM     23  C   UNL     1      -2.013  12.277  20.019  0.00  0.00    +0.000 A 
BRANCH  21  24
ATOM     24  N   UNL     1      -3.198  13.977  23.107  0.00  0.00    +0.000 N 
ATOM     25  C   UNL     1      -4.571  13.916  23.381  0.00  0.00    +0.000 A 
ATOM     26  N   UNL     1      -5.205  12.731  23.325  0.00  0.00    +0.000 NA
ATOM     27  C   UNL     1      -6.517  12.710  23.603  0.00  0.00    +0.000 A 
ATOM     28  C   UNL     1      -7.225  13.827  23.951  0.00  0.00    +0.000 A 
ATOM     29  C   UNL     1      -6.499  14.995  23.982  0.00  0.00    +0.000 A 
ATOM     30  N   UNL     1      -5.182  15.067  23.698  0.00  0.00    +0.000 NA
ATOM     31  H   UNL     1      -2.966  14.949  22.947  0.00  0.00    +0.000 HD
ENDBRANCH  21  24
ENDBRANCH   2  18
TORSDOF 5
ENDMDL
MODEL 6
REMARK VINA RESULT:      -8.5      7.846     11.390
REMARK  Name = 
REMARK  5 active torsions:
REMARK  status: ('A' for Active; 'I' for Inactive)
REMARK    1  A    between atoms: C_2  and  C_17
REMARK    2  A    between atoms: N_3  and  C_4
REMARK    3  A    between atoms: C_7  and  C_8
REMARK    4  A    between atoms: C_8  and  N_9
REMARK    5  A    between atoms: C_20  and  N_21
REMARK                            x       y       z     vdW  Elec       q    Type
REMARK                         _______ _______ _______ _____ _____    ______ ____
ROOT
ATOM      1  O   UNL     1       0.778   9.630  18.922  0.00  0.00    +0.000 OA
ATOM      2  C   UNL     1       0.757   9.292  20.103  0.00  0.00    +0.000 C 
ATOM      3  N   UNL     1       1.307   8.142  20.644  0.00  0.00    +0.000 N 
ATOM      4  H   UNL     1       1.063   7.905  21.598  0.00  0.00    +0.000 HD
ENDROOT
BRANCH   3   5
ATOM      5  C   UNL     1       1.979   7.146  19.890  0.00  0.00    +0.000 A 
ATOM      6  C   UNL     1       2.611   7.428  18.676  0.00  0.00    +0.000 A 
ATOM      7  C   UNL     1       3.172   6.413  17.902  0.00  0.00    +0.000 A 
ATOM      8  C   UNL     1       3.138   5.087  18.336  0.00  0.00    +0.000 A 
ATOM      9  C   UNL     1       2.569   4.805  19.586  0.00  0.00    +0.000 A 
ATOM     10  C   UNL     1       1.991   5.828  20.356  0.00  0.00    +0.000 A 
BRANCH   8  11
ATOM     11  C   UNL     1       3.739   4.007  17.471  0.00  0.00    +0.000 C 
BRANCH  11  12
ATOM     12  N   UNL     1       5.125   4.271  17.137  0.00  0.00    +0.000 N 
ATOM     13  C   UNL     1       5.543   4.747  15.840  0.00  0.00    +0.000 C 
ATOM     14  C   UNL     1       7.055   4.695  15.927  0.00  0.00    +0.000 C 
ATOM     15  C   UNL     1       7.339   4.964  17.399  0.00  0.00    +0.000 C 
ATOM     16  C   UNL     1       6.122   4.396  18.088  0.00  0.00    +0.000 C 
ATOM     17  O   UNL     1       6.032   4.154  19.281  0.00  0.00    +0.000 OA
ENDBRANCH  11  12
ENDBRANCH   8  11
ENDBRANCH   3   5
BRANCH   2  18
ATOM     18  C   UNL     1      -0.002  10.172  21.016  0.00  0.00    +0.000 A 
ATOM     19  C   UNL     1      -0.322  11.446  20.541  0.00  0.00    +0.000 A 
ATOM     20  C   UNL     1      -0.988  12.352  21.359  0.00  0.00    +0.000 A 
ATOM     21  C   UNL     1      -1.362  11.992  22.658  0.00  0.00    +0.000 A 
ATOM     22  C   UNL     1      -0.977  10.736  23.151  0.00  0.00    +0.000 A 
ATOM     23  C   UNL     1      -0.317   9.813  22.329  0.00  0.00    +0.000 A 
BRANCH  21  24
ATOM     24  N   UNL     1      -2.048  12.889  23.498  0.00  0.00    +0.000 N 
ATOM     25  C   UNL     1      -3.373  13.302  23.304  0.00  0.00    +0.000 A 
ATOM     26  N   UNL     1      -4.232  12.487  22.665  0.00  0.00    +0.000 NA
ATOM     27  C   UNL     1      -5.495  12.913  22.507  0.00  0.00    +0.000 A 
ATOM     28  C   UNL     1      -5.943  14.116  22.976  0.00  0.00    +0.000 A 
ATOM     29  C   UNL     1      -4.998  14.884  23.615  0.00  0.00    +0.000 A 
ATOM     30  N   UNL     1      -3.714  14.506  23.787  0.00  0.00    +0.000 NA
ATOM     31  H   UNL     1      -1.511  13.709  23.752  0.00  0.00    +0.000 HD
ENDBRANCH  21  24
ENDBRANCH   2  18
TORSDOF 5
ENDMDL
MODEL 7
REMARK VINA RESULT:      -8.5      1.426      1.601
REMARK  Name = 
REMARK  5 active torsions:
REMARK  status: ('A' for Active; 'I' for Inactive)
REMARK    1  A    between atoms: C_2  and  C_17
REMARK    2  A    between atoms: N_3  and  C_4
REMARK    3  A    between atoms: C_7  and  C_8
REMARK    4  A    between atoms: C_8  and  N_9
REMARK    5  A    between atoms: C_20  and  N_21
REMARK                            x       y       z     vdW  Elec       q    Type
REMARK                         _______ _______ _______ _____ _____    ______ ____
ROOT
ATOM      1  O   UNL     1       8.091  10.034  17.270  0.00  0.00    +0.000 OA
ATOM      2  C   UNL     1       8.467   9.341  18.212  0.00  0.00    +0.000 C 
ATOM      3  N   UNL     1       9.402   9.688  19.173  0.00  0.00    +0.000 N 
ATOM      4  H   UNL     1       9.745   8.957  19.785  0.00  0.00    +0.000 HD
ENDROOT
BRANCH   3   5
ATOM      5  C   UNL     1      10.097  10.923  19.202  0.00  0.00    +0.000 A 
ATOM      6  C   UNL     1      10.091  11.758  20.323  0.00  0.00    +0.000 A 
ATOM      7  C   UNL     1      10.692  13.015  20.290  0.00  0.00    +0.000 A 
ATOM      8  C   UNL     1      11.342  13.462  19.138  0.00  0.00    +0.000 A 
ATOM      9  C   UNL     1      11.414  12.602  18.033  0.00  0.00    +0.000 A 
ATOM     10  C   UNL     1      10.794  11.342  18.065  0.00  0.00    +0.000 A 
BRANCH   8  11
ATOM     11  C   UNL     1      11.970  14.833  19.125  0.00  0.00    +0.000 C 
BRANCH  11  12
ATOM     12  N   UNL     1      11.004  15.884  18.874  0.00  0.00    +0.000 N 
ATOM     13  C   UNL     1      10.481  16.734  19.917  0.00  0.00    +0.000 C 
ATOM     14  C   UNL     1       9.403  17.527  19.205  0.00  0.00    +0.000 C 
ATOM     15  C   UNL     1       9.927  17.642  17.779  0.00  0.00    +0.000 C 
ATOM     16  C   UNL     1      10.733  16.377  17.610  0.00  0.00    +0.000 C 
ATOM     17  O   UNL     1      11.118  15.920  16.546  0.00  0.00    +0.000 OA
ENDBRANCH  11  12
ENDBRANCH   8  11
ENDBRANCH   3   5
BRANCH   2  18
ATOM     18  C   UNL     1       7.917   7.970  18.269  0.00  0.00    +0.000 A 
ATOM     19  C   UNL     1       6.835   7.691  17.430  0.00  0.00    +0.000 A 
ATOM     20  C   UNL     1       6.226   6.442  17.465  0.00  0.00    +0.000 A 
ATOM     21  C   UNL     1       6.701   5.444  18.323  0.00  0.00    +0.000 A 
ATOM     22  C   UNL     1       7.743   5.754  19.210  0.00  0.00    +0.000 A 
ATOM     23  C   UNL     1       8.370   7.007  19.174  0.00  0.00    +0.000 A 
BRANCH  21  24
ATOM     24  N   UNL     1       6.108   4.169  18.364  0.00  0.00    +0.000 N 
ATOM     25  C   UNL     1       4.964   3.849  19.107  0.00  0.00    +0.000 A 
ATOM     26  N   UNL     1       4.060   4.810  19.375  0.00  0.00    +0.000 NA
ATOM     27  C   UNL     1       2.973   4.464  20.081  0.00  0.00    +0.000 A 
ATOM     28  C   UNL     1       2.740   3.190  20.520  0.00  0.00    +0.000 A 
ATOM     29  C   UNL     1       3.715   2.274  20.203  0.00  0.00    +0.000 A 
ATOM     30  N   UNL     1       4.831   2.576  19.507  0.00  0.00    +0.000 NA
ATOM     31  H   UNL     1       6.768   3.411  18.487  0.00  0.00    +0.000 HD
ENDBRANCH  21  24
ENDBRANCH   2  18
TORSDOF 5
ENDMDL
MODEL 8
REMARK VINA RESULT:      -8.5      0.918      1.490
REMARK  Name = 
REMARK  5 active torsions:
REMARK  status: ('A' for Active; 'I' for Inactive)
REMARK    1  A    between atoms: C_2  and  C_17
REMARK    2  A    between atoms: N_3  and  C_4
REMARK    3  A    between atoms: C_7  and  C_8
REMARK    4  A    between atoms: C_8  and  N_9
REMARK    5  A    between atoms: C_20  and  N_21
REMARK                            x       y       z     vdW  Elec       q    Type
REMARK                         _______ _______ _______ _____ _____    ______ ____
ROOT
ATOM      1  O   UNL     1       7.623   9.571  17.084  0.00  0.00    +0.000 OA
ATOM      2  C   UNL     1       7.960   8.798  17.977  0.00  0.00    +0.000 C 
ATOM      3  N   UNL     1       8.871   9.051  18.990  0.00  0.00    +0.000 N 
ATOM      4  H   UNL     1       9.184   8.267  19.549  0.00  0.00    +0.000 HD
ENDROOT
BRANCH   3   5
ATOM      5  C   UNL     1       9.582  10.268  19.139  0.00  0.00    +0.000 A 
ATOM      6  C   UNL     1      10.269  10.867  18.081  0.00  0.00    +0.000 A 
ATOM      7  C   UNL     1      11.048  12.006  18.278  0.00  0.00    +0.000 A 
ATOM      8  C   UNL     1      11.140  12.593  19.541  0.00  0.00    +0.000 A 
ATOM      9  C   UNL     1      10.397  12.041  20.593  0.00  0.00    +0.000 A 
ATOM     10  C   UNL     1       9.625  10.884  20.394  0.00  0.00    +0.000 A 
BRANCH   8  11
ATOM     11  C   UNL     1      12.003  13.817  19.729  0.00  0.00    +0.000 C 
BRANCH  11  12
ATOM     12  N   UNL     1      11.238  15.047  19.687  0.00  0.00    +0.000 N 
ATOM     13  C   UNL     1      10.901  15.803  20.870  0.00  0.00    +0.000 C 
ATOM     14  C   UNL     1       9.969  16.874  20.339  0.00  0.00    +0.000 C 
ATOM     15  C   UNL     1      10.472  17.116  18.922  0.00  0.00    +0.000 C 
ATOM     16  C   UNL     1      11.031  15.771  18.526  0.00  0.00    +0.000 C 
ATOM     17  O   UNL     1      11.302  15.424  17.388  0.00  0.00    +0.000 OA
ENDBRANCH  11  12
ENDBRANCH   8  11
ENDBRANCH   3   5
BRANCH   2  18
ATOM     18  C   UNL     1       7.389   7.437  17.906  0.00  0.00    +0.000 A 
ATOM     19  C   UNL     1       6.298   7.255  17.051  0.00  0.00    +0.000 A 
ATOM     20  C   UNL     1       5.671   6.018  16.970  0.00  0.00    +0.000 A 
ATOM     21  C   UNL     1       6.135   4.936  17.726  0.00  0.00    +0.000 A 
ATOM     22  C   UNL     1       7.186   5.143  18.631  0.00  0.00    +0.000 A 
ATOM     23  C   UNL     1       7.831   6.385  18.711  0.00  0.00    +0.000 A 
BRANCH  21  24
ATOM     24  N   UNL     1       5.522   3.671  17.648  0.00  0.00    +0.000 N 
ATOM     25  C   UNL     1       4.162   3.433  17.884  0.00  0.00    +0.000 A 
ATOM     26  N   UNL     1       3.270   4.415  17.659  0.00  0.00    +0.000 NA
ATOM     27  C   UNL     1       1.975   4.147  17.886  0.00  0.00    +0.000 A 
ATOM     28  C   UNL     1       1.528   2.928  18.318  0.00  0.00    +0.000 A 
ATOM     29  C   UNL     1       2.507   1.985  18.523  0.00  0.00    +0.000 A 
ATOM     30  N   UNL     1       3.822   2.211  18.321  0.00  0.00    +0.000 NA
ATOM     31  H   UNL     1       6.041   2.933  18.107  0.00  0.00    +0.000 HD
ENDBRANCH  21  24
ENDBRANCH   2  18
TORSDOF 5
ENDMDL
MODEL 9
REMARK VINA RESULT:      -8.4      7.780     11.317
REMARK  Name = 
REMARK  5 active torsions:
REMARK  status: ('A' for Active; 'I' for Inactive)
REMARK    1  A    between atoms: C_2  and  C_17
REMARK    2  A    between atoms: N_3  and  C_4
REMARK    3  A    between atoms: C_7  and  C_8
REMARK    4  A    between atoms: C_8  and  N_9
REMARK    5  A    between atoms: C_20  and  N_21
REMARK                            x       y       z     vdW  Elec       q    Type
REMARK                         _______ _______ _______ _____ _____    ______ ____
ROOT
ATOM      1  O   UNL     1       0.853   9.472  18.914  0.00  0.00    +0.000 OA
ATOM      2  C   UNL     1       0.899   9.231  20.118  0.00  0.00    +0.000 C 
ATOM      3  N   UNL     1       1.420   8.095  20.715  0.00  0.00    +0.000 N 
ATOM      4  H   UNL     1       1.233   7.951  21.700  0.00  0.00    +0.000 HD
ENDROOT
BRANCH   3   5
ATOM      5  C   UNL     1       1.975   7.001  20.003  0.00  0.00    +0.000 A 
ATOM      6  C   UNL     1       1.981   5.702  20.516  0.00  0.00    +0.000 A 
ATOM      7  C   UNL     1       2.628   4.664  19.845  0.00  0.00    +0.000 A 
ATOM      8  C   UNL     1       3.266   4.896  18.626  0.00  0.00    +0.000 A 
ATOM      9  C   UNL     1       3.204   6.181  18.070  0.00  0.00    +0.000 A 
ATOM     10  C   UNL     1       2.564   7.227  18.755  0.00  0.00    +0.000 A 
BRANCH   8  11
ATOM     11  C   UNL     1       3.971   3.758  17.930  0.00  0.00    +0.000 C 
BRANCH  11  12
ATOM     12  N   UNL     1       5.252   4.153  17.378  0.00  0.00    +0.000 N 
ATOM     13  C   UNL     1       5.449   4.437  15.977  0.00  0.00    +0.000 C 
ATOM     14  C   UNL     1       6.950   4.621  15.872  0.00  0.00    +0.000 C 
ATOM     15  C   UNL     1       7.336   5.195  17.230  0.00  0.00    +0.000 C 
ATOM     16  C   UNL     1       6.307   4.594  18.157  0.00  0.00    +0.000 C 
ATOM     17  O   UNL     1       6.383   4.566  19.374  0.00  0.00    +0.000 OA
ENDBRANCH  11  12
ENDBRANCH   8  11
ENDBRANCH   3   5
BRANCH   2  18
ATOM     18  C   UNL     1       0.261  10.228  21.003  0.00  0.00    +0.000 A 
ATOM     19  C   UNL     1      -0.294   9.749  22.193  0.00  0.00    +0.000 A 
ATOM     20  C   UNL     1      -0.960  10.615  23.053  0.00  0.00    +0.000 A 
ATOM     21  C   UNL     1      -1.064  11.976  22.749  0.00  0.00    +0.000 A 
ATOM     22  C   UNL     1      -0.563  12.436  21.521  0.00  0.00    +0.000 A 
ATOM     23  C   UNL     1       0.119  11.572  20.654  0.00  0.00    +0.000 A 
BRANCH  21  24
ATOM     24  N   UNL     1      -1.721  12.872  23.612  0.00  0.00    +0.000 N 
ATOM     25  C   UNL     1      -3.043  13.307  23.447  0.00  0.00    +0.000 A 
ATOM     26  N   UNL     1      -3.925  12.513  22.813  0.00  0.00    +0.000 NA
ATOM     27  C   UNL     1      -5.185  12.959  22.683  0.00  0.00    +0.000 A 
ATOM     28  C   UNL     1      -5.606  14.163  23.175  0.00  0.00    +0.000 A 
ATOM     29  C   UNL     1      -4.639  14.909  23.807  0.00  0.00    +0.000 A 
ATOM     30  N   UNL     1      -3.358  14.509  23.951  0.00  0.00    +0.000 NA
ATOM     31  H   UNL     1      -1.168  13.681  23.866  0.00  0.00    +0.000 HD
ENDBRANCH  21  24
ENDBRANCH   2  18
TORSDOF 5
ENDMDL
