MODEL 1
REMARK VINA RESULT:      -8.0      0.000      0.000
REMARK  Name = 
REMARK  4 active torsions:
REMARK  status: ('A' for Active; 'I' for Inactive)
REMARK    1  A    between atoms: C_4  and  C_5
REMARK    2  A    between atoms: N_10  and  C_11
REMARK    3  A    between atoms: C_11  and  C_12
REMARK    4  A    between atoms: C_15  and  C_16
REMARK                            x       y       z     vdW  Elec       q    Type
REMARK                         _______ _______ _______ _____ _____    ______ ____
ROOT
ATOM      1  C   UNL     1       3.421   4.204  19.950  0.00  0.00    +0.000 A 
ATOM      2  C   UNL     1       2.257   3.811  20.575  0.00  0.00    +0.000 A 
ATOM      3  C   UNL     1       1.443   4.969  20.661  0.00  0.00    +0.000 A 
ATOM      4  C   UNL     1       2.157   6.024  20.112  0.00  0.00    +0.000 A 
ATOM      5  O   UNL     1       3.367   5.537  19.674  0.00  0.00    +0.000 OA
ENDROOT
BRANCH   4   6
ATOM      6  C   UNL     1       1.766   7.404  19.991  0.00  0.00    +0.000 A 
ATOM      7  N   UNL     1       1.202   8.075  20.975  0.00  0.00    +0.000 NA
ATOM      8  C   UNL     1       0.985   9.387  20.582  0.00  0.00    +0.000 A 
ATOM      9  C   UNL     1       0.422  10.410  21.375  0.00  0.00    +0.000 A 
ATOM     10  C   UNL     1       0.278  11.700  20.850  0.00  0.00    +0.000 A 
ATOM     11  C   UNL     1       0.679  11.982  19.548  0.00  0.00    +0.000 A 
ATOM     12  C   UNL     1       1.231  10.985  18.740  0.00  0.00    +0.000 A 
ATOM     13  C   UNL     1       1.378   9.695  19.279  0.00  0.00    +0.000 A 
ATOM     14  S   UNL     1       2.027   8.284  18.542  0.00  0.00    +0.000 S 
ENDBRANCH   4   6
BRANCH   1  15
ATOM     15  C   UNL     1       4.640   3.482  19.497  0.00  0.00    +0.000 C 
BRANCH  15  22
ATOM     16  O   UNL     1       6.954   5.271  19.790  0.00  0.00    +0.000 OA
ATOM     17  C   UNL     1       6.401   5.050  18.725  0.00  0.00    +0.000 C 
ATOM     18  N   UNL     1       6.775   5.641  17.542  0.00  0.00    +0.000 N 
ATOM     19  C   UNL     1       5.978   5.198  16.432  0.00  0.00    +0.000 C 
ATOM     20  C   UNL     1       4.992   4.280  17.166  0.00  0.00    +0.000 C 
ATOM     21  O   UNL     1       4.071   3.666  16.640  0.00  0.00    +0.000 OA
ATOM     22  N   UNL     1       5.334   4.242  18.486  0.00  0.00    +0.000 N 
ATOM     23  H   UNL     1       7.563   6.271  17.492  0.00  0.00    +0.000 HD
BRANCH  19  24
ATOM     24  C   UNL     1       6.841   4.473  15.448  0.00  0.00    +0.000 C 
ATOM     25  C   UNL     1       7.143   5.071  14.093  0.00  0.00    +0.000 C 
ATOM     26  C   UNL     1       6.255   3.865  14.197  0.00  0.00    +0.000 C 
ENDBRANCH  19  24
ENDBRANCH  15  22
ENDBRANCH   1  15
TORSDOF 4
ENDMDL
MODEL 2
REMARK VINA RESULT:      -8.0      2.070      3.321
REMARK  Name = 
REMARK  4 active torsions:
REMARK  status: ('A' for Active; 'I' for Inactive)
REMARK    1  A    between atoms: C_4  and  C_5
REMARK    2  A    between atoms: N_10  and  C_11
REMARK    3  A    between atoms: C_11  and  C_12
REMARK    4  A    between atoms: C_15  and  C_16
REMARK                            x       y       z     vdW  Elec       q    Type
REMARK                         _______ _______ _______ _____ _____    ______ ____
ROOT
ATOM      1  C   UNL     1       2.640   6.952  19.177  0.00  0.00    +0.000 A 
ATOM      2  C   UNL     1       2.669   7.694  18.015  0.00  0.00    +0.000 A 
ATOM      3  C   UNL     1       1.903   8.860  18.272  0.00  0.00    +0.000 A 
ATOM      4  C   UNL     1       1.417   8.765  19.568  0.00  0.00    +0.000 A 
ATOM      5  O   UNL     1       1.883   7.591  20.112  0.00  0.00    +0.000 OA
ENDROOT
BRANCH   4   6
ATOM      6  C   UNL     1       0.571   9.688  20.278  0.00  0.00    +0.000 A 
ATOM      7  N   UNL     1      -0.172  10.590  19.667  0.00  0.00    +0.000 NA
ATOM      8  C   UNL     1      -0.911  11.298  20.603  0.00  0.00    +0.000 A 
ATOM      9  C   UNL     1      -1.837  12.326  20.326  0.00  0.00    +0.000 A 
ATOM     10  C   UNL     1      -2.529  12.944  21.375  0.00  0.00    +0.000 A 
ATOM     11  C   UNL     1      -2.305  12.558  22.693  0.00  0.00    +0.000 A 
ATOM     12  C   UNL     1      -1.387  11.548  22.995  0.00  0.00    +0.000 A 
ATOM     13  C   UNL     1      -0.704  10.929  21.933  0.00  0.00    +0.000 A 
ATOM     14  S   UNL     1       0.460   9.665  21.989  0.00  0.00    +0.000 S 
ENDBRANCH   4   6
BRANCH   1  15
ATOM     15  C   UNL     1       3.284   5.680  19.600  0.00  0.00    +0.000 C 
BRANCH  15  22
ATOM     16  O   UNL     1       1.718   3.973  17.790  0.00  0.00    +0.000 OA
ATOM     17  C   UNL     1       2.918   4.159  17.674  0.00  0.00    +0.000 C 
ATOM     18  N   UNL     1       3.685   3.563  16.702  0.00  0.00    +0.000 N 
ATOM     19  C   UNL     1       5.063   3.963  16.769  0.00  0.00    +0.000 C 
ATOM     20  C   UNL     1       5.016   4.859  18.013  0.00  0.00    +0.000 C 
ATOM     21  O   UNL     1       5.979   5.434  18.507  0.00  0.00    +0.000 OA
ATOM     22  N   UNL     1       3.726   4.928  18.451  0.00  0.00    +0.000 N 
ATOM     23  H   UNL     1       3.276   2.958  16.003  0.00  0.00    +0.000 HD
BRANCH  19  24
ATOM     24  C   UNL     1       5.436   4.700  15.522  0.00  0.00    +0.000 C 
ATOM     25  C   UNL     1       6.074   3.981  14.356  0.00  0.00    +0.000 C 
ATOM     26  C   UNL     1       6.882   4.951  15.168  0.00  0.00    +0.000 C 
ENDBRANCH  19  24
ENDBRANCH  15  22
ENDBRANCH   1  15
TORSDOF 4
ENDMDL
MODEL 3
REMARK VINA RESULT:      -8.0      1.984      3.194
REMARK  Name = 
REMARK  4 active torsions:
REMARK  status: ('A' for Active; 'I' for Inactive)
REMARK    1  A    between atoms: C_4  and  C_5
REMARK    2  A    between atoms: N_10  and  C_11
REMARK    3  A    between atoms: C_11  and  C_12
REMARK    4  A    between atoms: C_15  and  C_16
REMARK                            x       y       z     vdW  Elec       q    Type
REMARK                         _______ _______ _______ _____ _____    ______ ____
ROOT
ATOM      1  C   UNL     1       2.632   7.043  19.028  0.00  0.00    +0.000 A 
ATOM      2  C   UNL     1       2.835   7.828  17.914  0.00  0.00    +0.000 A 
ATOM      3  C   UNL     1       2.064   9.002  18.111  0.00  0.00    +0.000 A 
ATOM      4  C   UNL     1       1.403   8.870  19.323  0.00  0.00    +0.000 A 
ATOM      5  O   UNL     1       1.766   7.664  19.877  0.00  0.00    +0.000 OA
ENDROOT
BRANCH   4   6
ATOM      6  C   UNL     1       0.485   9.785  19.948  0.00  0.00    +0.000 A 
ATOM      7  N   UNL     1       0.295   9.826  21.251  0.00  0.00    +0.000 NA
ATOM      8  C   UNL     1      -0.605  10.836  21.562  0.00  0.00    +0.000 A 
ATOM      9  C   UNL     1      -1.036  11.197  22.856  0.00  0.00    +0.000 A 
ATOM     10  C   UNL     1      -1.939  12.255  23.021  0.00  0.00    +0.000 A 
ATOM     11  C   UNL     1      -2.422  12.950  21.917  0.00  0.00    +0.000 A 
ATOM     12  C   UNL     1      -2.017  12.607  20.624  0.00  0.00    +0.000 A 
ATOM     13  C   UNL     1      -1.105  11.549  20.470  0.00  0.00    +0.000 A 
ATOM     14  S   UNL     1      -0.422  10.912  19.027  0.00  0.00    +0.000 S 
ENDBRANCH   4   6
BRANCH   1  15
ATOM     15  C   UNL     1       3.187   5.740  19.482  0.00  0.00    +0.000 C 
BRANCH  15  22
ATOM     16  O   UNL     1       1.689   4.010  17.637  0.00  0.00    +0.000 OA
ATOM     17  C   UNL     1       2.892   4.196  17.562  0.00  0.00    +0.000 C 
ATOM     18  N   UNL     1       3.694   3.590  16.626  0.00  0.00    +0.000 N 
ATOM     19  C   UNL     1       5.069   3.992  16.738  0.00  0.00    +0.000 C 
ATOM     20  C   UNL     1       4.976   4.902  17.969  0.00  0.00    +0.000 C 
ATOM     21  O   UNL     1       5.920   5.485  18.491  0.00  0.00    +0.000 OA
ATOM     22  N   UNL     1       3.671   4.975  18.359  0.00  0.00    +0.000 N 
ATOM     23  H   UNL     1       3.311   2.976  15.920  0.00  0.00    +0.000 HD
BRANCH  19  24
ATOM     24  C   UNL     1       5.487   4.715  15.497  0.00  0.00    +0.000 C 
ATOM     25  C   UNL     1       6.064   3.965  14.319  0.00  0.00    +0.000 C 
ATOM     26  C   UNL     1       6.944   4.866  15.136  0.00  0.00    +0.000 C 
ENDBRANCH  19  24
ENDBRANCH  15  22
ENDBRANCH   1  15
TORSDOF 4
ENDMDL
MODEL 4
REMARK VINA RESULT:      -8.0      5.723      7.359
REMARK  Name = 
REMARK  4 active torsions:
REMARK  status: ('A' for Active; 'I' for Inactive)
REMARK    1  A    between atoms: C_4  and  C_5
REMARK    2  A    between atoms: N_10  and  C_11
REMARK    3  A    between atoms: C_11  and  C_12
REMARK    4  A    between atoms: C_15  and  C_16
REMARK                            x       y       z     vdW  Elec       q    Type
REMARK                         _______ _______ _______ _____ _____    ______ ____
ROOT
ATOM      1  C   UNL     1       7.871   7.236  18.443  0.00  0.00    +0.000 A 
ATOM      2  C   UNL     1       7.203   7.848  17.405  0.00  0.00    +0.000 A 
ATOM      3  C   UNL     1       7.699   9.175  17.343  0.00  0.00    +0.000 A 
ATOM      4  C   UNL     1       8.626   9.324  18.363  0.00  0.00    +0.000 A 
ATOM      5  O   UNL     1       8.725   8.123  19.027  0.00  0.00    +0.000 OA
ENDROOT
BRANCH   4   6
ATOM      6  C   UNL     1       9.383  10.494  18.723  0.00  0.00    +0.000 A 
ATOM      7  N   UNL     1      10.103  11.174  17.853  0.00  0.00    +0.000 NA
ATOM      8  C   UNL     1      10.676  12.272  18.477  0.00  0.00    +0.000 A 
ATOM      9  C   UNL     1      11.493  13.245  17.863  0.00  0.00    +0.000 A 
ATOM     10  C   UNL     1      11.991  14.315  18.617  0.00  0.00    +0.000 A 
ATOM     11  C   UNL     1      11.693  14.424  19.971  0.00  0.00    +0.000 A 
ATOM     12  C   UNL     1      10.893  13.470  20.605  0.00  0.00    +0.000 A 
ATOM     13  C   UNL     1      10.392  12.404  19.838  0.00  0.00    +0.000 A 
ATOM     14  S   UNL     1       9.385  11.100  20.328  0.00  0.00    +0.000 S 
ENDBRANCH   4   6
BRANCH   1  15
ATOM     15  C   UNL     1       7.877   5.852  18.989  0.00  0.00    +0.000 C 
BRANCH  15  22
ATOM     16  O   UNL     1       8.002   4.231  16.540  0.00  0.00    +0.000 OA
ATOM     17  C   UNL     1       6.999   4.341  17.226  0.00  0.00    +0.000 C 
ATOM     18  N   UNL     1       5.800   3.748  16.915  0.00  0.00    +0.000 N 
ATOM     19  C   UNL     1       4.784   4.017  17.894  0.00  0.00    +0.000 C 
ATOM     20  C   UNL     1       5.562   4.952  18.829  0.00  0.00    +0.000 C 
ATOM     21  O   UNL     1       5.107   5.486  19.834  0.00  0.00    +0.000 OA
ATOM     22  N   UNL     1       6.842   5.059  18.371  0.00  0.00    +0.000 N 
ATOM     23  H   UNL     1       5.700   3.151  16.105  0.00  0.00    +0.000 HD
BRANCH  19  24
ATOM     24  C   UNL     1       4.363   2.740  18.550  0.00  0.00    +0.000 C 
ATOM     25  C   UNL     1       3.163   1.970  18.051  0.00  0.00    +0.000 C 
ATOM     26  C   UNL     1       3.104   2.667  19.379  0.00  0.00    +0.000 C 
ENDBRANCH  19  24
ENDBRANCH  15  22
ENDBRANCH   1  15
TORSDOF 4
ENDMDL
MODEL 5
REMARK VINA RESULT:      -7.9      2.124      4.022
REMARK  Name = 
REMARK  4 active torsions:
REMARK  status: ('A' for Active; 'I' for Inactive)
REMARK    1  A    between atoms: C_4  and  C_5
REMARK    2  A    between atoms: N_10  and  C_11
REMARK    3  A    between atoms: C_11  and  C_12
REMARK    4  A    between atoms: C_15  and  C_16
REMARK                            x       y       z     vdW  Elec       q    Type
REMARK                         _______ _______ _______ _____ _____    ______ ____
ROOT
ATOM      1  C   UNL     1       3.710   5.680  17.244  0.00  0.00    +0.000 A 
ATOM      2  C   UNL     1       4.426   6.764  16.782  0.00  0.00    +0.000 A 
ATOM      3  C   UNL     1       3.890   7.900  17.440  0.00  0.00    +0.000 A 
ATOM      4  C   UNL     1       2.854   7.464  18.252  0.00  0.00    +0.000 A 
ATOM      5  O   UNL     1       2.759   6.098  18.125  0.00  0.00    +0.000 OA
ENDROOT
BRANCH   4   6
ATOM      6  C   UNL     1       1.989   8.244  19.099  0.00  0.00    +0.000 A 
ATOM      7  N   UNL     1       1.785   7.956  20.368  0.00  0.00    +0.000 NA
ATOM      8  C   UNL     1       0.949   8.907  20.935  0.00  0.00    +0.000 A 
ATOM      9  C   UNL     1       0.525   8.947  22.280  0.00  0.00    +0.000 A 
ATOM     10  C   UNL     1      -0.310   9.981  22.719  0.00  0.00    +0.000 A 
ATOM     11  C   UNL     1      -0.733  10.970  21.837  0.00  0.00    +0.000 A 
ATOM     12  C   UNL     1      -0.334  10.950  20.498  0.00  0.00    +0.000 A 
ATOM     13  C   UNL     1       0.510   9.911  20.069  0.00  0.00    +0.000 A 
ATOM     14  S   UNL     1       1.169   9.629  18.507  0.00  0.00    +0.000 S 
ENDBRANCH   4   6
BRANCH   1  15
ATOM     15  C   UNL     1       3.805   4.213  17.016  0.00  0.00    +0.000 C 
BRANCH  15  22
ATOM     16  O   UNL     1       6.153   4.048  18.777  0.00  0.00    +0.000 OA
ATOM     17  C   UNL     1       5.091   3.495  19.013  0.00  0.00    +0.000 C 
ATOM     18  N   UNL     1       4.880   2.700  20.113  0.00  0.00    +0.000 N 
ATOM     19  C   UNL     1       3.541   2.184  20.170  0.00  0.00    +0.000 C 
ATOM     20  C   UNL     1       2.988   2.749  18.854  0.00  0.00    +0.000 C 
ATOM     21  O   UNL     1       1.855   2.561  18.425  0.00  0.00    +0.000 OA
ATOM     22  N   UNL     1       3.953   3.513  18.269  0.00  0.00    +0.000 N 
ATOM     23  H   UNL     1       5.598   2.563  20.811  0.00  0.00    +0.000 HD
BRANCH  19  24
ATOM     24  C   UNL     1       2.844   2.716  21.382  0.00  0.00    +0.000 C 
ATOM     25  C   UNL     1       1.356   2.529  21.567  0.00  0.00    +0.000 C 
ATOM     26  C   UNL     1       1.909   3.896  21.288  0.00  0.00    +0.000 C 
ENDBRANCH  19  24
ENDBRANCH  15  22
ENDBRANCH   1  15
TORSDOF 4
ENDMDL
MODEL 6
REMARK VINA RESULT:      -7.9      0.827      1.260
REMARK  Name = 
REMARK  4 active torsions:
REMARK  status: ('A' for Active; 'I' for Inactive)
REMARK    1  A    between atoms: C_4  and  C_5
REMARK    2  A    between atoms: N_10  and  C_11
REMARK    3  A    between atoms: C_11  and  C_12
REMARK    4  A    between atoms: C_15  and  C_16
REMARK                            x       y       z     vdW  Elec       q    Type
REMARK                         _______ _______ _______ _____ _____    ______ ____
ROOT
ATOM      1  C   UNL     1       3.384   4.172  19.948  0.00  0.00    +0.000 A 
ATOM      2  C   UNL     1       2.169   3.748  20.444  0.00  0.00    +0.000 A 
ATOM      3  C   UNL     1       1.361   4.908  20.554  0.00  0.00    +0.000 A 
ATOM      4  C   UNL     1       2.125   5.992  20.148  0.00  0.00    +0.000 A 
ATOM      5  O   UNL     1       3.363   5.523  19.773  0.00  0.00    +0.000 OA
ENDROOT
BRANCH   4   6
ATOM      6  C   UNL     1       1.757   7.382  20.103  0.00  0.00    +0.000 A 
ATOM      7  N   UNL     1       1.979   8.146  19.052  0.00  0.00    +0.000 NA
ATOM      8  C   UNL     1       1.475   9.418  19.283  0.00  0.00    +0.000 A 
ATOM      9  C   UNL     1       1.504  10.501  18.379  0.00  0.00    +0.000 A 
ATOM     10  C   UNL     1       0.938  11.729  18.742  0.00  0.00    +0.000 A 
ATOM     11  C   UNL     1       0.352  11.894  19.993  0.00  0.00    +0.000 A 
ATOM     12  C   UNL     1       0.317  10.840  20.910  0.00  0.00    +0.000 A 
ATOM     13  C   UNL     1       0.882   9.609  20.532  0.00  0.00    +0.000 A 
ATOM     14  S   UNL     1       0.978   8.145  21.427  0.00  0.00    +0.000 S 
ENDBRANCH   4   6
BRANCH   1  15
ATOM     15  C   UNL     1       4.629   3.468  19.540  0.00  0.00    +0.000 C 
BRANCH  15  22
ATOM     16  O   UNL     1       7.061   5.120  19.521  0.00  0.00    +0.000 OA
ATOM     17  C   UNL     1       6.388   4.897  18.528  0.00  0.00    +0.000 C 
ATOM     18  N   UNL     1       6.669   5.422  17.290  0.00  0.00    +0.000 N 
ATOM     19  C   UNL     1       5.737   4.991  16.286  0.00  0.00    +0.000 C 
ATOM     20  C   UNL     1       4.781   4.162  17.155  0.00  0.00    +0.000 C 
ATOM     21  O   UNL     1       3.776   3.588  16.750  0.00  0.00    +0.000 OA
ATOM     22  N   UNL     1       5.257   4.148  18.433  0.00  0.00    +0.000 N 
ATOM     23  H   UNL     1       7.483   6.000  17.134  0.00  0.00    +0.000 HD
BRANCH  19  24
ATOM     24  C   UNL     1       6.448   4.180  15.249  0.00  0.00    +0.000 C 
ATOM     25  C   UNL     1       7.096   4.844  14.056  0.00  0.00    +0.000 C 
ATOM     26  C   UNL     1       5.869   4.000  13.868  0.00  0.00    +0.000 C 
ENDBRANCH  19  24
ENDBRANCH  15  22
ENDBRANCH   1  15
TORSDOF 4
ENDMDL
MODEL 7
REMARK VINA RESULT:      -7.9      2.076      4.143
REMARK  Name = 
REMARK  4 active torsions:
REMARK  status: ('A' for Active; 'I' for Inactive)
REMARK    1  A    between atoms: C_4  and  C_5
REMARK    2  A    between atoms: N_10  and  C_11
REMARK    3  A    between atoms: C_11  and  C_12
REMARK    4  A    between atoms: C_15  and  C_16
REMARK                            x       y       z     vdW  Elec       q    Type
REMARK                         _______ _______ _______ _____ _____    ______ ____
ROOT
ATOM      1  C   UNL     1       4.202   5.273  16.988  0.00  0.00    +0.000 A 
ATOM      2  C   UNL     1       4.990   6.301  16.517  0.00  0.00    +0.000 A 
ATOM      3  C   UNL     1       4.438   7.497  17.044  0.00  0.00    +0.000 A 
ATOM      4  C   UNL     1       3.321   7.149  17.789  0.00  0.00    +0.000 A 
ATOM      5  O   UNL     1       3.192   5.780  17.750  0.00  0.00    +0.000 OA
ENDROOT
BRANCH   4   6
ATOM      6  C   UNL     1       2.413   8.011  18.499  0.00  0.00    +0.000 A 
ATOM      7  N   UNL     1       1.880   9.087  17.956  0.00  0.00    +0.000 NA
ATOM      8  C   UNL     1       1.013   9.686  18.859  0.00  0.00    +0.000 A 
ATOM      9  C   UNL     1       0.240  10.843  18.627  0.00  0.00    +0.000 A 
ATOM     10  C   UNL     1      -0.610  11.327  19.629  0.00  0.00    +0.000 A 
ATOM     11  C   UNL     1      -0.694  10.680  20.857  0.00  0.00    +0.000 A 
ATOM     12  C   UNL     1       0.066   9.536  21.115  0.00  0.00    +0.000 A 
ATOM     13  C   UNL     1       0.911   9.054  20.099  0.00  0.00    +0.000 A 
ATOM     14  S   UNL     1       1.945   7.681  20.115  0.00  0.00    +0.000 S 
ENDBRANCH   4   6
BRANCH   1  15
ATOM     15  C   UNL     1       4.267   3.792  16.872  0.00  0.00    +0.000 C 
BRANCH  15  22
ATOM     16  O   UNL     1       5.694   3.718  19.441  0.00  0.00    +0.000 OA
ATOM     17  C   UNL     1       4.611   3.187  19.254  0.00  0.00    +0.000 C 
ATOM     18  N   UNL     1       3.948   2.462  20.214  0.00  0.00    +0.000 N 
ATOM     19  C   UNL     1       2.686   1.959  19.749  0.00  0.00    +0.000 C 
ATOM     20  C   UNL     1       2.731   2.447  18.294  0.00  0.00    +0.000 C 
ATOM     21  O   UNL     1       1.863   2.241  17.453  0.00  0.00    +0.000 OA
ATOM     22  N   UNL     1       3.874   3.168  18.112  0.00  0.00    +0.000 N 
ATOM     23  H   UNL     1       4.318   2.363  21.150  0.00  0.00    +0.000 HD
BRANCH  19  24
ATOM     24  C   UNL     1       1.575   2.568  20.544  0.00  0.00    +0.000 C 
ATOM     25  C   UNL     1       1.083   3.966  20.246  0.00  0.00    +0.000 C 
ATOM     26  C   UNL     1       1.837   3.693  21.515  0.00  0.00    +0.000 C 
ENDBRANCH  19  24
ENDBRANCH  15  22
ENDBRANCH   1  15
TORSDOF 4
ENDMDL
MODEL 8
REMARK VINA RESULT:      -7.8      1.669      2.756
REMARK  Name = 
REMARK  4 active torsions:
REMARK  status: ('A' for Active; 'I' for Inactive)
REMARK    1  A    between atoms: C_4  and  C_5
REMARK    2  A    between atoms: N_10  and  C_11
REMARK    3  A    between atoms: C_11  and  C_12
REMARK    4  A    between atoms: C_15  and  C_16
REMARK                            x       y       z     vdW  Elec       q    Type
REMARK                         _______ _______ _______ _____ _____    ______ ____
ROOT
ATOM      1  C   UNL     1       3.074   6.498  19.103  0.00  0.00    +0.000 A 
ATOM      2  C   UNL     1       3.108   7.196  17.915  0.00  0.00    +0.000 A 
ATOM      3  C   UNL     1       2.289   8.338  18.103  0.00  0.00    +0.000 A 
ATOM      4  C   UNL     1       1.768   8.273  19.387  0.00  0.00    +0.000 A 
ATOM      5  O   UNL     1       2.264   7.140  19.990  0.00  0.00    +0.000 OA
ENDROOT
BRANCH   4   6
ATOM      6  C   UNL     1       0.864   9.186  20.035  0.00  0.00    +0.000 A 
ATOM      7  N   UNL     1       0.575   9.113  21.318  0.00  0.00    +0.000 NA
ATOM      8  C   UNL     1      -0.280  10.150  21.665  0.00  0.00    +0.000 A 
ATOM      9  C   UNL     1      -0.788  10.413  22.955  0.00  0.00    +0.000 A 
ATOM     10  C   UNL     1      -1.632  11.511  23.162  0.00  0.00    +0.000 A 
ATOM     11  C   UNL     1      -1.982  12.343  22.103  0.00  0.00    +0.000 A 
ATOM     12  C   UNL     1      -1.499  12.100  20.815  0.00  0.00    +0.000 A 
ATOM     13  C   UNL     1      -0.646  10.999  20.619  0.00  0.00    +0.000 A 
ATOM     14  S   UNL     1       0.106  10.459  19.171  0.00  0.00    +0.000 S 
ENDBRANCH   4   6
BRANCH   1  15
ATOM     15  C   UNL     1       3.756   5.271  19.595  0.00  0.00    +0.000 C 
BRANCH  15  22
ATOM     16  O   UNL     1       2.974   3.159  17.705  0.00  0.00    +0.000 OA
ATOM     17  C   UNL     1       4.076   3.683  17.715  0.00  0.00    +0.000 C 
ATOM     18  N   UNL     1       5.093   3.321  16.866  0.00  0.00    +0.000 N 
ATOM     19  C   UNL     1       6.281   4.103  17.067  0.00  0.00    +0.000 C 
ATOM     20  C   UNL     1       5.829   4.964  18.254  0.00  0.00    +0.000 C 
ATOM     21  O   UNL     1       6.521   5.800  18.824  0.00  0.00    +0.000 OA
ATOM     22  N   UNL     1       4.530   4.663  18.540  0.00  0.00    +0.000 N 
ATOM     23  H   UNL     1       4.961   2.614  16.155  0.00  0.00    +0.000 HD
BRANCH  19  24
ATOM     24  C   UNL     1       6.576   4.900  15.836  0.00  0.00    +0.000 C 
ATOM     25  C   UNL     1       5.528   5.800  15.224  0.00  0.00    +0.000 C 
ATOM     26  C   UNL     1       5.947   4.548  14.510  0.00  0.00    +0.000 C 
ENDBRANCH  19  24
ENDBRANCH  15  22
ENDBRANCH   1  15
TORSDOF 4
ENDMDL
MODEL 9
REMARK VINA RESULT:      -7.8      5.162      6.848
REMARK  Name = 
REMARK  4 active torsions:
REMARK  status: ('A' for Active; 'I' for Inactive)
REMARK    1  A    between atoms: C_4  and  C_5
REMARK    2  A    between atoms: N_10  and  C_11
REMARK    3  A    between atoms: C_11  and  C_12
REMARK    4  A    between atoms: C_15  and  C_16
REMARK                            x       y       z     vdW  Elec       q    Type
REMARK                         _______ _______ _______ _____ _____    ______ ____
ROOT
ATOM      1  C   UNL     1       6.634   7.043  17.256  0.00  0.00    +0.000 A 
ATOM      2  C   UNL     1       7.505   6.335  18.055  0.00  0.00    +0.000 A 
ATOM      3  C   UNL     1       8.378   7.291  18.634  0.00  0.00    +0.000 A 
ATOM      4  C   UNL     1       8.019   8.537  18.141  0.00  0.00    +0.000 A 
ATOM      5  O   UNL     1       6.944   8.369  17.300  0.00  0.00    +0.000 OA
ENDROOT
BRANCH   4   6
ATOM      6  C   UNL     1       8.621   9.816  18.414  0.00  0.00    +0.000 A 
ATOM      7  N   UNL     1       9.498  10.001  19.381  0.00  0.00    +0.000 NA
ATOM      8  C   UNL     1       9.936  11.317  19.370  0.00  0.00    +0.000 A 
ATOM      9  C   UNL     1      10.893  11.882  20.240  0.00  0.00    +0.000 A 
ATOM     10  C   UNL     1      11.254  13.228  20.100  0.00  0.00    +0.000 A 
ATOM     11  C   UNL     1      10.671  14.017  19.114  0.00  0.00    +0.000 A 
ATOM     12  C   UNL     1       9.715  13.484  18.245  0.00  0.00    +0.000 A 
ATOM     13  C   UNL     1       9.366  12.130  18.389  0.00  0.00    +0.000 A 
ATOM     14  S   UNL     1       8.246  11.200  17.473  0.00  0.00    +0.000 S 
ENDBRANCH   4   6
BRANCH   1  15
ATOM     15  C   UNL     1       5.452   6.665  16.437  0.00  0.00    +0.000 C 
BRANCH  15  22
ATOM     16  O   UNL     1       3.212   8.060  17.733  0.00  0.00    +0.000 OA
ATOM     17  C   UNL     1       3.409   6.860  17.833  0.00  0.00    +0.000 C 
ATOM     18  N   UNL     1       2.626   6.025  18.592  0.00  0.00    +0.000 N 
ATOM     19  C   UNL     1       3.057   4.656  18.525  0.00  0.00    +0.000 C 
ATOM     20  C   UNL     1       4.301   4.817  17.642  0.00  0.00    +0.000 C 
ATOM     21  O   UNL     1       5.052   3.907  17.306  0.00  0.00    +0.000 OA
ATOM     22  N   UNL     1       4.407   6.125  17.272  0.00  0.00    +0.000 N 
ATOM     23  H   UNL     1       1.813   6.367  19.085  0.00  0.00    +0.000 HD
BRANCH  19  24
ATOM     24  C   UNL     1       1.988   3.820  17.897  0.00  0.00    +0.000 C 
ATOM     25  C   UNL     1       1.105   2.928  18.739  0.00  0.00    +0.000 C 
ATOM     26  C   UNL     1       2.120   2.318  17.816  0.00  0.00    +0.000 C 
ENDBRANCH  19  24
ENDBRANCH  15  22
ENDBRANCH   1  15
TORSDOF 4
ENDMDL
