MODEL 1
REMARK VINA RESULT:      -8.9      0.000      0.000
REMARK  Name = 
REMARK  3 active torsions:
REMARK  status: ('A' for Active; 'I' for Inactive)
REMARK    1  A    between atoms: C_2  and  C_16
REMARK    2  A    between atoms: N_3  and  C_4
REMARK    3  A    between atoms: C_8  and  N_9
REMARK                            x       y       z     vdW  Elec       q    Type
REMARK                         _______ _______ _______ _____ _____    ______ ____
ROOT
ATOM      1  O   UNL     1       8.335   6.646  18.962  0.00  0.00    +0.000 OA
ATOM      2  C   UNL     1       7.935   7.515  18.196  0.00  0.00    +0.000 C 
ATOM      3  N   UNL     1       7.129   7.310  17.094  0.00  0.00    +0.000 N 
ATOM      4  H   UNL     1       6.998   8.105  16.487  0.00  0.00    +0.000 HD
ENDROOT
BRANCH   2   5
ATOM      5  C   UNL     1       8.361   8.895  18.355  0.00  0.00    +0.000 A 
ATOM      6  C   UNL     1       8.197  10.021  17.566  0.00  0.00    +0.000 A 
ATOM      7  C   UNL     1       8.988  11.068  18.113  0.00  0.00    +0.000 A 
ATOM      8  C   UNL     1       9.302  12.374  17.696  0.00  0.00    +0.000 A 
ATOM      9  C   UNL     1      10.209  13.130  18.447  0.00  0.00    +0.000 A 
ATOM     10  C   UNL     1      10.767  12.614  19.615  0.00  0.00    +0.000 A 
ATOM     11  C   UNL     1      10.434  11.335  20.072  0.00  0.00    +0.000 A 
ATOM     12  C   UNL     1       9.553  10.581  19.289  0.00  0.00    +0.000 A 
ATOM     13  N   UNL     1       9.088   9.299  19.456  0.00  0.00    +0.000 N 
ATOM     14  H   UNL     1       9.325   8.685  20.225  0.00  0.00    +0.000 HD
ENDBRANCH   2   5
BRANCH   3  15
ATOM     15  C   UNL     1       6.540   6.106  16.659  0.00  0.00    +0.000 A 
ATOM     16  C   UNL     1       6.938   5.421  15.516  0.00  0.00    +0.000 A 
ATOM     17  C   UNL     1       6.321   4.219  15.180  0.00  0.00    +0.000 A 
ATOM     18  C   UNL     1       5.294   3.699  15.974  0.00  0.00    +0.000 A 
ATOM     19  C   UNL     1       4.853   4.373  17.120  0.00  0.00    +0.000 A 
ATOM     20  C   UNL     1       5.503   5.577  17.450  0.00  0.00    +0.000 A 
BRANCH  19  21
ATOM     21  N   UNL     1       3.782   3.874  17.918  0.00  0.00    +0.000 N 
ATOM     22  C   UNL     1       2.406   3.887  17.475  0.00  0.00    +0.000 C 
ATOM     23  C   UNL     1       1.601   3.558  18.715  0.00  0.00    +0.000 C 
ATOM     24  C   UNL     1       2.532   2.679  19.522  0.00  0.00    +0.000 C 
ATOM     25  C   UNL     1       3.905   3.166  19.125  0.00  0.00    +0.000 C 
ATOM     26  O   UNL     1       4.906   2.897  19.774  0.00  0.00    +0.000 OA
ENDBRANCH  19  21
ENDBRANCH   3  15
TORSDOF 3
ENDMDL
MODEL 2
REMARK VINA RESULT:      -8.7      1.152      1.406
REMARK  Name = 
REMARK  3 active torsions:
REMARK  status: ('A' for Active; 'I' for Inactive)
REMARK    1  A    between atoms: C_2  and  C_16
REMARK    2  A    between atoms: N_3  and  C_4
REMARK    3  A    between atoms: C_8  and  N_9
REMARK                            x       y       z     vdW  Elec       q    Type
REMARK                         _______ _______ _______ _____ _____    ______ ____
ROOT
ATOM      1  O   UNL     1       8.332   6.647  18.735  0.00  0.00    +0.000 OA
ATOM      2  C   UNL     1       7.776   7.572  18.157  0.00  0.00    +0.000 C 
ATOM      3  N   UNL     1       6.707   7.457  17.290  0.00  0.00    +0.000 N 
ATOM      4  H   UNL     1       6.449   8.294  16.791  0.00  0.00    +0.000 HD
ENDROOT
BRANCH   2   5
ATOM      5  C   UNL     1       8.272   8.932  18.288  0.00  0.00    +0.000 A 
ATOM      6  C   UNL     1       8.059  10.081  17.545  0.00  0.00    +0.000 A 
ATOM      7  C   UNL     1       8.950  11.085  18.012  0.00  0.00    +0.000 A 
ATOM      8  C   UNL     1       9.262  12.388  17.584  0.00  0.00    +0.000 A 
ATOM      9  C   UNL     1      10.281  13.093  18.234  0.00  0.00    +0.000 A 
ATOM     10  C   UNL     1      10.955  12.531  19.317  0.00  0.00    +0.000 A 
ATOM     11  C   UNL     1      10.629  11.254  19.787  0.00  0.00    +0.000 A 
ATOM     12  C   UNL     1       9.632  10.552  19.102  0.00  0.00    +0.000 A 
ATOM     13  N   UNL     1       9.140   9.284  19.301  0.00  0.00    +0.000 N 
ATOM     14  H   UNL     1       9.443   8.645  20.024  0.00  0.00    +0.000 HD
ENDBRANCH   2   5
BRANCH   3  15
ATOM     15  C   UNL     1       5.988   6.295  16.946  0.00  0.00    +0.000 A 
ATOM     16  C   UNL     1       6.195   5.578  15.773  0.00  0.00    +0.000 A 
ATOM     17  C   UNL     1       5.460   4.420  15.530  0.00  0.00    +0.000 A 
ATOM     18  C   UNL     1       4.506   3.977  16.451  0.00  0.00    +0.000 A 
ATOM     19  C   UNL     1       4.256   4.685  17.633  0.00  0.00    +0.000 A 
ATOM     20  C   UNL     1       5.021   5.843  17.865  0.00  0.00    +0.000 A 
BRANCH  19  21
ATOM     21  N   UNL     1       3.259   4.266  18.563  0.00  0.00    +0.000 N 
ATOM     22  C   UNL     1       3.534   4.068  19.967  0.00  0.00    +0.000 C 
ATOM     23  C   UNL     1       2.310   3.355  20.501  0.00  0.00    +0.000 C 
ATOM     24  C   UNL     1       1.189   3.860  19.618  0.00  0.00    +0.000 C 
ATOM     25  C   UNL     1       1.881   4.156  18.310  0.00  0.00    +0.000 C 
ATOM     26  O   UNL     1       1.265   4.313  17.265  0.00  0.00    +0.000 OA
ENDBRANCH  19  21
ENDBRANCH   3  15
TORSDOF 3
ENDMDL
MODEL 3
REMARK VINA RESULT:      -8.5      4.613      6.698
REMARK  Name = 
REMARK  3 active torsions:
REMARK  status: ('A' for Active; 'I' for Inactive)
REMARK    1  A    between atoms: C_2  and  C_16
REMARK    2  A    between atoms: N_3  and  C_4
REMARK    3  A    between atoms: C_8  and  N_9
REMARK                            x       y       z     vdW  Elec       q    Type
REMARK                         _______ _______ _______ _____ _____    ______ ____
ROOT
ATOM      1  O   UNL     1       2.812   5.386  18.487  0.00  0.00    +0.000 OA
ATOM      2  C   UNL     1       3.195   6.534  18.302  0.00  0.00    +0.000 C 
ATOM      3  N   UNL     1       4.453   6.905  17.869  0.00  0.00    +0.000 N 
ATOM      4  H   UNL     1       4.657   7.892  17.895  0.00  0.00    +0.000 HD
ENDROOT
BRANCH   2   5
ATOM      5  C   UNL     1       2.331   7.661  18.609  0.00  0.00    +0.000 A 
ATOM      6  C   UNL     1       1.891   8.735  17.853  0.00  0.00    +0.000 A 
ATOM      7  C   UNL     1       1.218   9.642  18.717  0.00  0.00    +0.000 A 
ATOM      8  C   UNL     1       0.667  10.925  18.547  0.00  0.00    +0.000 A 
ATOM      9  C   UNL     1       0.142  11.593  19.658  0.00  0.00    +0.000 A 
ATOM     10  C   UNL     1       0.126  10.985  20.912  0.00  0.00    +0.000 A 
ATOM     11  C   UNL     1       0.628   9.691  21.094  0.00  0.00    +0.000 A 
ATOM     12  C   UNL     1       1.181   9.054  19.979  0.00  0.00    +0.000 A 
ATOM     13  N   UNL     1       1.781   7.822  19.863  0.00  0.00    +0.000 N 
ATOM     14  H   UNL     1       1.904   7.158  20.617  0.00  0.00    +0.000 HD
ENDBRANCH   2   5
BRANCH   3  15
ATOM     15  C   UNL     1       5.521   6.071  17.482  0.00  0.00    +0.000 A 
ATOM     16  C   UNL     1       6.469   5.570  18.368  0.00  0.00    +0.000 A 
ATOM     17  C   UNL     1       7.472   4.725  17.901  0.00  0.00    +0.000 A 
ATOM     18  C   UNL     1       7.544   4.384  16.548  0.00  0.00    +0.000 A 
ATOM     19  C   UNL     1       6.618   4.886  15.624  0.00  0.00    +0.000 A 
ATOM     20  C   UNL     1       5.603   5.725  16.120  0.00  0.00    +0.000 A 
BRANCH  19  21
ATOM     21  N   UNL     1       6.702   4.577  14.234  0.00  0.00    +0.000 N 
ATOM     22  C   UNL     1       5.702   3.793  13.547  0.00  0.00    +0.000 C 
ATOM     23  C   UNL     1       6.325   3.466  12.207  0.00  0.00    +0.000 C 
ATOM     24  C   UNL     1       7.232   4.647  11.937  0.00  0.00    +0.000 C 
ATOM     25  C   UNL     1       7.627   5.107  13.320  0.00  0.00    +0.000 C 
ATOM     26  O   UNL     1       8.573   5.857  13.513  0.00  0.00    +0.000 OA
ENDBRANCH  19  21
ENDBRANCH   3  15
TORSDOF 3
ENDMDL
MODEL 4
REMARK VINA RESULT:      -8.4      5.236      7.488
REMARK  Name = 
REMARK  3 active torsions:
REMARK  status: ('A' for Active; 'I' for Inactive)
REMARK    1  A    between atoms: C_2  and  C_16
REMARK    2  A    between atoms: N_3  and  C_4
REMARK    3  A    between atoms: C_8  and  N_9
REMARK                            x       y       z     vdW  Elec       q    Type
REMARK                         _______ _______ _______ _____ _____    ______ ____
ROOT
ATOM      1  O   UNL     1       2.290   7.738  18.893  0.00  0.00    +0.000 OA
ATOM      2  C   UNL     1       1.888   7.568  20.037  0.00  0.00    +0.000 C 
ATOM      3  N   UNL     1       1.984   6.396  20.761  0.00  0.00    +0.000 N 
ATOM      4  H   UNL     1       1.486   6.375  21.638  0.00  0.00    +0.000 HD
ENDROOT
BRANCH   2   5
ATOM      5  C   UNL     1       1.175   8.624  20.735  0.00  0.00    +0.000 A 
ATOM      6  C   UNL     1       0.776   8.771  22.053  0.00  0.00    +0.000 A 
ATOM      7  C   UNL     1      -0.061   9.917  22.141  0.00  0.00    +0.000 A 
ATOM      8  C   UNL     1      -0.830  10.487  23.172  0.00  0.00    +0.000 A 
ATOM      9  C   UNL     1      -1.630  11.600  22.889  0.00  0.00    +0.000 A 
ATOM     10  C   UNL     1      -1.638  12.163  21.614  0.00  0.00    +0.000 A 
ATOM     11  C   UNL     1      -0.847  11.639  20.587  0.00  0.00    +0.000 A 
ATOM     12  C   UNL     1      -0.081  10.506  20.879  0.00  0.00    +0.000 A 
ATOM     13  N   UNL     1       0.743   9.755  20.074  0.00  0.00    +0.000 N 
ATOM     14  H   UNL     1       0.930   9.937  19.097  0.00  0.00    +0.000 HD
ENDBRANCH   2   5
BRANCH   3  15
ATOM     15  C   UNL     1       2.614   5.192  20.388  0.00  0.00    +0.000 A 
ATOM     16  C   UNL     1       2.344   3.964  20.981  0.00  0.00    +0.000 A 
ATOM     17  C   UNL     1       2.991   2.818  20.525  0.00  0.00    +0.000 A 
ATOM     18  C   UNL     1       3.920   2.893  19.482  0.00  0.00    +0.000 A 
ATOM     19  C   UNL     1       4.232   4.116  18.875  0.00  0.00    +0.000 A 
ATOM     20  C   UNL     1       3.554   5.258  19.342  0.00  0.00    +0.000 A 
BRANCH  19  21
ATOM     21  N   UNL     1       5.205   4.213  17.837  0.00  0.00    +0.000 N 
ATOM     22  C   UNL     1       4.867   4.098  16.437  0.00  0.00    +0.000 C 
ATOM     23  C   UNL     1       6.199   3.960  15.732  0.00  0.00    +0.000 C 
ATOM     24  C   UNL     1       7.154   4.734  16.616  0.00  0.00    +0.000 C 
ATOM     25  C   UNL     1       6.548   4.591  17.991  0.00  0.00    +0.000 C 
ATOM     26  O   UNL     1       7.178   4.837  19.010  0.00  0.00    +0.000 OA
ENDBRANCH  19  21
ENDBRANCH   3  15
TORSDOF 3
ENDMDL
MODEL 5
REMARK VINA RESULT:      -8.1      0.933      1.424
REMARK  Name = 
REMARK  3 active torsions:
REMARK  status: ('A' for Active; 'I' for Inactive)
REMARK    1  A    between atoms: C_2  and  C_16
REMARK    2  A    between atoms: N_3  and  C_4
REMARK    3  A    between atoms: C_8  and  N_9
REMARK                            x       y       z     vdW  Elec       q    Type
REMARK                         _______ _______ _______ _____ _____    ______ ____
ROOT
ATOM      1  O   UNL     1       8.298   6.772  18.848  0.00  0.00    +0.000 OA
ATOM      2  C   UNL     1       7.843   7.685  18.170  0.00  0.00    +0.000 C 
ATOM      3  N   UNL     1       6.856   7.563  17.212  0.00  0.00    +0.000 N 
ATOM      4  H   UNL     1       6.686   8.380  16.646  0.00  0.00    +0.000 HD
ENDROOT
BRANCH   2   5
ATOM      5  C   UNL     1       8.386   9.028  18.276  0.00  0.00    +0.000 A 
ATOM      6  C   UNL     1       9.313   9.598  19.134  0.00  0.00    +0.000 A 
ATOM      7  C   UNL     1       9.325  11.001  18.908  0.00  0.00    +0.000 A 
ATOM      8  C   UNL     1       9.965  12.085  19.537  0.00  0.00    +0.000 A 
ATOM      9  C   UNL     1       9.683  13.386  19.106  0.00  0.00    +0.000 A 
ATOM     10  C   UNL     1       8.809  13.608  18.044  0.00  0.00    +0.000 A 
ATOM     11  C   UNL     1       8.196  12.543  17.376  0.00  0.00    +0.000 A 
ATOM     12  C   UNL     1       8.464  11.252  17.843  0.00  0.00    +0.000 A 
ATOM     13  N   UNL     1       7.980  10.035  17.425  0.00  0.00    +0.000 N 
ATOM     14  H   UNL     1       7.329   9.894  16.664  0.00  0.00    +0.000 HD
ENDBRANCH   2   5
BRANCH   3  15
ATOM     15  C   UNL     1       6.120   6.414  16.862  0.00  0.00    +0.000 A 
ATOM     16  C   UNL     1       6.234   5.766  15.637  0.00  0.00    +0.000 A 
ATOM     17  C   UNL     1       5.490   4.616  15.390  0.00  0.00    +0.000 A 
ATOM     18  C   UNL     1       4.619   4.110  16.359  0.00  0.00    +0.000 A 
ATOM     19  C   UNL     1       4.462   4.748  17.597  0.00  0.00    +0.000 A 
ATOM     20  C   UNL     1       5.236   5.899  17.830  0.00  0.00    +0.000 A 
BRANCH  19  21
ATOM     21  N   UNL     1       3.549   4.265  18.580  0.00  0.00    +0.000 N 
ATOM     22  C   UNL     1       2.136   4.569  18.549  0.00  0.00    +0.000 C 
ATOM     23  C   UNL     1       1.619   4.124  19.901  0.00  0.00    +0.000 C 
ATOM     24  C   UNL     1       2.531   2.974  20.271  0.00  0.00    +0.000 C 
ATOM     25  C   UNL     1       3.829   3.321  19.582  0.00  0.00    +0.000 C 
ATOM     26  O   UNL     1       4.888   2.784  19.874  0.00  0.00    +0.000 OA
ENDBRANCH  19  21
ENDBRANCH   3  15
TORSDOF 3
ENDMDL
MODEL 6
REMARK VINA RESULT:      -8.0      6.938      9.539
REMARK  Name = 
REMARK  3 active torsions:
REMARK  status: ('A' for Active; 'I' for Inactive)
REMARK    1  A    between atoms: C_2  and  C_16
REMARK    2  A    between atoms: N_3  and  C_4
REMARK    3  A    between atoms: C_8  and  N_9
REMARK                            x       y       z     vdW  Elec       q    Type
REMARK                         _______ _______ _______ _____ _____    ______ ____
ROOT
ATOM      1  O   UNL     1       2.594   8.762  17.242  0.00  0.00    +0.000 OA
ATOM      2  C   UNL     1       2.153   8.340  18.303  0.00  0.00    +0.000 C 
ATOM      3  N   UNL     1       1.303   9.021  19.152  0.00  0.00    +0.000 N 
ATOM      4  H   UNL     1       1.138   8.594  20.051  0.00  0.00    +0.000 HD
ENDROOT
BRANCH   2   5
ATOM      5  C   UNL     1       2.571   7.047  18.817  0.00  0.00    +0.000 A 
ATOM      6  C   UNL     1       3.365   6.042  18.288  0.00  0.00    +0.000 A 
ATOM      7  C   UNL     1       3.281   4.910  19.143  0.00  0.00    +0.000 A 
ATOM      8  C   UNL     1       3.769   3.593  19.070  0.00  0.00    +0.000 A 
ATOM      9  C   UNL     1       3.419   2.680  20.071  0.00  0.00    +0.000 A 
ATOM     10  C   UNL     1       2.631   3.076  21.150  0.00  0.00    +0.000 A 
ATOM     11  C   UNL     1       2.173   4.393  21.266  0.00  0.00    +0.000 A 
ATOM     12  C   UNL     1       2.503   5.281  20.237  0.00  0.00    +0.000 A 
ATOM     13  N   UNL     1       2.163   6.601  20.057  0.00  0.00    +0.000 N 
ATOM     14  H   UNL     1       1.598   7.152  20.690  0.00  0.00    +0.000 HD
ENDBRANCH   2   5
BRANCH   3  15
ATOM     15  C   UNL     1       0.709  10.284  18.958  0.00  0.00    +0.000 A 
ATOM     16  C   UNL     1       1.383  11.488  19.124  0.00  0.00    +0.000 A 
ATOM     17  C   UNL     1       0.724  12.690  18.878  0.00  0.00    +0.000 A 
ATOM     18  C   UNL     1      -0.615  12.698  18.477  0.00  0.00    +0.000 A 
ATOM     19  C   UNL     1      -1.332  11.505  18.321  0.00  0.00    +0.000 A 
ATOM     20  C   UNL     1      -0.641  10.302  18.559  0.00  0.00    +0.000 A 
BRANCH  19  21
ATOM     21  N   UNL     1      -2.709  11.500  17.950  0.00  0.00    +0.000 N 
ATOM     22  C   UNL     1      -3.762  11.911  18.851  0.00  0.00    +0.000 C 
ATOM     23  C   UNL     1      -5.041  11.470  18.172  0.00  0.00    +0.000 C 
ATOM     24  C   UNL     1      -4.707  11.545  16.697  0.00  0.00    +0.000 C 
ATOM     25  C   UNL     1      -3.222  11.276  16.662  0.00  0.00    +0.000 C 
ATOM     26  O   UNL     1      -2.638  10.973  15.631  0.00  0.00    +0.000 OA
ENDBRANCH  19  21
ENDBRANCH   3  15
TORSDOF 3
ENDMDL
MODEL 7
REMARK VINA RESULT:      -8.0      2.073      3.764
REMARK  Name = 
REMARK  3 active torsions:
REMARK  status: ('A' for Active; 'I' for Inactive)
REMARK    1  A    between atoms: C_2  and  C_16
REMARK    2  A    between atoms: N_3  and  C_4
REMARK    3  A    between atoms: C_8  and  N_9
REMARK                            x       y       z     vdW  Elec       q    Type
REMARK                         _______ _______ _______ _____ _____    ______ ____
ROOT
ATOM      1  O   UNL     1       8.522   7.069  19.001  0.00  0.00    +0.000 OA
ATOM      2  C   UNL     1       8.057   7.987  18.337  0.00  0.00    +0.000 C 
ATOM      3  N   UNL     1       7.081   7.869  17.367  0.00  0.00    +0.000 N 
ATOM      4  H   UNL     1       6.902   8.694  16.816  0.00  0.00    +0.000 HD
ENDROOT
BRANCH   2   5
ATOM      5  C   UNL     1       8.576   9.337  18.475  0.00  0.00    +0.000 A 
ATOM      6  C   UNL     1       8.529  10.447  17.648  0.00  0.00    +0.000 A 
ATOM      7  C   UNL     1       9.372  11.450  18.200  0.00  0.00    +0.000 A 
ATOM      8  C   UNL     1       9.798  12.717  17.760  0.00  0.00    +0.000 A 
ATOM      9  C   UNL     1      10.726  13.428  18.528  0.00  0.00    +0.000 A 
ATOM     10  C   UNL     1      11.196  12.910  19.734  0.00  0.00    +0.000 A 
ATOM     11  C   UNL     1      10.751  11.673  20.212  0.00  0.00    +0.000 A 
ATOM     12  C   UNL     1       9.850  10.961  19.413  0.00  0.00    +0.000 A 
ATOM     13  N   UNL     1       9.285   9.722  19.595  0.00  0.00    +0.000 N 
ATOM     14  H   UNL     1       9.443   9.117  20.390  0.00  0.00    +0.000 HD
ENDBRANCH   2   5
BRANCH   3  15
ATOM     15  C   UNL     1       6.368   6.715  16.987  0.00  0.00    +0.000 A 
ATOM     16  C   UNL     1       5.413   6.099  17.789  0.00  0.00    +0.000 A 
ATOM     17  C   UNL     1       4.732   4.979  17.318  0.00  0.00    +0.000 A 
ATOM     18  C   UNL     1       5.008   4.459  16.050  0.00  0.00    +0.000 A 
ATOM     19  C   UNL     1       5.978   5.041  15.224  0.00  0.00    +0.000 A 
ATOM     20  C   UNL     1       6.642   6.181  15.713  0.00  0.00    +0.000 A 
BRANCH  19  21
ATOM     21  N   UNL     1       6.297   4.499  13.944  0.00  0.00    +0.000 N 
ATOM     22  C   UNL     1       5.403   3.622  13.222  0.00  0.00    +0.000 C 
ATOM     23  C   UNL     1       6.243   3.063  12.094  0.00  0.00    +0.000 C 
ATOM     24  C   UNL     1       7.236   4.168  11.806  0.00  0.00    +0.000 C 
ATOM     25  C   UNL     1       7.395   4.852  13.142  0.00  0.00    +0.000 C 
ATOM     26  O   UNL     1       8.324   5.610  13.381  0.00  0.00    +0.000 OA
ENDBRANCH  19  21
ENDBRANCH   3  15
TORSDOF 3
ENDMDL
MODEL 8
REMARK VINA RESULT:      -7.9      5.829      7.640
REMARK  Name = 
REMARK  3 active torsions:
REMARK  status: ('A' for Active; 'I' for Inactive)
REMARK    1  A    between atoms: C_2  and  C_16
REMARK    2  A    between atoms: N_3  and  C_4
REMARK    3  A    between atoms: C_8  and  N_9
REMARK                            x       y       z     vdW  Elec       q    Type
REMARK                         _______ _______ _______ _____ _____    ______ ____
ROOT
ATOM      1  O   UNL     1       1.713   8.389  18.967  0.00  0.00    +0.000 OA
ATOM      2  C   UNL     1       1.447   8.188  20.145  0.00  0.00    +0.000 C 
ATOM      3  N   UNL     1       1.616   6.995  20.820  0.00  0.00    +0.000 N 
ATOM      4  H   UNL     1       1.225   6.951  21.747  0.00  0.00    +0.000 HD
ENDROOT
BRANCH   2   5
ATOM      5  C   UNL     1       0.829   9.227  20.952  0.00  0.00    +0.000 A 
ATOM      6  C   UNL     1      -0.032   9.182  22.036  0.00  0.00    +0.000 A 
ATOM      7  C   UNL     1      -0.473  10.505  22.310  0.00  0.00    +0.000 A 
ATOM      8  C   UNL     1      -1.414  11.056  23.200  0.00  0.00    +0.000 A 
ATOM      9  C   UNL     1      -1.676  12.429  23.149  0.00  0.00    +0.000 A 
ATOM     10  C   UNL     1      -0.989  13.252  22.258  0.00  0.00    +0.000 A 
ATOM     11  C   UNL     1      -0.018  12.732  21.397  0.00  0.00    +0.000 A 
ATOM     12  C   UNL     1       0.205  11.352  21.437  0.00  0.00    +0.000 A 
ATOM     13  N   UNL     1       1.048  10.564  20.690  0.00  0.00    +0.000 N 
ATOM     14  H   UNL     1       1.673  10.896  19.967  0.00  0.00    +0.000 HD
ENDBRANCH   2   5
BRANCH   3  15
ATOM     15  C   UNL     1       2.188   5.799  20.341  0.00  0.00    +0.000 A 
ATOM     16  C   UNL     1       1.573   4.556  20.440  0.00  0.00    +0.000 A 
ATOM     17  C   UNL     1       2.197   3.431  19.908  0.00  0.00    +0.000 A 
ATOM     18  C   UNL     1       3.445   3.536  19.285  0.00  0.00    +0.000 A 
ATOM     19  C   UNL     1       4.103   4.769  19.186  0.00  0.00    +0.000 A 
ATOM     20  C   UNL     1       3.446   5.895  19.716  0.00  0.00    +0.000 A 
BRANCH  19  21
ATOM     21  N   UNL     1       5.392   4.885  18.588  0.00  0.00    +0.000 N 
ATOM     22  C   UNL     1       6.552   5.349  19.314  0.00  0.00    +0.000 C 
ATOM     23  C   UNL     1       7.598   5.597  18.249  0.00  0.00    +0.000 C 
ATOM     24  C   UNL     1       7.255   4.592  17.171  0.00  0.00    +0.000 C 
ATOM     25  C   UNL     1       5.761   4.423  17.314  0.00  0.00    +0.000 C 
ATOM     26  O   UNL     1       5.076   3.911  16.441  0.00  0.00    +0.000 OA
ENDBRANCH  19  21
ENDBRANCH   3  15
TORSDOF 3
ENDMDL
MODEL 9
REMARK VINA RESULT:      -7.9      5.348      7.311
REMARK  Name = 
REMARK  3 active torsions:
REMARK  status: ('A' for Active; 'I' for Inactive)
REMARK    1  A    between atoms: C_2  and  C_16
REMARK    2  A    between atoms: N_3  and  C_4
REMARK    3  A    between atoms: C_8  and  N_9
REMARK                            x       y       z     vdW  Elec       q    Type
REMARK                         _______ _______ _______ _____ _____    ______ ____
ROOT
ATOM      1  O   UNL     1       2.446   7.945  18.650  0.00  0.00    +0.000 OA
ATOM      2  C   UNL     1       1.873   7.813  19.725  0.00  0.00    +0.000 C 
ATOM      3  N   UNL     1       1.853   6.666  20.493  0.00  0.00    +0.000 N 
ATOM      4  H   UNL     1       1.228   6.674  21.284  0.00  0.00    +0.000 HD
ENDROOT
BRANCH   2   5
ATOM      5  C   UNL     1       1.066   8.891  20.270  0.00  0.00    +0.000 A 
ATOM      6  C   UNL     1       0.863  10.202  19.872  0.00  0.00    +0.000 A 
ATOM      7  C   UNL     1       0.122  10.866  20.887  0.00  0.00    +0.000 A 
ATOM      8  C   UNL     1      -0.279  12.200  21.088  0.00  0.00    +0.000 A 
ATOM      9  C   UNL     1      -0.941  12.541  22.272  0.00  0.00    +0.000 A 
ATOM     10  C   UNL     1      -1.236  11.569  23.226  0.00  0.00    +0.000 A 
ATOM     11  C   UNL     1      -0.887  10.229  23.026  0.00  0.00    +0.000 A 
ATOM     12  C   UNL     1      -0.195   9.914  21.852  0.00  0.00    +0.000 A 
ATOM     13  N   UNL     1       0.311   8.715  21.411  0.00  0.00    +0.000 N 
ATOM     14  H   UNL     1       0.238   7.833  21.902  0.00  0.00    +0.000 HD
ENDBRANCH   2   5
BRANCH   3  15
ATOM     15  C   UNL     1       2.529   5.452  20.261  0.00  0.00    +0.000 A 
ATOM     16  C   UNL     1       2.301   4.290  20.990  0.00  0.00    +0.000 A 
ATOM     17  C   UNL     1       2.992   3.124  20.668  0.00  0.00    +0.000 A 
ATOM     18  C   UNL     1       3.922   3.113  19.625  0.00  0.00    +0.000 A 
ATOM     19  C   UNL     1       4.192   4.270  18.882  0.00  0.00    +0.000 A 
ATOM     20  C   UNL     1       3.471   5.432  19.214  0.00  0.00    +0.000 A 
BRANCH  19  21
ATOM     21  N   UNL     1       5.166   4.283  17.841  0.00  0.00    +0.000 N 
ATOM     22  C   UNL     1       4.818   4.154  16.444  0.00  0.00    +0.000 C 
ATOM     23  C   UNL     1       6.138   3.920  15.741  0.00  0.00    +0.000 C 
ATOM     24  C   UNL     1       7.139   4.658  16.603  0.00  0.00    +0.000 C 
ATOM     25  C   UNL     1       6.530   4.586  17.983  0.00  0.00    +0.000 C 
ATOM     26  O   UNL     1       7.176   4.820  18.995  0.00  0.00    +0.000 OA
ENDBRANCH  19  21
ENDBRANCH   3  15
TORSDOF 3
ENDMDL
