MODEL 1
REMARK VINA RESULT:      -8.3      0.000      0.000
REMARK  Name = 
REMARK  7 active torsions:
REMARK  status: ('A' for Active; 'I' for Inactive)
REMARK    1  A    between atoms: C_1  and  C_2
REMARK    2  A    between atoms: N_4  and  C_5
REMARK    3  A    between atoms: C_9  and  N_10
REMARK    4  A    between atoms: C_11  and  C_13
REMARK    5  A    between atoms: C_16  and  N_17
REMARK    6  A    between atoms: N_17  and  S_18
REMARK    7  A    between atoms: S_18  and  C_21
REMARK                            x       y       z     vdW  Elec       q    Type
REMARK                         _______ _______ _______ _____ _____    ______ ____
ROOT
ATOM      1  C   UNL     1       1.828   8.540  19.226  0.00  0.00    +0.000 A 
ATOM      2  C   UNL     1       1.722   7.639  20.292  0.00  0.00    +0.000 A 
ATOM      3  C   UNL     1       2.237   6.335  20.162  0.00  0.00    +0.000 A 
ATOM      4  C   UNL     1       2.848   5.937  18.968  0.00  0.00    +0.000 A 
ATOM      5  C   UNL     1       2.962   6.831  17.910  0.00  0.00    +0.000 A 
ATOM      6  C   UNL     1       2.449   8.118  18.036  0.00  0.00    +0.000 A 
ENDROOT
BRANCH   1   8
ATOM      7  N   UNL     1       0.425  10.292  20.284  0.00  0.00    +0.000 N 
ATOM      8  C   UNL     1       1.213   9.899  19.206  0.00  0.00    +0.000 C 
ATOM      9  O   UNL     1       1.503  10.604  18.239  0.00  0.00    +0.000 OA
ATOM     10  H   UNL     1       0.424   9.714  21.112  0.00  0.00    +0.000 HD
BRANCH   7  15
ATOM     11  C   UNL     1      -2.264  12.916  20.260  0.00  0.00    +0.000 A 
ATOM     12  C   UNL     1      -1.531  14.025  20.684  0.00  0.00    +0.000 A 
ATOM     13  C   UNL     1      -0.163  13.935  20.895  0.00  0.00    +0.000 A 
ATOM     14  C   UNL     1       0.486  12.719  20.720  0.00  0.00    +0.000 A 
ATOM     15  C   UNL     1      -0.222  11.561  20.379  0.00  0.00    +0.000 A 
ATOM     16  C   UNL     1      -1.604  11.673  20.125  0.00  0.00    +0.000 A 
BRANCH  11  20
ATOM     17  C   UNL     1      -6.052  12.842  20.283  0.00  0.00    +0.000 C 
ATOM     18  C   UNL     1      -4.674  12.720  20.878  0.00  0.00    +0.000 C 
ATOM     19  O   UNL     1      -4.549  12.398  22.055  0.00  0.00    +0.000 OA
ATOM     20  N   UNL     1      -3.653  13.013  19.980  0.00  0.00    +0.000 N 
ATOM     21  H   UNL     1      -3.917  13.423  19.094  0.00  0.00    +0.000 HD
ENDBRANCH  11  20
ENDBRANCH   7  15
ENDBRANCH   1   8
BRANCH   4  22
ATOM     22  N   UNL     1       3.342   4.622  18.771  0.00  0.00    +0.000 N 
ATOM     23  H   UNL     1       2.916   4.031  18.059  0.00  0.00    +0.000 HD
BRANCH  22  24
ATOM     24  S   UNL     1       4.980   4.307  18.996  0.00  0.00    +0.000 S 
ATOM     25  O   UNL     1       5.509   5.458  19.702  0.00  0.00    +0.000 OA
ATOM     26  O   UNL     1       5.131   2.973  19.538  0.00  0.00    +0.000 OA
BRANCH  24  27
ATOM     27  C   UNL     1       5.671   4.334  17.353  0.00  0.00    +0.000 A 
ATOM     28  C   UNL     1       4.857   4.064  16.243  0.00  0.00    +0.000 A 
ATOM     29  C   UNL     1       5.381   4.216  14.956  0.00  0.00    +0.000 A 
ATOM     30  C   UNL     1       6.694   4.642  14.789  0.00  0.00    +0.000 A 
ATOM     31  F   UNL     1       7.179   4.821  13.552  0.00  0.00    +0.000 F 
ATOM     32  C   UNL     1       7.508   4.905  15.885  0.00  0.00    +0.000 A 
ATOM     33  C   UNL     1       6.996   4.754  17.176  0.00  0.00    +0.000 A 
ENDBRANCH  24  27
ENDBRANCH  22  24
ENDBRANCH   4  22
TORSDOF 6
ENDMDL
MODEL 2
REMARK VINA RESULT:      -8.3      1.788      2.104
REMARK  Name = 
REMARK  7 active torsions:
REMARK  status: ('A' for Active; 'I' for Inactive)
REMARK    1  A    between atoms: C_1  and  C_2
REMARK    2  A    between atoms: N_4  and  C_5
REMARK    3  A    between atoms: C_9  and  N_10
REMARK    4  A    between atoms: C_11  and  C_13
REMARK    5  A    between atoms: C_16  and  N_17
REMARK    6  A    between atoms: N_17  and  S_18
REMARK    7  A    between atoms: S_18  and  C_21
REMARK                            x       y       z     vdW  Elec       q    Type
REMARK                         _______ _______ _______ _____ _____    ______ ____
ROOT
ATOM      1  C   UNL     1       1.734   7.546  20.393  0.00  0.00    +0.000 A 
ATOM      2  C   UNL     1       1.498   6.257  20.885  0.00  0.00    +0.000 A 
ATOM      3  C   UNL     1       1.805   5.136  20.090  0.00  0.00    +0.000 A 
ATOM      4  C   UNL     1       2.340   5.308  18.809  0.00  0.00    +0.000 A 
ATOM      5  C   UNL     1       2.584   6.586  18.321  0.00  0.00    +0.000 A 
ATOM      6  C   UNL     1       2.276   7.695  19.103  0.00  0.00    +0.000 A 
ENDROOT
BRANCH   1   8
ATOM      7  N   UNL     1       0.646   9.776  20.379  0.00  0.00    +0.000 N 
ATOM      8  C   UNL     1       1.336   8.801  21.094  0.00  0.00    +0.000 C 
ATOM      9  O   UNL     1       1.608   8.855  22.293  0.00  0.00    +0.000 OA
ATOM     10  H   UNL     1       0.297   9.539  19.461  0.00  0.00    +0.000 HD
BRANCH   7  15
ATOM     11  C   UNL     1      -1.149  12.266  22.545  0.00  0.00    +0.000 A 
ATOM     12  C   UNL     1      -0.539  13.447  22.123  0.00  0.00    +0.000 A 
ATOM     13  C   UNL     1       0.386  13.439  21.089  0.00  0.00    +0.000 A 
ATOM     14  C   UNL     1       0.741  12.238  20.487  0.00  0.00    +0.000 A 
ATOM     15  C   UNL     1       0.218  11.020  20.934  0.00  0.00    +0.000 A 
ATOM     16  C   UNL     1      -0.753  11.044  21.957  0.00  0.00    +0.000 A 
BRANCH  11  20
ATOM     17  C   UNL     1      -4.324  12.431  24.607  0.00  0.00    +0.000 C 
ATOM     18  C   UNL     1      -3.513  12.375  23.339  0.00  0.00    +0.000 C 
ATOM     19  O   UNL     1      -4.083  12.411  22.254  0.00  0.00    +0.000 OA
ATOM     20  N   UNL     1      -2.143  12.272  23.560  0.00  0.00    +0.000 N 
ATOM     21  H   UNL     1      -1.837  12.087  24.506  0.00  0.00    +0.000 HD
ENDBRANCH  11  20
ENDBRANCH   7  15
ENDBRANCH   1   8
BRANCH   4  22
ATOM     22  N   UNL     1       2.625   4.214  17.953  0.00  0.00    +0.000 N 
ATOM     23  H   UNL     1       2.296   4.237  16.989  0.00  0.00    +0.000 HD
BRANCH  22  24
ATOM     24  S   UNL     1       4.068   3.368  18.138  0.00  0.00    +0.000 S 
ATOM     25  O   UNL     1       4.590   3.758  19.433  0.00  0.00    +0.000 OA
ATOM     26  O   UNL     1       3.838   1.973  17.822  0.00  0.00    +0.000 OA
BRANCH  24  27
ATOM     27  C   UNL     1       5.152   4.058  16.902  0.00  0.00    +0.000 A 
ATOM     28  C   UNL     1       6.452   4.454  17.248  0.00  0.00    +0.000 A 
ATOM     29  C   UNL     1       7.331   4.870  16.245  0.00  0.00    +0.000 A 
ATOM     30  C   UNL     1       6.916   4.877  14.918  0.00  0.00    +0.000 A 
ATOM     31  F   UNL     1       7.775   5.242  13.957  0.00  0.00    +0.000 F 
ATOM     32  C   UNL     1       5.626   4.492  14.569  0.00  0.00    +0.000 A 
ATOM     33  C   UNL     1       4.737   4.076  15.563  0.00  0.00    +0.000 A 
ENDBRANCH  24  27
ENDBRANCH  22  24
ENDBRANCH   4  22
TORSDOF 6
ENDMDL
MODEL 3
REMARK VINA RESULT:      -8.3      4.412     11.107
REMARK  Name = 
REMARK  7 active torsions:
REMARK  status: ('A' for Active; 'I' for Inactive)
REMARK    1  A    between atoms: C_1  and  C_2
REMARK    2  A    between atoms: N_4  and  C_5
REMARK    3  A    between atoms: C_9  and  N_10
REMARK    4  A    between atoms: C_11  and  C_13
REMARK    5  A    between atoms: C_16  and  N_17
REMARK    6  A    between atoms: N_17  and  S_18
REMARK    7  A    between atoms: S_18  and  C_21
REMARK                            x       y       z     vdW  Elec       q    Type
REMARK                         _______ _______ _______ _____ _____    ______ ____
ROOT
ATOM      1  C   UNL     1       2.197   7.664  19.167  0.00  0.00    +0.000 A 
ATOM      2  C   UNL     1       1.607   7.802  20.429  0.00  0.00    +0.000 A 
ATOM      3  C   UNL     1       0.760   8.897  20.691  0.00  0.00    +0.000 A 
ATOM      4  C   UNL     1       0.512   9.848  19.695  0.00  0.00    +0.000 A 
ATOM      5  C   UNL     1       1.089   9.709  18.439  0.00  0.00    +0.000 A 
ATOM      6  C   UNL     1       1.931   8.632  18.181  0.00  0.00    +0.000 A 
ENDROOT
BRANCH   1   8
ATOM      7  N   UNL     1       4.268   6.966  17.990  0.00  0.00    +0.000 N 
ATOM      8  C   UNL     1       3.202   6.620  18.817  0.00  0.00    +0.000 C 
ATOM      9  O   UNL     1       3.036   5.519  19.343  0.00  0.00    +0.000 OA
ATOM     10  H   UNL     1       4.415   7.945  17.786  0.00  0.00    +0.000 HD
BRANCH   7  15
ATOM     11  C   UNL     1       6.228   4.548  15.887  0.00  0.00    +0.000 A 
ATOM     12  C   UNL     1       7.346   4.362  16.701  0.00  0.00    +0.000 A 
ATOM     13  C   UNL     1       7.420   4.954  17.953  0.00  0.00    +0.000 A 
ATOM     14  C   UNL     1       6.388   5.773  18.394  0.00  0.00    +0.000 A 
ATOM     15  C   UNL     1       5.287   6.056  17.578  0.00  0.00    +0.000 A 
ATOM     16  C   UNL     1       5.202   5.415  16.325  0.00  0.00    +0.000 A 
BRANCH  11  20
ATOM     17  C   UNL     1       6.349   3.480  12.254  0.00  0.00    +0.000 C 
ATOM     18  C   UNL     1       6.702   4.328  13.447  0.00  0.00    +0.000 C 
ATOM     19  O   UNL     1       7.452   5.288  13.306  0.00  0.00    +0.000 OA
ATOM     20  N   UNL     1       6.114   3.895  14.631  0.00  0.00    +0.000 N 
ATOM     21  H   UNL     1       5.654   2.994  14.619  0.00  0.00    +0.000 HD
ENDBRANCH  11  20
ENDBRANCH   7  15
ENDBRANCH   1   8
BRANCH   4  22
ATOM     22  N   UNL     1      -0.297  10.990  19.922  0.00  0.00    +0.000 N 
ATOM     23  H   UNL     1      -1.281  10.865  20.157  0.00  0.00    +0.000 HD
BRANCH  22  24
ATOM     24  S   UNL     1       0.379  12.362  20.623  0.00  0.00    +0.000 S 
ATOM     25  O   UNL     1       1.552  11.901  21.339  0.00  0.00    +0.000 OA
ATOM     26  O   UNL     1       0.486  13.399  19.617  0.00  0.00    +0.000 OA
BRANCH  24  27
ATOM     27  C   UNL     1      -0.815  12.876  21.842  0.00  0.00    +0.000 A 
ATOM     28  C   UNL     1      -1.843  12.005  22.232  0.00  0.00    +0.000 A 
ATOM     29  C   UNL     1      -2.691  12.372  23.280  0.00  0.00    +0.000 A 
ATOM     30  C   UNL     1      -2.503  13.586  23.932  0.00  0.00    +0.000 A 
ATOM     31  F   UNL     1      -3.296  13.916  24.960  0.00  0.00    +0.000 F 
ATOM     32  C   UNL     1      -1.490  14.457  23.546  0.00  0.00    +0.000 A 
ATOM     33  C   UNL     1      -0.637  14.102  22.497  0.00  0.00    +0.000 A 
ENDBRANCH  24  27
ENDBRANCH  22  24
ENDBRANCH   4  22
TORSDOF 6
ENDMDL
MODEL 4
REMARK VINA RESULT:      -8.3      4.318     11.147
REMARK  Name = 
REMARK  7 active torsions:
REMARK  status: ('A' for Active; 'I' for Inactive)
REMARK    1  A    between atoms: C_1  and  C_2
REMARK    2  A    between atoms: N_4  and  C_5
REMARK    3  A    between atoms: C_9  and  N_10
REMARK    4  A    between atoms: C_11  and  C_13
REMARK    5  A    between atoms: C_16  and  N_17
REMARK    6  A    between atoms: N_17  and  S_18
REMARK    7  A    between atoms: S_18  and  C_21
REMARK                            x       y       z     vdW  Elec       q    Type
REMARK                         _______ _______ _______ _____ _____    ______ ____
ROOT
ATOM      1  C   UNL     1       2.211   7.829  19.008  0.00  0.00    +0.000 A 
ATOM      2  C   UNL     1       1.589   7.991  20.252  0.00  0.00    +0.000 A 
ATOM      3  C   UNL     1       0.769   9.112  20.485  0.00  0.00    +0.000 A 
ATOM      4  C   UNL     1       0.579  10.066  19.479  0.00  0.00    +0.000 A 
ATOM      5  C   UNL     1       1.188   9.904  18.241  0.00  0.00    +0.000 A 
ATOM      6  C   UNL     1       2.003   8.800  18.011  0.00  0.00    +0.000 A 
ENDROOT
BRANCH   1   8
ATOM      7  N   UNL     1       4.276   7.055  17.871  0.00  0.00    +0.000 N 
ATOM      8  C   UNL     1       3.193   6.752  18.691  0.00  0.00    +0.000 C 
ATOM      9  O   UNL     1       2.993   5.667  19.237  0.00  0.00    +0.000 OA
ATOM     10  H   UNL     1       4.451   8.025  17.648  0.00  0.00    +0.000 HD
BRANCH   7  15
ATOM     11  C   UNL     1       6.207   4.558  15.834  0.00  0.00    +0.000 A 
ATOM     12  C   UNL     1       7.302   4.348  16.672  0.00  0.00    +0.000 A 
ATOM     13  C   UNL     1       7.368   4.952  17.920  0.00  0.00    +0.000 A 
ATOM     14  C   UNL     1       6.352   5.806  18.330  0.00  0.00    +0.000 A 
ATOM     15  C   UNL     1       5.277   6.111  17.490  0.00  0.00    +0.000 A 
ATOM     16  C   UNL     1       5.198   5.459  16.241  0.00  0.00    +0.000 A 
BRANCH  11  20
ATOM     17  C   UNL     1       6.364   3.451  12.213  0.00  0.00    +0.000 C 
ATOM     18  C   UNL     1       6.716   4.304  13.404  0.00  0.00    +0.000 C 
ATOM     19  O   UNL     1       7.487   5.247  13.266  0.00  0.00    +0.000 OA
ATOM     20  N   UNL     1       6.100   3.895  14.582  0.00  0.00    +0.000 N 
ATOM     21  H   UNL     1       5.622   3.004  14.572  0.00  0.00    +0.000 HD
ENDBRANCH  11  20
ENDBRANCH   7  15
ENDBRANCH   1   8
BRANCH   4  22
ATOM     22  N   UNL     1      -0.201  11.233  19.678  0.00  0.00    +0.000 N 
ATOM     23  H   UNL     1       0.259  12.097  19.962  0.00  0.00    +0.000 HD
BRANCH  22  24
ATOM     24  S   UNL     1      -1.565  11.493  18.729  0.00  0.00    +0.000 S 
ATOM     25  O   UNL     1      -1.204  12.545  17.799  0.00  0.00    +0.000 OA
ATOM     26  O   UNL     1      -2.054  10.217  18.249  0.00  0.00    +0.000 OA
BRANCH  24  27
ATOM     27  C   UNL     1      -2.769  12.175  19.854  0.00  0.00    +0.000 A 
ATOM     28  C   UNL     1      -4.117  12.257  19.477  0.00  0.00    +0.000 A 
ATOM     29  C   UNL     1      -5.066  12.672  20.415  0.00  0.00    +0.000 A 
ATOM     30  C   UNL     1      -4.669  12.986  21.711  0.00  0.00    +0.000 A 
ATOM     31  F   UNL     1      -5.589  13.347  22.616  0.00  0.00    +0.000 F 
ATOM     32  C   UNL     1      -3.333  12.913  22.089  0.00  0.00    +0.000 A 
ATOM     33  C   UNL     1      -2.375  12.502  21.159  0.00  0.00    +0.000 A 
ENDBRANCH  24  27
ENDBRANCH  22  24
ENDBRANCH   4  22
TORSDOF 6
ENDMDL
MODEL 5
REMARK VINA RESULT:      -8.3      4.462     11.267
REMARK  Name = 
REMARK  7 active torsions:
REMARK  status: ('A' for Active; 'I' for Inactive)
REMARK    1  A    between atoms: C_1  and  C_2
REMARK    2  A    between atoms: N_4  and  C_5
REMARK    3  A    between atoms: C_9  and  N_10
REMARK    4  A    between atoms: C_11  and  C_13
REMARK    5  A    between atoms: C_16  and  N_17
REMARK    6  A    between atoms: N_17  and  S_18
REMARK    7  A    between atoms: S_18  and  C_21
REMARK                            x       y       z     vdW  Elec       q    Type
REMARK                         _______ _______ _______ _____ _____    ______ ____
ROOT
ATOM      1  C   UNL     1       2.218   7.968  18.893  0.00  0.00    +0.000 A 
ATOM      2  C   UNL     1       1.740   8.870  17.935  0.00  0.00    +0.000 A 
ATOM      3  C   UNL     1       0.728   9.787  18.278  0.00  0.00    +0.000 A 
ATOM      4  C   UNL     1       0.197   9.794  19.573  0.00  0.00    +0.000 A 
ATOM      5  C   UNL     1       0.675   8.907  20.529  0.00  0.00    +0.000 A 
ATOM      6  C   UNL     1       1.671   7.996  20.189  0.00  0.00    +0.000 A 
ENDROOT
BRANCH   1   8
ATOM      7  N   UNL     1       4.270   7.143  17.767  0.00  0.00    +0.000 N 
ATOM      8  C   UNL     1       3.195   6.877  18.610  0.00  0.00    +0.000 C 
ATOM      9  O   UNL     1       2.998   5.815  19.203  0.00  0.00    +0.000 OA
ATOM     10  H   UNL     1       4.445   8.102  17.503  0.00  0.00    +0.000 HD
BRANCH   7  15
ATOM     11  C   UNL     1       6.207   4.601  15.792  0.00  0.00    +0.000 A 
ATOM     12  C   UNL     1       7.282   4.383  16.655  0.00  0.00    +0.000 A 
ATOM     13  C   UNL     1       7.329   4.996  17.898  0.00  0.00    +0.000 A 
ATOM     14  C   UNL     1       6.317   5.867  18.281  0.00  0.00    +0.000 A 
ATOM     15  C   UNL     1       5.265   6.181  17.415  0.00  0.00    +0.000 A 
ATOM     16  C   UNL     1       5.203   5.520  16.170  0.00  0.00    +0.000 A 
BRANCH  11  20
ATOM     17  C   UNL     1       6.420   3.465  12.183  0.00  0.00    +0.000 C 
ATOM     18  C   UNL     1       6.758   4.324  13.373  0.00  0.00    +0.000 C 
ATOM     19  O   UNL     1       7.541   5.259  13.242  0.00  0.00    +0.000 OA
ATOM     20  N   UNL     1       6.117   3.930  14.543  0.00  0.00    +0.000 N 
ATOM     21  H   UNL     1       5.631   3.043  14.531  0.00  0.00    +0.000 HD
ENDBRANCH  11  20
ENDBRANCH   7  15
ENDBRANCH   1   8
BRANCH   4  22
ATOM     22  N   UNL     1      -0.853  10.668  19.956  0.00  0.00    +0.000 N 
ATOM     23  H   UNL     1      -1.728  10.274  20.301  0.00  0.00    +0.000 HD
BRANCH  22  24
ATOM     24  S   UNL     1      -0.485  12.159  20.641  0.00  0.00    +0.000 S 
ATOM     25  O   UNL     1       0.625  11.917  21.541  0.00  0.00    +0.000 OA
ATOM     26  O   UNL     1      -0.381  13.147  19.587  0.00  0.00    +0.000 OA
BRANCH  24  27
ATOM     27  C   UNL     1      -1.904  12.551  21.647  0.00  0.00    +0.000 A 
ATOM     28  C   UNL     1      -2.969  13.286  21.107  0.00  0.00    +0.000 A 
ATOM     29  C   UNL     1      -4.127  13.472  21.866  0.00  0.00    +0.000 A 
ATOM     30  C   UNL     1      -4.218  12.921  23.140  0.00  0.00    +0.000 A 
ATOM     31  F   UNL     1      -5.345  13.072  23.848  0.00  0.00    +0.000 F 
ATOM     32  C   UNL     1      -3.163  12.197  23.684  0.00  0.00    +0.000 A 
ATOM     33  C   UNL     1      -1.999  12.006  22.935  0.00  0.00    +0.000 A 
ENDBRANCH  24  27
ENDBRANCH  22  24
ENDBRANCH   4  22
TORSDOF 6
ENDMDL
MODEL 6
REMARK VINA RESULT:      -8.3      2.109      2.355
REMARK  Name = 
REMARK  7 active torsions:
REMARK  status: ('A' for Active; 'I' for Inactive)
REMARK    1  A    between atoms: C_1  and  C_2
REMARK    2  A    between atoms: N_4  and  C_5
REMARK    3  A    between atoms: C_9  and  N_10
REMARK    4  A    between atoms: C_11  and  C_13
REMARK    5  A    between atoms: C_16  and  N_17
REMARK    6  A    between atoms: N_17  and  S_18
REMARK    7  A    between atoms: S_18  and  C_21
REMARK                            x       y       z     vdW  Elec       q    Type
REMARK                         _______ _______ _______ _____ _____    ______ ____
ROOT
ATOM      1  C   UNL     1       1.692   7.561  20.510  0.00  0.00    +0.000 A 
ATOM      2  C   UNL     1       1.459   6.284  21.034  0.00  0.00    +0.000 A 
ATOM      3  C   UNL     1       1.749   5.144  20.260  0.00  0.00    +0.000 A 
ATOM      4  C   UNL     1       2.263   5.286  18.966  0.00  0.00    +0.000 A 
ATOM      5  C   UNL     1       2.504   6.551  18.446  0.00  0.00    +0.000 A 
ATOM      6  C   UNL     1       2.213   7.678  19.208  0.00  0.00    +0.000 A 
ENDROOT
BRANCH   1   8
ATOM      7  N   UNL     1       0.623   9.800  20.459  0.00  0.00    +0.000 N 
ATOM      8  C   UNL     1       1.310   8.833  21.188  0.00  0.00    +0.000 C 
ATOM      9  O   UNL     1       1.592   8.908  22.384  0.00  0.00    +0.000 OA
ATOM     10  H   UNL     1       0.265   9.548  19.548  0.00  0.00    +0.000 HD
BRANCH   7  15
ATOM     11  C   UNL     1      -1.143  12.348  22.580  0.00  0.00    +0.000 A 
ATOM     12  C   UNL     1      -0.517  13.515  22.139  0.00  0.00    +0.000 A 
ATOM     13  C   UNL     1       0.409  13.477  21.107  0.00  0.00    +0.000 A 
ATOM     14  C   UNL     1       0.749  12.262  20.526  0.00  0.00    +0.000 A 
ATOM     15  C   UNL     1       0.211  11.058  20.992  0.00  0.00    +0.000 A 
ATOM     16  C   UNL     1      -0.761  11.112  22.013  0.00  0.00    +0.000 A 
BRANCH  11  20
ATOM     17  C   UNL     1      -4.326  12.525  24.628  0.00  0.00    +0.000 C 
ATOM     18  C   UNL     1      -3.511  12.414  23.367  0.00  0.00    +0.000 C 
ATOM     19  O   UNL     1      -4.080  12.351  22.282  0.00  0.00    +0.000 OA
ATOM     20  N   UNL     1      -2.139  12.384  23.593  0.00  0.00    +0.000 N 
ATOM     21  H   UNL     1      -1.827  12.279  24.549  0.00  0.00    +0.000 HD
ENDBRANCH  11  20
ENDBRANCH   7  15
ENDBRANCH   1   8
BRANCH   4  22
ATOM     22  N   UNL     1       2.530   4.172  18.131  0.00  0.00    +0.000 N 
ATOM     23  H   UNL     1       2.216   4.189  17.161  0.00  0.00    +0.000 HD
BRANCH  22  24
ATOM     24  S   UNL     1       3.945   3.288  18.350  0.00  0.00    +0.000 S 
ATOM     25  O   UNL     1       4.031   3.028  19.774  0.00  0.00    +0.000 OA
ATOM     26  O   UNL     1       3.971   2.198  17.397  0.00  0.00    +0.000 OA
BRANCH  24  27
ATOM     27  C   UNL     1       5.253   4.429  17.942  0.00  0.00    +0.000 A 
ATOM     28  C   UNL     1       5.424   4.859  16.619  0.00  0.00    +0.000 A 
ATOM     29  C   UNL     1       6.368   5.851  16.338  0.00  0.00    +0.000 A 
ATOM     30  C   UNL     1       7.117   6.408  17.369  0.00  0.00    +0.000 A 
ATOM     31  F   UNL     1       7.994   7.384  17.098  0.00  0.00    +0.000 F 
ATOM     32  C   UNL     1       6.957   5.980  18.682  0.00  0.00    +0.000 A 
ATOM     33  C   UNL     1       6.018   4.988  18.975  0.00  0.00    +0.000 A 
ENDBRANCH  24  27
ENDBRANCH  22  24
ENDBRANCH   4  22
TORSDOF 6
ENDMDL
MODEL 7
REMARK VINA RESULT:      -8.2      1.370      1.681
REMARK  Name = 
REMARK  7 active torsions:
REMARK  status: ('A' for Active; 'I' for Inactive)
REMARK    1  A    between atoms: C_1  and  C_2
REMARK    2  A    between atoms: N_4  and  C_5
REMARK    3  A    between atoms: C_9  and  N_10
REMARK    4  A    between atoms: C_11  and  C_13
REMARK    5  A    between atoms: C_16  and  N_17
REMARK    6  A    between atoms: N_17  and  S_18
REMARK    7  A    between atoms: S_18  and  C_21
REMARK                            x       y       z     vdW  Elec       q    Type
REMARK                         _______ _______ _______ _____ _____    ______ ____
ROOT
ATOM      1  C   UNL     1       1.510   8.252  19.808  0.00  0.00    +0.000 A 
ATOM      2  C   UNL     1       1.467   7.188  20.717  0.00  0.00    +0.000 A 
ATOM      3  C   UNL     1       2.074   5.960  20.388  0.00  0.00    +0.000 A 
ATOM      4  C   UNL     1       2.713   5.800  19.154  0.00  0.00    +0.000 A 
ATOM      5  C   UNL     1       2.765   6.856  18.254  0.00  0.00    +0.000 A 
ATOM      6  C   UNL     1       2.161   8.068  18.574  0.00  0.00    +0.000 A 
ENDROOT
BRANCH   1   8
ATOM      7  N   UNL     1       0.884  10.185  21.231  0.00  0.00    +0.000 N 
ATOM      8  C   UNL     1       0.800   9.550  19.996  0.00  0.00    +0.000 C 
ATOM      9  O   UNL     1       0.226   9.995  19.001  0.00  0.00    +0.000 OA
ATOM     10  H   UNL     1       1.548   9.833  21.906  0.00  0.00    +0.000 HD
BRANCH   7  15
ATOM     11  C   UNL     1      -1.487  12.679  22.739  0.00  0.00    +0.000 A 
ATOM     12  C   UNL     1      -0.945  13.866  22.246  0.00  0.00    +0.000 A 
ATOM     13  C   UNL     1       0.128  13.846  21.367  0.00  0.00    +0.000 A 
ATOM     14  C   UNL     1       0.700  12.634  21.000  0.00  0.00    +0.000 A 
ATOM     15  C   UNL     1       0.245  11.425  21.536  0.00  0.00    +0.000 A 
ATOM     16  C   UNL     1      -0.874  11.453  22.394  0.00  0.00    +0.000 A 
BRANCH  11  20
ATOM     17  C   UNL     1      -4.946  12.793  24.281  0.00  0.00    +0.000 C 
ATOM     18  C   UNL     1      -3.948  12.716  23.157  0.00  0.00    +0.000 C 
ATOM     19  O   UNL     1      -4.344  12.677  21.997  0.00  0.00    +0.000 OA
ATOM     20  N   UNL     1      -2.625  12.686  23.589  0.00  0.00    +0.000 N 
ATOM     21  H   UNL     1      -2.463  12.559  24.579  0.00  0.00    +0.000 HD
ENDBRANCH  11  20
ENDBRANCH   7  15
ENDBRANCH   1   8
BRANCH   4  22
ATOM     22  N   UNL     1       3.300   4.571  18.759  0.00  0.00    +0.000 N 
ATOM     23  H   UNL     1       2.910   4.066  17.964  0.00  0.00    +0.000 HD
BRANCH  22  24
ATOM     24  S   UNL     1       4.959   4.348  18.933  0.00  0.00    +0.000 S 
ATOM     25  O   UNL     1       5.428   5.476  19.713  0.00  0.00    +0.000 OA
ATOM     26  O   UNL     1       5.206   2.990  19.372  0.00  0.00    +0.000 OA
BRANCH  24  27
ATOM     27  C   UNL     1       5.611   4.539  17.285  0.00  0.00    +0.000 A 
ATOM     28  C   UNL     1       6.972   4.818  17.094  0.00  0.00    +0.000 A 
ATOM     29  C   UNL     1       7.493   4.836  15.798  0.00  0.00    +0.000 A 
ATOM     30  C   UNL     1       6.664   4.566  14.714  0.00  0.00    +0.000 A 
ATOM     31  F   UNL     1       7.177   4.548  13.476  0.00  0.00    +0.000 F 
ATOM     32  C   UNL     1       5.312   4.295  14.896  0.00  0.00    +0.000 A 
ATOM     33  C   UNL     1       4.780   4.277  16.187  0.00  0.00    +0.000 A 
ENDBRANCH  24  27
ENDBRANCH  22  24
ENDBRANCH   4  22
TORSDOF 6
ENDMDL
MODEL 8
REMARK VINA RESULT:      -8.2      1.380      1.671
REMARK  Name = 
REMARK  7 active torsions:
REMARK  status: ('A' for Active; 'I' for Inactive)
REMARK    1  A    between atoms: C_1  and  C_2
REMARK    2  A    between atoms: N_4  and  C_5
REMARK    3  A    between atoms: C_9  and  N_10
REMARK    4  A    between atoms: C_11  and  C_13
REMARK    5  A    between atoms: C_16  and  N_17
REMARK    6  A    between atoms: N_17  and  S_18
REMARK    7  A    between atoms: S_18  and  C_21
REMARK                            x       y       z     vdW  Elec       q    Type
REMARK                         _______ _______ _______ _____ _____    ______ ____
ROOT
ATOM      1  C   UNL     1       1.586   8.333  19.269  0.00  0.00    +0.000 A 
ATOM      2  C   UNL     1       2.239   8.015  18.072  0.00  0.00    +0.000 A 
ATOM      3  C   UNL     1       2.833   6.748  17.913  0.00  0.00    +0.000 A 
ATOM      4  C   UNL     1       2.779   5.811  18.950  0.00  0.00    +0.000 A 
ATOM      5  C   UNL     1       2.124   6.120  20.136  0.00  0.00    +0.000 A 
ATOM      6  C   UNL     1       1.541   7.373  20.296  0.00  0.00    +0.000 A 
ENDROOT
BRANCH   1   8
ATOM      7  N   UNL     1       1.030  10.099  20.921  0.00  0.00    +0.000 N 
ATOM      8  C   UNL     1       1.030   9.678  19.594  0.00  0.00    +0.000 C 
ATOM      9  O   UNL     1       0.655  10.349  18.632  0.00  0.00    +0.000 OA
ATOM     10  H   UNL     1       1.548   9.554  21.595  0.00  0.00    +0.000 HD
BRANCH   7  15
ATOM     11  C   UNL     1      -1.096  12.651  22.677  0.00  0.00    +0.000 A 
ATOM     12  C   UNL     1      -0.418  13.820  22.329  0.00  0.00    +0.000 A 
ATOM     13  C   UNL     1       0.668  13.781  21.466  0.00  0.00    +0.000 A 
ATOM     14  C   UNL     1       1.115  12.564  20.969  0.00  0.00    +0.000 A 
ATOM     15  C   UNL     1       0.520  11.359  21.358  0.00  0.00    +0.000 A 
ATOM     16  C   UNL     1      -0.610  11.412  22.201  0.00  0.00    +0.000 A 
BRANCH  11  20
ATOM     17  C   UNL     1      -4.579  12.797  24.161  0.00  0.00    +0.000 C 
ATOM     18  C   UNL     1      -3.563  12.676  23.056  0.00  0.00    +0.000 C 
ATOM     19  O   UNL     1      -3.941  12.571  21.894  0.00  0.00    +0.000 OA
ATOM     20  N   UNL     1      -2.247  12.687  23.508  0.00  0.00    +0.000 N 
ATOM     21  H   UNL     1      -2.097  12.613  24.506  0.00  0.00    +0.000 HD
ENDBRANCH  11  20
ENDBRANCH   7  15
ENDBRANCH   1   8
BRANCH   4  22
ATOM     22  N   UNL     1       3.399   4.539  18.856  0.00  0.00    +0.000 N 
ATOM     23  H   UNL     1       3.011   3.841  18.223  0.00  0.00    +0.000 HD
BRANCH  22  24
ATOM     24  S   UNL     1       5.068   4.413  19.035  0.00  0.00    +0.000 S 
ATOM     25  O   UNL     1       5.493   5.654  19.652  0.00  0.00    +0.000 OA
ATOM     26  O   UNL     1       5.379   3.138  19.647  0.00  0.00    +0.000 OA
BRANCH  24  27
ATOM     27  C   UNL     1       5.697   4.411  17.367  0.00  0.00    +0.000 A 
ATOM     28  C   UNL     1       4.837   4.153  16.290  0.00  0.00    +0.000 A 
ATOM     29  C   UNL     1       5.317   4.283  14.984  0.00  0.00    +0.000 A 
ATOM     30  C   UNL     1       6.633   4.675  14.764  0.00  0.00    +0.000 A 
ATOM     31  F   UNL     1       7.076   4.833  13.509  0.00  0.00    +0.000 F 
ATOM     32  C   UNL     1       7.493   4.925  15.828  0.00  0.00    +0.000 A 
ATOM     33  C   UNL     1       7.025   4.796  17.138  0.00  0.00    +0.000 A 
ENDBRANCH  24  27
ENDBRANCH  22  24
ENDBRANCH   4  22
TORSDOF 6
ENDMDL
MODEL 9
REMARK VINA RESULT:      -8.1      4.355     11.068
REMARK  Name = 
REMARK  7 active torsions:
REMARK  status: ('A' for Active; 'I' for Inactive)
REMARK    1  A    between atoms: C_1  and  C_2
REMARK    2  A    between atoms: N_4  and  C_5
REMARK    3  A    between atoms: C_9  and  N_10
REMARK    4  A    between atoms: C_11  and  C_13
REMARK    5  A    between atoms: C_16  and  N_17
REMARK    6  A    between atoms: N_17  and  S_18
REMARK    7  A    between atoms: S_18  and  C_21
REMARK                            x       y       z     vdW  Elec       q    Type
REMARK                         _______ _______ _______ _____ _____    ______ ____
ROOT
ATOM      1  C   UNL     1       2.189   7.886  18.885  0.00  0.00    +0.000 A 
ATOM      2  C   UNL     1       1.531   8.097  20.103  0.00  0.00    +0.000 A 
ATOM      3  C   UNL     1       0.681   9.209  20.257  0.00  0.00    +0.000 A 
ATOM      4  C   UNL     1       0.498  10.106  19.198  0.00  0.00    +0.000 A 
ATOM      5  C   UNL     1       1.143   9.895  17.986  0.00  0.00    +0.000 A 
ATOM      6  C   UNL     1       1.987   8.799  17.834  0.00  0.00    +0.000 A 
ENDROOT
BRANCH   1   8
ATOM      7  N   UNL     1       4.222   7.052  17.731  0.00  0.00    +0.000 N 
ATOM      8  C   UNL     1       3.202   6.817  18.649  0.00  0.00    +0.000 C 
ATOM      9  O   UNL     1       3.085   5.805  19.341  0.00  0.00    +0.000 OA
ATOM     10  H   UNL     1       4.337   7.991  17.375  0.00  0.00    +0.000 HD
BRANCH   7  15
ATOM     11  C   UNL     1       6.283   4.565  15.813  0.00  0.00    +0.000 A 
ATOM     12  C   UNL     1       7.315   4.343  16.725  0.00  0.00    +0.000 A 
ATOM     13  C   UNL     1       7.293   4.934  17.980  0.00  0.00    +0.000 A 
ATOM     14  C   UNL     1       6.254   5.788  18.326  0.00  0.00    +0.000 A 
ATOM     15  C   UNL     1       5.243   6.107  17.413  0.00  0.00    +0.000 A 
ATOM     16  C   UNL     1       5.251   5.468  16.156  0.00  0.00    +0.000 A 
BRANCH  11  20
ATOM     17  C   UNL     1       6.647   3.520  12.189  0.00  0.00    +0.000 C 
ATOM     18  C   UNL     1       6.903   4.374  13.403  0.00  0.00    +0.000 C 
ATOM     19  O   UNL     1       7.626   5.360  13.307  0.00  0.00    +0.000 OA
ATOM     20  N   UNL     1       6.264   3.916  14.550  0.00  0.00    +0.000 N 
ATOM     21  H   UNL     1       5.837   3.000  14.510  0.00  0.00    +0.000 HD
ENDBRANCH  11  20
ENDBRANCH   7  15
ENDBRANCH   1   8
BRANCH   4  22
ATOM     22  N   UNL     1      -0.311  11.264  19.318  0.00  0.00    +0.000 N 
ATOM     23  H   UNL     1      -1.322  11.178  19.216  0.00  0.00    +0.000 HD
BRANCH  22  24
ATOM     24  S   UNL     1       0.144  12.491  20.375  0.00  0.00    +0.000 S 
ATOM     25  O   UNL     1       1.317  11.999  21.069  0.00  0.00    +0.000 OA
ATOM     26  O   UNL     1       0.185  13.744  19.649  0.00  0.00    +0.000 OA
BRANCH  24  27
ATOM     27  C   UNL     1      -1.180  12.569  21.566  0.00  0.00    +0.000 A 
ATOM     28  C   UNL     1      -2.270  13.425  21.352  0.00  0.00    +0.000 A 
ATOM     29  C   UNL     1      -3.359  13.379  22.227  0.00  0.00    +0.000 A 
ATOM     30  C   UNL     1      -3.357  12.482  23.290  0.00  0.00    +0.000 A 
ATOM     31  F   UNL     1      -4.420  12.417  24.103  0.00  0.00    +0.000 F 
ATOM     32  C   UNL     1      -2.276  11.635  23.511  0.00  0.00    +0.000 A 
ATOM     33  C   UNL     1      -1.181  11.674  22.645  0.00  0.00    +0.000 A 
ENDBRANCH  24  27
ENDBRANCH  22  24
ENDBRANCH   4  22
TORSDOF 6
ENDMDL
