MODEL 1
REMARK VINA RESULT:      -9.1      0.000      0.000
REMARK  Name = 
REMARK  5 active torsions:
REMARK  status: ('A' for Active; 'I' for Inactive)
REMARK    1  A    between atoms: C_2  and  C_3
REMARK    2  A    between atoms: C_3  and  C_4
REMARK    3  A    between atoms: C_7  and  N_8
REMARK    4  A    between atoms: N_16  and  C_17
REMARK    5  A    between atoms: C_17  and  C_18
REMARK                            x       y       z     vdW  Elec       q    Type
REMARK                         _______ _______ _______ _____ _____    ______ ____
ROOT
ATOM      1  O   UNL     1       7.705   9.416  17.280  0.00  0.00    +0.000 OA
ATOM      2  C   UNL     1       8.241   8.777  18.181  0.00  0.00    +0.000 C 
ATOM      3  N   UNL     1       8.174   7.408  18.282  0.00  0.00    +0.000 N 
ATOM      4  H   UNL     1       8.622   6.944  19.062  0.00  0.00    +0.000 HD
ENDROOT
BRANCH   2   5
ATOM      5  C   UNL     1       9.041   9.449  19.286  0.00  0.00    +0.000 C 
BRANCH   5   6
ATOM      6  C   UNL     1       9.505  10.835  18.921  0.00  0.00    +0.000 A 
ATOM      7  C   UNL     1       9.181  11.937  19.715  0.00  0.00    +0.000 A 
ATOM      8  C   UNL     1       9.637  13.221  19.381  0.00  0.00    +0.000 A 
ATOM      9  C   UNL     1      10.417  13.444  18.239  0.00  0.00    +0.000 A 
ATOM     10  C   UNL     1      10.742  12.327  17.455  0.00  0.00    +0.000 A 
ATOM     11  C   UNL     1      10.302  11.042  17.793  0.00  0.00    +0.000 A 
BRANCH   9  12
ATOM     12  N   UNL     1      10.862  14.744  17.870  0.00  0.00    +0.000 N 
ATOM     13  C   UNL     1      12.252  15.037  17.605  0.00  0.00    +0.000 C 
ATOM     14  C   UNL     1      12.324  16.548  17.570  0.00  0.00    +0.000 C 
ATOM     15  C   UNL     1      10.956  16.959  17.065  0.00  0.00    +0.000 C 
ATOM     16  C   UNL     1      10.054  15.843  17.539  0.00  0.00    +0.000 C 
ATOM     17  O   UNL     1       8.836  15.952  17.567  0.00  0.00    +0.000 OA
ENDBRANCH   9  12
ENDBRANCH   5   6
ENDBRANCH   2   5
BRANCH   3  18
ATOM     18  C   UNL     1       7.509   6.582  17.295  0.00  0.00    +0.000 C 
BRANCH  18  19
ATOM     19  C   UNL     1       6.142   6.192  17.772  0.00  0.00    +0.000 A 
ATOM     20  C   UNL     1       5.045   6.221  16.918  0.00  0.00    +0.000 A 
ATOM     21  C   UNL     1       3.803   5.783  17.376  0.00  0.00    +0.000 A 
ATOM     22  C   UNL     1       3.650   5.340  18.691  0.00  0.00    +0.000 A 
ATOM     23  N   UNL     1       2.434   4.848  19.143  0.00  0.00    +0.000 N 
ATOM     24  C   UNL     1       2.107   5.003  20.554  0.00  0.00    +0.000 C 
ATOM     25  C   UNL     1       2.496   3.779  21.377  0.00  0.00    +0.000 C 
ATOM     26  C   UNL     1       1.566   2.580  21.198  0.00  0.00    +0.000 C 
ATOM     27  C   UNL     1       1.427   2.089  19.759  0.00  0.00    +0.000 C 
ATOM     28  C   UNL     1       0.673   3.074  18.868  0.00  0.00    +0.000 C 
ATOM     29  C   UNL     1       1.559   4.136  18.221  0.00  0.00    +0.000 C 
ATOM     30  N   UNL     1       4.700   5.374  19.541  0.00  0.00    +0.000 NA
ATOM     31  C   UNL     1       5.906   5.776  19.073  0.00  0.00    +0.000 A 
ENDBRANCH  18  19
ENDBRANCH   3  18
TORSDOF 5
ENDMDL
MODEL 2
REMARK VINA RESULT:      -9.0      2.057     11.768
REMARK  Name = 
REMARK  5 active torsions:
REMARK  status: ('A' for Active; 'I' for Inactive)
REMARK    1  A    between atoms: C_2  and  C_3
REMARK    2  A    between atoms: C_3  and  C_4
REMARK    3  A    between atoms: C_7  and  N_8
REMARK    4  A    between atoms: N_16  and  C_17
REMARK    5  A    between atoms: C_17  and  C_18
REMARK                            x       y       z     vdW  Elec       q    Type
REMARK                         _______ _______ _______ _____ _____    ______ ____
ROOT
ATOM      1  O   UNL     1       8.441   6.946  18.957  0.00  0.00    +0.000 OA
ATOM      2  C   UNL     1       7.966   7.700  18.112  0.00  0.00    +0.000 C 
ATOM      3  N   UNL     1       8.256   9.043  18.048  0.00  0.00    +0.000 N 
ATOM      4  H   UNL     1       7.815   9.613  17.338  0.00  0.00    +0.000 HD
ENDROOT
BRANCH   2   5
ATOM      5  C   UNL     1       7.001   7.215  17.043  0.00  0.00    +0.000 C 
BRANCH   5   6
ATOM      6  C   UNL     1       5.856   6.409  17.601  0.00  0.00    +0.000 A 
ATOM      7  C   UNL     1       4.538   6.856  17.491  0.00  0.00    +0.000 A 
ATOM      8  C   UNL     1       3.477   6.088  17.992  0.00  0.00    +0.000 A 
ATOM      9  C   UNL     1       3.701   4.860  18.628  0.00  0.00    +0.000 A 
ATOM     10  C   UNL     1       5.029   4.419  18.724  0.00  0.00    +0.000 A 
ATOM     11  C   UNL     1       6.090   5.175  18.211  0.00  0.00    +0.000 A 
BRANCH   9  12
ATOM     12  N   UNL     1       2.638   4.083  19.168  0.00  0.00    +0.000 N 
ATOM     13  C   UNL     1       2.544   3.780  20.578  0.00  0.00    +0.000 C 
ATOM     14  C   UNL     1       1.488   2.700  20.667  0.00  0.00    +0.000 C 
ATOM     15  C   UNL     1       0.568   3.003  19.502  0.00  0.00    +0.000 C 
ATOM     16  C   UNL     1       1.480   3.666  18.495  0.00  0.00    +0.000 C 
ATOM     17  O   UNL     1       1.167   3.803  17.320  0.00  0.00    +0.000 OA
ENDBRANCH   9  12
ENDBRANCH   5   6
ENDBRANCH   2   5
BRANCH   3  18
ATOM     18  C   UNL     1       9.200   9.683  18.941  0.00  0.00    +0.000 C 
BRANCH  18  19
ATOM     19  C   UNL     1       9.454  11.096  18.508  0.00  0.00    +0.000 A 
ATOM     20  C   UNL     1       8.459  11.852  17.895  0.00  0.00    +0.000 A 
ATOM     21  C   UNL     1       8.708  13.185  17.573  0.00  0.00    +0.000 A 
ATOM     22  C   UNL     1       9.954  13.758  17.839  0.00  0.00    +0.000 A 
ATOM     23  N   UNL     1      10.195  15.099  17.575  0.00  0.00    +0.000 N 
ATOM     24  C   UNL     1      11.554  15.503  17.244  0.00  0.00    +0.000 C 
ATOM     25  C   UNL     1      12.333  15.977  18.467  0.00  0.00    +0.000 C 
ATOM     26  C   UNL     1      11.940  17.368  18.961  0.00  0.00    +0.000 C 
ATOM     27  C   UNL     1      10.464  17.526  19.318  0.00  0.00    +0.000 C 
ATOM     28  C   UNL     1       9.550  17.472  18.095  0.00  0.00    +0.000 C 
ATOM     29  C   UNL     1       9.112  16.063  17.704  0.00  0.00    +0.000 C 
ATOM     30  N   UNL     1      10.941  13.007  18.373  0.00  0.00    +0.000 NA
ATOM     31  C   UNL     1      10.676  11.720  18.706  0.00  0.00    +0.000 A 
ENDBRANCH  18  19
ENDBRANCH   3  18
TORSDOF 5
ENDMDL
MODEL 3
REMARK VINA RESULT:      -8.9      1.072      1.974
REMARK  Name = 
REMARK  5 active torsions:
REMARK  status: ('A' for Active; 'I' for Inactive)
REMARK    1  A    between atoms: C_2  and  C_3
REMARK    2  A    between atoms: C_3  and  C_4
REMARK    3  A    between atoms: C_7  and  N_8
REMARK    4  A    between atoms: N_16  and  C_17
REMARK    5  A    between atoms: C_17  and  C_18
REMARK                            x       y       z     vdW  Elec       q    Type
REMARK                         _______ _______ _______ _____ _____    ______ ____
ROOT
ATOM      1  O   UNL     1       7.431   9.936  17.504  0.00  0.00    +0.000 OA
ATOM      2  C   UNL     1       8.136   9.135  18.111  0.00  0.00    +0.000 C 
ATOM      3  N   UNL     1       8.082   7.776  17.915  0.00  0.00    +0.000 N 
ATOM      4  H   UNL     1       8.678   7.169  18.463  0.00  0.00    +0.000 HD
ENDROOT
BRANCH   2   5
ATOM      5  C   UNL     1       9.153   9.578  19.152  0.00  0.00    +0.000 C 
BRANCH   5   6
ATOM      6  C   UNL     1       9.634  10.991  18.946  0.00  0.00    +0.000 A 
ATOM      7  C   UNL     1      10.361  11.346  17.808  0.00  0.00    +0.000 A 
ATOM      8  C   UNL     1      10.785  12.669  17.612  0.00  0.00    +0.000 A 
ATOM      9  C   UNL     1      10.508  13.671  18.551  0.00  0.00    +0.000 A 
ATOM     10  C   UNL     1       9.770  13.301  19.685  0.00  0.00    +0.000 A 
ATOM     11  C   UNL     1       9.331  11.986  19.877  0.00  0.00    +0.000 A 
BRANCH   9  12
ATOM     12  N   UNL     1      10.957  15.011  18.382  0.00  0.00    +0.000 N 
ATOM     13  C   UNL     1      12.320  15.407  18.650  0.00  0.00    +0.000 C 
ATOM     14  C   UNL     1      12.284  16.919  18.657  0.00  0.00    +0.000 C 
ATOM     15  C   UNL     1      11.169  17.254  17.688  0.00  0.00    +0.000 C 
ATOM     16  C   UNL     1      10.244  16.063  17.787  0.00  0.00    +0.000 C 
ATOM     17  O   UNL     1       9.096  16.088  17.365  0.00  0.00    +0.000 OA
ENDBRANCH   9  12
ENDBRANCH   5   6
ENDBRANCH   2   5
BRANCH   3  18
ATOM     18  C   UNL     1       7.221   7.163  16.923  0.00  0.00    +0.000 C 
BRANCH  18  19
ATOM     19  C   UNL     1       6.403   6.070  17.544  0.00  0.00    +0.000 A 
ATOM     20  C   UNL     1       6.596   5.689  18.868  0.00  0.00    +0.000 A 
ATOM     21  C   UNL     1       5.768   4.719  19.433  0.00  0.00    +0.000 A 
ATOM     22  C   UNL     1       4.766   4.113  18.672  0.00  0.00    +0.000 A 
ATOM     23  N   UNL     1       3.900   3.188  19.237  0.00  0.00    +0.000 N 
ATOM     24  C   UNL     1       3.346   2.148  18.382  0.00  0.00    +0.000 C 
ATOM     25  C   UNL     1       1.984   2.532  17.809  0.00  0.00    +0.000 C 
ATOM     26  C   UNL     1       0.836   2.449  18.812  0.00  0.00    +0.000 C 
ATOM     27  C   UNL     1       1.018   3.302  20.065  0.00  0.00    +0.000 C 
ATOM     28  C   UNL     1       2.129   2.787  20.977  0.00  0.00    +0.000 C 
ATOM     29  C   UNL     1       3.518   3.324  20.636  0.00  0.00    +0.000 C 
ATOM     30  N   UNL     1       4.622   4.434  17.367  0.00  0.00    +0.000 NA
ATOM     31  C   UNL     1       5.415   5.398  16.841  0.00  0.00    +0.000 A 
ENDBRANCH  18  19
ENDBRANCH   3  18
TORSDOF 5
ENDMDL
MODEL 4
REMARK VINA RESULT:      -8.7      2.092     11.811
REMARK  Name = 
REMARK  5 active torsions:
REMARK  status: ('A' for Active; 'I' for Inactive)
REMARK    1  A    between atoms: C_2  and  C_3
REMARK    2  A    between atoms: C_3  and  C_4
REMARK    3  A    between atoms: C_7  and  N_8
REMARK    4  A    between atoms: N_16  and  C_17
REMARK    5  A    between atoms: C_17  and  C_18
REMARK                            x       y       z     vdW  Elec       q    Type
REMARK                         _______ _______ _______ _____ _____    ______ ____
ROOT
ATOM      1  O   UNL     1       8.370   6.920  18.973  0.00  0.00    +0.000 OA
ATOM      2  C   UNL     1       7.908   7.741  18.186  0.00  0.00    +0.000 C 
ATOM      3  N   UNL     1       8.229   9.078  18.210  0.00  0.00    +0.000 N 
ATOM      4  H   UNL     1       7.798   9.705  17.545  0.00  0.00    +0.000 HD
ENDROOT
BRANCH   2   5
ATOM      5  C   UNL     1       6.923   7.353  17.095  0.00  0.00    +0.000 C 
BRANCH   5   6
ATOM      6  C   UNL     1       5.792   6.493  17.597  0.00  0.00    +0.000 A 
ATOM      7  C   UNL     1       5.994   5.555  18.611  0.00  0.00    +0.000 A 
ATOM      8  C   UNL     1       4.931   4.776  19.090  0.00  0.00    +0.000 A 
ATOM      9  C   UNL     1       3.639   4.901  18.562  0.00  0.00    +0.000 A 
ATOM     10  C   UNL     1       3.448   5.853  17.549  0.00  0.00    +0.000 A 
ATOM     11  C   UNL     1       4.504   6.644  17.080  0.00  0.00    +0.000 A 
BRANCH   9  12
ATOM     12  N   UNL     1       2.556   4.097  19.015  0.00  0.00    +0.000 N 
ATOM     13  C   UNL     1       1.683   4.512  20.089  0.00  0.00    +0.000 C 
ATOM     14  C   UNL     1       0.905   3.267  20.453  0.00  0.00    +0.000 C 
ATOM     15  C   UNL     1       0.821   2.504  19.146  0.00  0.00    +0.000 C 
ATOM     16  C   UNL     1       2.071   2.927  18.409  0.00  0.00    +0.000 C 
ATOM     17  O   UNL     1       2.498   2.316  17.439  0.00  0.00    +0.000 OA
ENDBRANCH   9  12
ENDBRANCH   5   6
ENDBRANCH   2   5
BRANCH   3  18
ATOM     18  C   UNL     1       9.195   9.633  19.136  0.00  0.00    +0.000 C 
BRANCH  18  19
ATOM     19  C   UNL     1       9.554  11.034  18.740  0.00  0.00    +0.000 A 
ATOM     20  C   UNL     1       8.761  11.759  17.857  0.00  0.00    +0.000 A 
ATOM     21  C   UNL     1       9.085  13.084  17.568  0.00  0.00    +0.000 A 
ATOM     22  C   UNL     1      10.213  13.677  18.139  0.00  0.00    +0.000 A 
ATOM     23  N   UNL     1      10.515  15.011  17.905  0.00  0.00    +0.000 N 
ATOM     24  C   UNL     1      11.913  15.419  17.938  0.00  0.00    +0.000 C 
ATOM     25  C   UNL     1      12.333  15.940  19.309  0.00  0.00    +0.000 C 
ATOM     26  C   UNL     1      11.820  17.342  19.631  0.00  0.00    +0.000 C 
ATOM     27  C   UNL     1      10.303  17.497  19.573  0.00  0.00    +0.000 C 
ATOM     28  C   UNL     1       9.751  17.394  18.152  0.00  0.00    +0.000 C 
ATOM     29  C   UNL     1       9.436  15.968  17.705  0.00  0.00    +0.000 C 
ATOM     30  N   UNL     1      11.021  12.954  18.945  0.00  0.00    +0.000 NA
ATOM     31  C   UNL     1      10.678  11.677  19.238  0.00  0.00    +0.000 A 
ENDBRANCH  18  19
ENDBRANCH   3  18
TORSDOF 5
ENDMDL
MODEL 5
REMARK VINA RESULT:      -8.5      1.399      2.049
REMARK  Name = 
REMARK  5 active torsions:
REMARK  status: ('A' for Active; 'I' for Inactive)
REMARK    1  A    between atoms: C_2  and  C_3
REMARK    2  A    between atoms: C_3  and  C_4
REMARK    3  A    between atoms: C_7  and  N_8
REMARK    4  A    between atoms: N_16  and  C_17
REMARK    5  A    between atoms: C_17  and  C_18
REMARK                            x       y       z     vdW  Elec       q    Type
REMARK                         _______ _______ _______ _____ _____    ______ ____
ROOT
ATOM      1  O   UNL     1       7.762   9.904  17.394  0.00  0.00    +0.000 OA
ATOM      2  C   UNL     1       8.313   9.144  18.185  0.00  0.00    +0.000 C 
ATOM      3  N   UNL     1       8.190   7.776  18.131  0.00  0.00    +0.000 N 
ATOM      4  H   UNL     1       8.655   7.206  18.826  0.00  0.00    +0.000 HD
ENDROOT
BRANCH   2   5
ATOM      5  C   UNL     1       9.198   9.649  19.314  0.00  0.00    +0.000 C 
BRANCH   5   6
ATOM      6  C   UNL     1       9.745  11.031  19.064  0.00  0.00    +0.000 A 
ATOM      7  C   UNL     1       9.668  12.025  20.041  0.00  0.00    +0.000 A 
ATOM      8  C   UNL     1      10.202  13.302  19.808  0.00  0.00    +0.000 A 
ATOM      9  C   UNL     1      10.813  13.626  18.591  0.00  0.00    +0.000 A 
ATOM     10  C   UNL     1      10.890  12.615  17.621  0.00  0.00    +0.000 A 
ATOM     11  C   UNL     1      10.374  11.335  17.855  0.00  0.00    +0.000 A 
BRANCH   9  12
ATOM     12  N   UNL     1      11.332  14.925  18.327  0.00  0.00    +0.000 N 
ATOM     13  C   UNL     1      11.065  15.627  17.092  0.00  0.00    +0.000 C 
ATOM     14  C   UNL     1      12.038  16.785  17.092  0.00  0.00    +0.000 C 
ATOM     15  C   UNL     1      12.222  17.096  18.564  0.00  0.00    +0.000 C 
ATOM     16  C   UNL     1      11.991  15.763  19.239  0.00  0.00    +0.000 C 
ATOM     17  O   UNL     1      12.325  15.549  20.396  0.00  0.00    +0.000 OA
ENDBRANCH   9  12
ENDBRANCH   5   6
ENDBRANCH   2   5
BRANCH   3  18
ATOM     18  C   UNL     1       7.440   7.098  17.093  0.00  0.00    +0.000 C 
BRANCH  18  19
ATOM     19  C   UNL     1       6.574   6.027  17.687  0.00  0.00    +0.000 A 
ATOM     20  C   UNL     1       6.687   5.669  19.026  0.00  0.00    +0.000 A 
ATOM     21  C   UNL     1       5.817   4.721  19.561  0.00  0.00    +0.000 A 
ATOM     22  C   UNL     1       4.852   4.112  18.756  0.00  0.00    +0.000 A 
ATOM     23  N   UNL     1       3.943   3.208  19.290  0.00  0.00    +0.000 N 
ATOM     24  C   UNL     1       3.424   2.158  18.423  0.00  0.00    +0.000 C 
ATOM     25  C   UNL     1       2.102   2.547  17.768  0.00  0.00    +0.000 C 
ATOM     26  C   UNL     1       0.898   2.497  18.706  0.00  0.00    +0.000 C 
ATOM     27  C   UNL     1       1.020   3.372  19.951  0.00  0.00    +0.000 C 
ATOM     28  C   UNL     1       2.072   2.861  20.933  0.00  0.00    +0.000 C 
ATOM     29  C   UNL     1       3.484   3.375  20.661  0.00  0.00    +0.000 C 
ATOM     30  N   UNL     1       4.785   4.409  17.440  0.00  0.00    +0.000 NA
ATOM     31  C   UNL     1       5.619   5.353  16.941  0.00  0.00    +0.000 A 
ENDBRANCH  18  19
ENDBRANCH   3  18
TORSDOF 5
ENDMDL
MODEL 6
REMARK VINA RESULT:      -8.5      2.594     11.273
REMARK  Name = 
REMARK  5 active torsions:
REMARK  status: ('A' for Active; 'I' for Inactive)
REMARK    1  A    between atoms: C_2  and  C_3
REMARK    2  A    between atoms: C_3  and  C_4
REMARK    3  A    between atoms: C_7  and  N_8
REMARK    4  A    between atoms: N_16  and  C_17
REMARK    5  A    between atoms: C_17  and  C_18
REMARK                            x       y       z     vdW  Elec       q    Type
REMARK                         _______ _______ _______ _____ _____    ______ ____
ROOT
ATOM      1  O   UNL     1       8.510   6.929  18.888  0.00  0.00    +0.000 OA
ATOM      2  C   UNL     1       7.974   7.740  18.138  0.00  0.00    +0.000 C 
ATOM      3  N   UNL     1       8.232   9.090  18.173  0.00  0.00    +0.000 N 
ATOM      4  H   UNL     1       7.741   9.706  17.539  0.00  0.00    +0.000 HD
ENDROOT
BRANCH   2   5
ATOM      5  C   UNL     1       6.962   7.322  17.083  0.00  0.00    +0.000 C 
BRANCH   5   6
ATOM      6  C   UNL     1       5.812   6.529  17.648  0.00  0.00    +0.000 A 
ATOM      7  C   UNL     1       4.492   6.955  17.483  0.00  0.00    +0.000 A 
ATOM      8  C   UNL     1       3.426   6.198  17.992  0.00  0.00    +0.000 A 
ATOM      9  C   UNL     1       3.646   5.004  18.691  0.00  0.00    +0.000 A 
ATOM     10  C   UNL     1       4.977   4.584  18.842  0.00  0.00    +0.000 A 
ATOM     11  C   UNL     1       6.043   5.328  18.322  0.00  0.00    +0.000 A 
BRANCH   9  12
ATOM     12  N   UNL     1       2.578   4.240  19.240  0.00  0.00    +0.000 N 
ATOM     13  C   UNL     1       2.052   4.490  20.562  0.00  0.00    +0.000 C 
ATOM     14  C   UNL     1       1.184   3.287  20.861  0.00  0.00    +0.000 C 
ATOM     15  C   UNL     1       0.684   2.860  19.497  0.00  0.00    +0.000 C 
ATOM     16  C   UNL     1       1.785   3.303  18.561  0.00  0.00    +0.000 C 
ATOM     17  O   UNL     1       1.876   2.888  17.414  0.00  0.00    +0.000 OA
ENDBRANCH   9  12
ENDBRANCH   5   6
ENDBRANCH   2   5
BRANCH   3  18
ATOM     18  C   UNL     1       9.210   9.676  19.066  0.00  0.00    +0.000 C 
BRANCH  18  19
ATOM     19  C   UNL     1       9.143  11.173  19.005  0.00  0.00    +0.000 A 
ATOM     20  C   UNL     1       8.796  11.832  17.830  0.00  0.00    +0.000 A 
ATOM     21  C   UNL     1       8.673  13.221  17.830  0.00  0.00    +0.000 A 
ATOM     22  C   UNL     1       8.919  13.954  18.993  0.00  0.00    +0.000 A 
ATOM     23  N   UNL     1       8.745  15.330  19.021  0.00  0.00    +0.000 N 
ATOM     24  C   UNL     1       9.569  16.112  19.933  0.00  0.00    +0.000 C 
ATOM     25  C   UNL     1       8.876  16.361  21.270  0.00  0.00    +0.000 C 
ATOM     26  C   UNL     1       7.771  17.414  21.218  0.00  0.00    +0.000 C 
ATOM     27  C   UNL     1       6.655  17.120  20.218  0.00  0.00    +0.000 C 
ATOM     28  C   UNL     1       7.117  17.229  18.766  0.00  0.00    +0.000 C 
ATOM     29  C   UNL     1       7.709  15.940  18.199  0.00  0.00    +0.000 C 
ATOM     30  N   UNL     1       9.321  13.321  20.117  0.00  0.00    +0.000 NA
ATOM     31  C   UNL     1       9.409  11.969  20.109  0.00  0.00    +0.000 A 
ENDBRANCH  18  19
ENDBRANCH   3  18
TORSDOF 5
ENDMDL
MODEL 7
REMARK VINA RESULT:      -8.4      6.861      9.493
REMARK  Name = 
REMARK  5 active torsions:
REMARK  status: ('A' for Active; 'I' for Inactive)
REMARK    1  A    between atoms: C_2  and  C_3
REMARK    2  A    between atoms: C_3  and  C_4
REMARK    3  A    between atoms: C_7  and  N_8
REMARK    4  A    between atoms: N_16  and  C_17
REMARK    5  A    between atoms: C_17  and  C_18
REMARK                            x       y       z     vdW  Elec       q    Type
REMARK                         _______ _______ _______ _____ _____    ______ ____
ROOT
ATOM      1  O   UNL     1       2.487   4.751  19.071  0.00  0.00    +0.000 OA
ATOM      2  C   UNL     1       3.148   5.653  19.579  0.00  0.00    +0.000 C 
ATOM      3  N   UNL     1       2.609   6.621  20.392  0.00  0.00    +0.000 N 
ATOM      4  H   UNL     1       3.207   7.348  20.763  0.00  0.00    +0.000 HD
ENDROOT
BRANCH   2   5
ATOM      5  C   UNL     1       4.646   5.785  19.354  0.00  0.00    +0.000 C 
BRANCH   5   6
ATOM      6  C   UNL     1       5.065   5.444  17.947  0.00  0.00    +0.000 A 
ATOM      7  C   UNL     1       4.806   6.314  16.886  0.00  0.00    +0.000 A 
ATOM      8  C   UNL     1       5.221   5.999  15.584  0.00  0.00    +0.000 A 
ATOM      9  C   UNL     1       5.893   4.803  15.301  0.00  0.00    +0.000 A 
ATOM     10  C   UNL     1       6.154   3.943  16.378  0.00  0.00    +0.000 A 
ATOM     11  C   UNL     1       5.757   4.260  17.682  0.00  0.00    +0.000 A 
BRANCH   9  12
ATOM     12  N   UNL     1       6.294   4.455  13.980  0.00  0.00    +0.000 N 
ATOM     13  C   UNL     1       5.457   3.670  13.102  0.00  0.00    +0.000 C 
ATOM     14  C   UNL     1       6.368   3.270  11.962  0.00  0.00    +0.000 C 
ATOM     15  C   UNL     1       7.353   4.418  11.874  0.00  0.00    +0.000 C 
ATOM     16  C   UNL     1       7.415   4.942  13.290  0.00  0.00    +0.000 C 
ATOM     17  O   UNL     1       8.306   5.685  13.675  0.00  0.00    +0.000 OA
ENDBRANCH   9  12
ENDBRANCH   5   6
ENDBRANCH   2   5
BRANCH   3  18
ATOM     18  C   UNL     1       1.212   6.633  20.775  0.00  0.00    +0.000 C 
BRANCH  18  19
ATOM     19  C   UNL     1       0.737   8.040  20.983  0.00  0.00    +0.000 A 
ATOM     20  C   UNL     1       1.082   9.055  20.096  0.00  0.00    +0.000 A 
ATOM     21  C   UNL     1       0.563  10.336  20.280  0.00  0.00    +0.000 A 
ATOM     22  C   UNL     1      -0.278  10.611  21.361  0.00  0.00    +0.000 A 
ATOM     23  N   UNL     1      -0.846  11.866  21.524  0.00  0.00    +0.000 N 
ATOM     24  C   UNL     1      -1.145  12.318  22.876  0.00  0.00    +0.000 C 
ATOM     25  C   UNL     1      -2.584  12.014  23.284  0.00  0.00    +0.000 C 
ATOM     26  C   UNL     1      -3.625  12.931  22.646  0.00  0.00    +0.000 C 
ATOM     27  C   UNL     1      -3.617  12.943  21.119  0.00  0.00    +0.000 C 
ATOM     28  C   UNL     1      -2.370  13.606  20.538  0.00  0.00    +0.000 C 
ATOM     29  C   UNL     1      -1.188  12.658  20.351  0.00  0.00    +0.000 C 
ATOM     30  N   UNL     1      -0.559   9.643  22.261  0.00  0.00    +0.000 NA
ATOM     31  C   UNL     1      -0.070   8.396  22.053  0.00  0.00    +0.000 A 
ENDBRANCH  18  19
ENDBRANCH   3  18
TORSDOF 5
ENDMDL
MODEL 8
REMARK VINA RESULT:      -8.3      6.775      9.019
REMARK  Name = 
REMARK  5 active torsions:
REMARK  status: ('A' for Active; 'I' for Inactive)
REMARK    1  A    between atoms: C_2  and  C_3
REMARK    2  A    between atoms: C_3  and  C_4
REMARK    3  A    between atoms: C_7  and  N_8
REMARK    4  A    between atoms: N_16  and  C_17
REMARK    5  A    between atoms: C_17  and  C_18
REMARK                            x       y       z     vdW  Elec       q    Type
REMARK                         _______ _______ _______ _____ _____    ______ ____
ROOT
ATOM      1  O   UNL     1       3.619   3.410  19.868  0.00  0.00    +0.000 OA
ATOM      2  C   UNL     1       4.203   4.481  19.731  0.00  0.00    +0.000 C 
ATOM      3  N   UNL     1       3.584   5.702  19.853  0.00  0.00    +0.000 N 
ATOM      4  H   UNL     1       4.119   6.549  19.708  0.00  0.00    +0.000 HD
ENDROOT
BRANCH   2   5
ATOM      5  C   UNL     1       5.688   4.560  19.409  0.00  0.00    +0.000 C 
BRANCH   5   6
ATOM      6  C   UNL     1       5.977   4.497  17.932  0.00  0.00    +0.000 A 
ATOM      7  C   UNL     1       7.255   4.761  17.435  0.00  0.00    +0.000 A 
ATOM      8  C   UNL     1       7.521   4.676  16.061  0.00  0.00    +0.000 A 
ATOM      9  C   UNL     1       6.519   4.339  15.142  0.00  0.00    +0.000 A 
ATOM     10  C   UNL     1       5.242   4.069  15.656  0.00  0.00    +0.000 A 
ATOM     11  C   UNL     1       4.975   4.136  17.029  0.00  0.00    +0.000 A 
BRANCH   9  12
ATOM     12  N   UNL     1       6.765   4.278  13.742  0.00  0.00    +0.000 N 
ATOM     13  C   UNL     1       5.931   3.512  12.844  0.00  0.00    +0.000 C 
ATOM     14  C   UNL     1       6.710   3.459  11.549  0.00  0.00    +0.000 C 
ATOM     15  C   UNL     1       7.493   4.756  11.550  0.00  0.00    +0.000 C 
ATOM     16  C   UNL     1       7.687   5.051  13.020  0.00  0.00    +0.000 C 
ATOM     17  O   UNL     1       8.508   5.864  13.422  0.00  0.00    +0.000 OA
ENDBRANCH   9  12
ENDBRANCH   5   6
ENDBRANCH   2   5
BRANCH   3  18
ATOM     18  C   UNL     1       2.188   5.839  20.215  0.00  0.00    +0.000 C 
BRANCH  18  19
ATOM     19  C   UNL     1       1.763   7.275  20.132  0.00  0.00    +0.000 A 
ATOM     20  C   UNL     1       1.931   8.010  18.963  0.00  0.00    +0.000 A 
ATOM     21  C   UNL     1       1.458   9.320  18.900  0.00  0.00    +0.000 A 
ATOM     22  C   UNL     1       0.841   9.904  20.008  0.00  0.00    +0.000 A 
ATOM     23  N   UNL     1       0.316  11.187  19.940  0.00  0.00    +0.000 N 
ATOM     24  C   UNL     1       0.283  11.985  21.158  0.00  0.00    +0.000 C 
ATOM     25  C   UNL     1      -1.051  11.869  21.891  0.00  0.00    +0.000 C 
ATOM     26  C   UNL     1      -2.195  12.644  21.240  0.00  0.00    +0.000 C 
ATOM     27  C   UNL     1      -2.481  12.264  19.790  0.00  0.00    +0.000 C 
ATOM     28  C   UNL     1      -1.368  12.691  18.834  0.00  0.00    +0.000 C 
ATOM     29  C   UNL     1      -0.245  11.668  18.685  0.00  0.00    +0.000 C 
ATOM     30  N   UNL     1       0.738   9.214  21.165  0.00  0.00    +0.000 NA
ATOM     31  C   UNL     1       1.177   7.933  21.202  0.00  0.00    +0.000 A 
ENDBRANCH  18  19
ENDBRANCH   3  18
TORSDOF 5
ENDMDL
MODEL 9
REMARK VINA RESULT:      -8.3      7.885     11.111
REMARK  Name = 
REMARK  5 active torsions:
REMARK  status: ('A' for Active; 'I' for Inactive)
REMARK    1  A    between atoms: C_2  and  C_3
REMARK    2  A    between atoms: C_3  and  C_4
REMARK    3  A    between atoms: C_7  and  N_8
REMARK    4  A    between atoms: N_16  and  C_17
REMARK    5  A    between atoms: C_17  and  C_18
REMARK                            x       y       z     vdW  Elec       q    Type
REMARK                         _______ _______ _______ _____ _____    ______ ____
ROOT
ATOM      1  O   UNL     1      -0.988  11.555  18.662  0.00  0.00    +0.000 OA
ATOM      2  C   UNL     1      -0.070  11.714  19.461  0.00  0.00    +0.000 C 
ATOM      3  N   UNL     1       1.144  11.077  19.358  0.00  0.00    +0.000 N 
ATOM      4  H   UNL     1       1.851  11.239  20.063  0.00  0.00    +0.000 HD
ENDROOT
BRANCH   2   5
ATOM      5  C   UNL     1      -0.191  12.644  20.659  0.00  0.00    +0.000 C 
BRANCH   5   6
ATOM      6  C   UNL     1      -1.598  12.750  21.186  0.00  0.00    +0.000 A 
ATOM      7  C   UNL     1      -2.607  13.356  20.434  0.00  0.00    +0.000 A 
ATOM      8  C   UNL     1      -3.920  13.429  20.922  0.00  0.00    +0.000 A 
ATOM      9  C   UNL     1      -4.261  12.913  22.179  0.00  0.00    +0.000 A 
ATOM     10  C   UNL     1      -3.239  12.301  22.920  0.00  0.00    +0.000 A 
ATOM     11  C   UNL     1      -1.932  12.211  22.430  0.00  0.00    +0.000 A 
BRANCH   9  12
ATOM     12  N   UNL     1      -5.581  13.006  22.702  0.00  0.00    +0.000 N 
ATOM     13  C   UNL     1      -5.951  13.992  23.692  0.00  0.00    +0.000 C 
ATOM     14  C   UNL     1      -7.307  13.543  24.190  0.00  0.00    +0.000 C 
ATOM     15  C   UNL     1      -7.916  12.849  22.989  0.00  0.00    +0.000 C 
ATOM     16  C   UNL     1      -6.715  12.324  22.237  0.00  0.00    +0.000 C 
ATOM     17  O   UNL     1      -6.811  11.473  21.364  0.00  0.00    +0.000 OA
ENDBRANCH   9  12
ENDBRANCH   5   6
ENDBRANCH   2   5
BRANCH   3  18
ATOM     18  C   UNL     1       1.475  10.198  18.255  0.00  0.00    +0.000 C 
BRANCH  18  19
ATOM     19  C   UNL     1       1.821   8.830  18.762  0.00  0.00    +0.000 A 
ATOM     20  C   UNL     1       1.487   8.434  20.052  0.00  0.00    +0.000 A 
ATOM     21  C   UNL     1       1.759   7.130  20.465  0.00  0.00    +0.000 A 
ATOM     22  C   UNL     1       2.386   6.231  19.600  0.00  0.00    +0.000 A 
ATOM     23  N   UNL     1       2.612   4.914  19.978  0.00  0.00    +0.000 N 
ATOM     24  C   UNL     1       3.758   4.219  19.408  0.00  0.00    +0.000 C 
ATOM     25  C   UNL     1       3.389   3.418  18.163  0.00  0.00    +0.000 C 
ATOM     26  C   UNL     1       2.629   2.124  18.451  0.00  0.00    +0.000 C 
ATOM     27  C   UNL     1       1.329   2.306  19.230  0.00  0.00    +0.000 C 
ATOM     28  C   UNL     1       1.562   2.739  20.677  0.00  0.00    +0.000 C 
ATOM     29  C   UNL     1       1.669   4.251  20.868  0.00  0.00    +0.000 C 
ATOM     30  N   UNL     1       2.771   6.634  18.370  0.00  0.00    +0.000 NA
ATOM     31  C   UNL     1       2.475   7.896  17.974  0.00  0.00    +0.000 A 
ENDBRANCH  18  19
ENDBRANCH   3  18
TORSDOF 5
ENDMDL
