MODEL 1
REMARK VINA RESULT:      -8.6      0.000      0.000
REMARK  Name = 
REMARK  4 active torsions:
REMARK  status: ('A' for Active; 'I' for Inactive)
REMARK    1  A    between atoms: C_2  and  C_13
REMARK    2  A    between atoms: N_3  and  C_4
REMARK    3  A    between atoms: N_16  and  S_17
REMARK    4  A    between atoms: S_17  and  C_20
REMARK                            x       y       z     vdW  Elec       q    Type
REMARK                         _______ _______ _______ _____ _____    ______ ____
ROOT
ATOM      1  C   UNL     1       7.967   5.720  18.440  0.00  0.00    +0.000 C 
ATOM      2  C   UNL     1       7.554   4.785  17.294  0.00  0.00    +0.000 C 
ATOM      3  C   UNL     1       6.041   4.775  17.067  0.00  0.00    +0.000 C 
ATOM      4  N   UNL     1       5.334   4.406  18.328  0.00  0.00    +0.000 NA
ATOM      5  C   UNL     1       5.672   5.338  19.447  0.00  0.00    +0.000 C 
ATOM      6  C   UNL     1       7.178   5.355  19.699  0.00  0.00    +0.000 C 
ENDROOT
BRANCH   1   8
ATOM      7  O   UNL     1       7.043   7.520  17.136  0.00  0.00    +0.000 OA
ATOM      8  C   UNL     1       7.800   7.192  18.046  0.00  0.00    +0.000 C 
ATOM      9  N   UNL     1       8.615   8.061  18.756  0.00  0.00    +0.000 N 
ATOM     10  H   UNL     1       9.373   7.653  19.289  0.00  0.00    +0.000 HD
BRANCH   9  11
ATOM     11  C   UNL     1       8.645   9.468  18.596  0.00  0.00    +0.000 A 
ATOM     12  C   UNL     1       7.922  10.138  17.586  0.00  0.00    +0.000 A 
ATOM     13  C   UNL     1       8.041  11.520  17.403  0.00  0.00    +0.000 A 
ATOM     14  C   UNL     1       8.889  12.204  18.240  0.00  0.00    +0.000 A 
ATOM     15  C   UNL     1       9.565  11.569  19.254  0.00  0.00    +0.000 A 
ATOM     16  C   UNL     1       9.446  10.210  19.475  0.00  0.00    +0.000 A 
ATOM     17  O   UNL     1      10.355  12.425  19.958  0.00  0.00    +0.000 OA
ATOM     18  C   UNL     1      10.176  13.643  19.200  0.00  0.00    +0.000 C 
ATOM     19  O   UNL     1       9.169  13.532  18.175  0.00  0.00    +0.000 OA
ENDBRANCH   9  11
ENDBRANCH   1   8
BRANCH   4  20
ATOM     20  S   UNL     1       3.619   4.270  18.136  0.00  0.00    +0.000 S 
ATOM     21  O   UNL     1       3.352   3.974  16.742  0.00  0.00    +0.000 OA
ATOM     22  O   UNL     1       3.135   3.401  19.187  0.00  0.00    +0.000 OA
BRANCH  20  23
ATOM     23  C   UNL     1       3.019   5.914  18.439  0.00  0.00    +0.000 A 
ATOM     24  C   UNL     1       3.194   6.912  17.462  0.00  0.00    +0.000 A 
ATOM     25  C   UNL     1       2.748   8.214  17.702  0.00  0.00    +0.000 A 
ATOM     26  C   UNL     1       2.117   8.480  18.906  0.00  0.00    +0.000 A 
ATOM     27  C   UNL     1       1.943   7.482  19.874  0.00  0.00    +0.000 A 
ATOM     28  C   UNL     1       2.408   6.194  19.667  0.00  0.00    +0.000 A 
ATOM     29  C   UNL     1       1.252   8.033  21.083  0.00  0.00    +0.000 C 
ATOM     30  C   UNL     1       0.628   9.311  20.503  0.00  0.00    +0.000 C 
ATOM     31  C   UNL     1       1.574   9.788  19.393  0.00  0.00    +0.000 C 
ENDBRANCH  20  23
ENDBRANCH   4  20
TORSDOF 4
ENDMDL
MODEL 2
REMARK VINA RESULT:      -8.4      5.453      8.638
REMARK  Name = 
REMARK  4 active torsions:
REMARK  status: ('A' for Active; 'I' for Inactive)
REMARK    1  A    between atoms: C_2  and  C_13
REMARK    2  A    between atoms: N_3  and  C_4
REMARK    3  A    between atoms: N_16  and  S_17
REMARK    4  A    between atoms: S_17  and  C_20
REMARK                            x       y       z     vdW  Elec       q    Type
REMARK                         _______ _______ _______ _____ _____    ______ ____
ROOT
ATOM      1  C   UNL     1       0.692  10.087  18.296  0.00  0.00    +0.000 C 
ATOM      2  C   UNL     1       1.302  11.458  18.620  0.00  0.00    +0.000 C 
ATOM      3  C   UNL     1       1.179  11.815  20.103  0.00  0.00    +0.000 C 
ATOM      4  N   UNL     1      -0.251  11.761  20.527  0.00  0.00    +0.000 NA
ATOM      5  C   UNL     1      -0.854  10.417  20.277  0.00  0.00    +0.000 C 
ATOM      6  C   UNL     1      -0.751  10.045  18.800  0.00  0.00    +0.000 C 
ENDROOT
BRANCH   1   8
ATOM      7  O   UNL     1       1.613   8.749  20.073  0.00  0.00    +0.000 OA
ATOM      8  C   UNL     1       1.548   8.947  18.862  0.00  0.00    +0.000 C 
ATOM      9  N   UNL     1       2.258   8.245  17.900  0.00  0.00    +0.000 N 
ATOM     10  H   UNL     1       2.326   8.661  16.980  0.00  0.00    +0.000 HD
BRANCH   9  11
ATOM     11  C   UNL     1       3.108   7.142  18.155  0.00  0.00    +0.000 A 
ATOM     12  C   UNL     1       2.831   6.176  19.146  0.00  0.00    +0.000 A 
ATOM     13  C   UNL     1       3.734   5.146  19.430  0.00  0.00    +0.000 A 
ATOM     14  C   UNL     1       4.904   5.108  18.711  0.00  0.00    +0.000 A 
ATOM     15  C   UNL     1       5.166   6.017  17.715  0.00  0.00    +0.000 A 
ATOM     16  C   UNL     1       4.281   7.029  17.395  0.00  0.00    +0.000 A 
ATOM     17  O   UNL     1       6.380   5.807  17.135  0.00  0.00    +0.000 OA
ATOM     18  C   UNL     1       6.888   4.732  17.955  0.00  0.00    +0.000 C 
ATOM     19  O   UNL     1       5.915   4.217  18.887  0.00  0.00    +0.000 OA
ENDBRANCH   9  11
ENDBRANCH   1   8
BRANCH   4  20
ATOM     20  S   UNL     1      -0.496  12.251  22.169  0.00  0.00    +0.000 S 
ATOM     21  O   UNL     1      -0.313  11.085  23.011  0.00  0.00    +0.000 OA
ATOM     22  O   UNL     1       0.284  13.451  22.382  0.00  0.00    +0.000 OA
BRANCH  20  23
ATOM     23  C   UNL     1      -2.219  12.675  22.241  0.00  0.00    +0.000 A 
ATOM     24  C   UNL     1      -2.825  13.319  21.147  0.00  0.00    +0.000 A 
ATOM     25  C   UNL     1      -4.174  13.681  21.205  0.00  0.00    +0.000 A 
ATOM     26  C   UNL     1      -4.889  13.366  22.349  0.00  0.00    +0.000 A 
ATOM     27  C   UNL     1      -4.280  12.722  23.435  0.00  0.00    +0.000 A 
ATOM     28  C   UNL     1      -2.937  12.387  23.408  0.00  0.00    +0.000 A 
ATOM     29  C   UNL     1      -5.263  12.515  24.546  0.00  0.00    +0.000 C 
ATOM     30  C   UNL     1      -6.591  12.671  23.790  0.00  0.00    +0.000 C 
ATOM     31  C   UNL     1      -6.326  13.662  22.649  0.00  0.00    +0.000 C 
ENDBRANCH  20  23
ENDBRANCH   4  20
TORSDOF 4
ENDMDL
MODEL 3
REMARK VINA RESULT:      -8.4      6.821     10.680
REMARK  Name = 
REMARK  4 active torsions:
REMARK  status: ('A' for Active; 'I' for Inactive)
REMARK    1  A    between atoms: C_2  and  C_13
REMARK    2  A    between atoms: N_3  and  C_4
REMARK    3  A    between atoms: N_16  and  S_17
REMARK    4  A    between atoms: S_17  and  C_20
REMARK                            x       y       z     vdW  Elec       q    Type
REMARK                         _______ _______ _______ _____ _____    ______ ____
ROOT
ATOM      1  C   UNL     1      -0.579  12.844  19.250  0.00  0.00    +0.000 C 
ATOM      2  C   UNL     1      -1.060  11.499  18.687  0.00  0.00    +0.000 C 
ATOM      3  C   UNL     1      -0.914  10.359  19.697  0.00  0.00    +0.000 C 
ATOM      4  N   UNL     1       0.502  10.260  20.159  0.00  0.00    +0.000 NA
ATOM      5  C   UNL     1       0.978  11.540  20.766  0.00  0.00    +0.000 C 
ATOM      6  C   UNL     1       0.851  12.691  19.771  0.00  0.00    +0.000 C 
ENDROOT
BRANCH   1   8
ATOM      7  O   UNL     1      -1.117  13.858  21.366  0.00  0.00    +0.000 OA
ATOM      8  C   UNL     1      -1.541  13.379  20.317  0.00  0.00    +0.000 C 
ATOM      9  N   UNL     1      -2.881  13.206  20.005  0.00  0.00    +0.000 N 
ATOM     10  H   UNL     1      -3.101  12.573  19.246  0.00  0.00    +0.000 HD
BRANCH   9  11
ATOM     11  C   UNL     1      -3.969  13.622  20.811  0.00  0.00    +0.000 A 
ATOM     12  C   UNL     1      -4.276  14.980  21.038  0.00  0.00    +0.000 A 
ATOM     13  C   UNL     1      -5.305  15.358  21.907  0.00  0.00    +0.000 A 
ATOM     14  C   UNL     1      -6.007  14.358  22.535  0.00  0.00    +0.000 A 
ATOM     15  C   UNL     1      -5.745  13.032  22.290  0.00  0.00    +0.000 A 
ATOM     16  C   UNL     1      -4.753  12.630  21.417  0.00  0.00    +0.000 A 
ATOM     17  O   UNL     1      -6.547  12.208  23.019  0.00  0.00    +0.000 OA
ATOM     18  C   UNL     1      -7.262  13.170  23.825  0.00  0.00    +0.000 C 
ATOM     19  O   UNL     1      -6.998  14.537  23.448  0.00  0.00    +0.000 OA
ENDBRANCH   9  11
ENDBRANCH   1   8
BRANCH   4  20
ATOM     20  S   UNL     1       0.781   8.929  21.229  0.00  0.00    +0.000 S 
ATOM     21  O   UNL     1       1.703   9.372  22.256  0.00  0.00    +0.000 OA
ATOM     22  O   UNL     1      -0.510   8.377  21.577  0.00  0.00    +0.000 OA
BRANCH  20  23
ATOM     23  C   UNL     1       1.652   7.747  20.230  0.00  0.00    +0.000 A 
ATOM     24  C   UNL     1       2.188   8.142  18.990  0.00  0.00    +0.000 A 
ATOM     25  C   UNL     1       2.851   7.213  18.185  0.00  0.00    +0.000 A 
ATOM     26  C   UNL     1       2.982   5.915  18.652  0.00  0.00    +0.000 A 
ATOM     27  C   UNL     1       2.448   5.527  19.888  0.00  0.00    +0.000 A 
ATOM     28  C   UNL     1       1.758   6.427  20.684  0.00  0.00    +0.000 A 
ATOM     29  C   UNL     1       2.710   4.076  20.146  0.00  0.00    +0.000 C 
ATOM     30  C   UNL     1       3.857   3.809  19.159  0.00  0.00    +0.000 C 
ATOM     31  C   UNL     1       3.630   4.750  17.969  0.00  0.00    +0.000 C 
ENDBRANCH  20  23
ENDBRANCH   4  20
TORSDOF 4
ENDMDL
MODEL 4
REMARK VINA RESULT:      -8.4      6.725     10.754
REMARK  Name = 
REMARK  4 active torsions:
REMARK  status: ('A' for Active; 'I' for Inactive)
REMARK    1  A    between atoms: C_2  and  C_13
REMARK    2  A    between atoms: N_3  and  C_4
REMARK    3  A    between atoms: N_16  and  S_17
REMARK    4  A    between atoms: S_17  and  C_20
REMARK                            x       y       z     vdW  Elec       q    Type
REMARK                         _______ _______ _______ _____ _____    ______ ____
ROOT
ATOM      1  C   UNL     1      -0.705  12.867  19.459  0.00  0.00    +0.000 C 
ATOM      2  C   UNL     1      -1.170  11.522  18.881  0.00  0.00    +0.000 C 
ATOM      3  C   UNL     1      -0.959  10.364  19.857  0.00  0.00    +0.000 C 
ATOM      4  N   UNL     1       0.474  10.292  20.269  0.00  0.00    +0.000 NA
ATOM      5  C   UNL     1       0.937  11.570  20.890  0.00  0.00    +0.000 C 
ATOM      6  C   UNL     1       0.746  12.740  19.927  0.00  0.00    +0.000 C 
ENDROOT
BRANCH   1   8
ATOM      7  O   UNL     1      -1.404  14.382  21.193  0.00  0.00    +0.000 OA
ATOM      8  C   UNL     1      -1.643  13.351  20.571  0.00  0.00    +0.000 C 
ATOM      9  N   UNL     1      -2.704  12.494  20.825  0.00  0.00    +0.000 N 
ATOM     10  H   UNL     1      -2.649  11.562  20.434  0.00  0.00    +0.000 HD
BRANCH   9  11
ATOM     11  C   UNL     1      -3.719  12.713  21.788  0.00  0.00    +0.000 A 
ATOM     12  C   UNL     1      -3.493  12.597  23.176  0.00  0.00    +0.000 A 
ATOM     13  C   UNL     1      -4.537  12.737  24.097  0.00  0.00    +0.000 A 
ATOM     14  C   UNL     1      -5.794  12.990  23.602  0.00  0.00    +0.000 A 
ATOM     15  C   UNL     1      -6.018  13.147  22.255  0.00  0.00    +0.000 A 
ATOM     16  C   UNL     1      -5.001  13.041  21.326  0.00  0.00    +0.000 A 
ATOM     17  O   UNL     1      -7.330  13.383  21.978  0.00  0.00    +0.000 OA
ATOM     18  C   UNL     1      -7.912  13.247  23.293  0.00  0.00    +0.000 C 
ATOM     19  O   UNL     1      -6.930  13.101  24.339  0.00  0.00    +0.000 OA
ENDBRANCH   9  11
ENDBRANCH   1   8
BRANCH   4  20
ATOM     20  S   UNL     1       0.824   8.944  21.296  0.00  0.00    +0.000 S 
ATOM     21  O   UNL     1       1.799   9.377  22.278  0.00  0.00    +0.000 OA
ATOM     22  O   UNL     1      -0.440   8.374  21.706  0.00  0.00    +0.000 OA
BRANCH  20  23
ATOM     23  C   UNL     1       1.647   7.789  20.227  0.00  0.00    +0.000 A 
ATOM     24  C   UNL     1       2.089   8.206  18.958  0.00  0.00    +0.000 A 
ATOM     25  C   UNL     1       2.713   7.297  18.099  0.00  0.00    +0.000 A 
ATOM     26  C   UNL     1       2.901   5.998  18.543  0.00  0.00    +0.000 A 
ATOM     27  C   UNL     1       2.461   5.589  19.810  0.00  0.00    +0.000 A 
ATOM     28  C   UNL     1       1.810   6.468  20.660  0.00  0.00    +0.000 A 
ATOM     29  C   UNL     1       2.769   4.141  20.034  0.00  0.00    +0.000 C 
ATOM     30  C   UNL     1       3.850   3.906  18.968  0.00  0.00    +0.000 C 
ATOM     31  C   UNL     1       3.523   4.853  17.806  0.00  0.00    +0.000 C 
ENDBRANCH  20  23
ENDBRANCH   4  20
TORSDOF 4
ENDMDL
MODEL 5
REMARK VINA RESULT:      -8.4      5.432      8.881
REMARK  Name = 
REMARK  4 active torsions:
REMARK  status: ('A' for Active; 'I' for Inactive)
REMARK    1  A    between atoms: C_2  and  C_13
REMARK    2  A    between atoms: N_3  and  C_4
REMARK    3  A    between atoms: N_16  and  S_17
REMARK    4  A    between atoms: S_17  and  C_20
REMARK                            x       y       z     vdW  Elec       q    Type
REMARK                         _______ _______ _______ _____ _____    ______ ____
ROOT
ATOM      1  C   UNL     1       0.696  10.027  18.292  0.00  0.00    +0.000 C 
ATOM      2  C   UNL     1       1.293  11.408  18.603  0.00  0.00    +0.000 C 
ATOM      3  C   UNL     1       1.172  11.775  20.083  0.00  0.00    +0.000 C 
ATOM      4  N   UNL     1      -0.255  11.708  20.514  0.00  0.00    +0.000 NA
ATOM      5  C   UNL     1      -0.845  10.356  20.277  0.00  0.00    +0.000 C 
ATOM      6  C   UNL     1      -0.745   9.974  18.802  0.00  0.00    +0.000 C 
ENDROOT
BRANCH   1   8
ATOM      7  O   UNL     1       1.649   8.721  20.075  0.00  0.00    +0.000 OA
ATOM      8  C   UNL     1       1.567   8.901  18.863  0.00  0.00    +0.000 C 
ATOM      9  N   UNL     1       2.269   8.190  17.902  0.00  0.00    +0.000 N 
ATOM     10  H   UNL     1       2.322   8.593  16.975  0.00  0.00    +0.000 HD
BRANCH   9  11
ATOM     11  C   UNL     1       3.130   7.096  18.162  0.00  0.00    +0.000 A 
ATOM     12  C   UNL     1       4.401   6.965  17.564  0.00  0.00    +0.000 A 
ATOM     13  C   UNL     1       5.192   5.830  17.776  0.00  0.00    +0.000 A 
ATOM     14  C   UNL     1       4.685   4.844  18.587  0.00  0.00    +0.000 A 
ATOM     15  C   UNL     1       3.467   4.979  19.209  0.00  0.00    +0.000 A 
ATOM     16  C   UNL     1       2.677   6.100  19.038  0.00  0.00    +0.000 A 
ATOM     17  O   UNL     1       3.150   3.887  19.958  0.00  0.00    +0.000 OA
ATOM     18  C   UNL     1       4.259   3.015  19.646  0.00  0.00    +0.000 C 
ATOM     19  O   UNL     1       5.284   3.656  18.861  0.00  0.00    +0.000 OA
ENDBRANCH   9  11
ENDBRANCH   1   8
BRANCH   4  20
ATOM     20  S   UNL     1      -0.499  12.209  22.153  0.00  0.00    +0.000 S 
ATOM     21  O   UNL     1      -0.304  11.050  23.003  0.00  0.00    +0.000 OA
ATOM     22  O   UNL     1       0.272  13.416  22.355  0.00  0.00    +0.000 OA
BRANCH  20  23
ATOM     23  C   UNL     1      -2.225  12.619  22.228  0.00  0.00    +0.000 A 
ATOM     24  C   UNL     1      -2.850  13.212  21.115  0.00  0.00    +0.000 A 
ATOM     25  C   UNL     1      -4.201  13.563  21.174  0.00  0.00    +0.000 A 
ATOM     26  C   UNL     1      -4.900  13.290  22.339  0.00  0.00    +0.000 A 
ATOM     27  C   UNL     1      -4.272  12.697  23.444  0.00  0.00    +0.000 A 
ATOM     28  C   UNL     1      -2.926  12.374  23.414  0.00  0.00    +0.000 A 
ATOM     29  C   UNL     1      -5.240  12.529  24.573  0.00  0.00    +0.000 C 
ATOM     30  C   UNL     1      -6.579  12.640  23.827  0.00  0.00    +0.000 C 
ATOM     31  C   UNL     1      -6.336  13.585  22.643  0.00  0.00    +0.000 C 
ENDBRANCH  20  23
ENDBRANCH   4  20
TORSDOF 4
ENDMDL
MODEL 6
REMARK VINA RESULT:      -8.3      0.519      1.257
REMARK  Name = 
REMARK  4 active torsions:
REMARK  status: ('A' for Active; 'I' for Inactive)
REMARK    1  A    between atoms: C_2  and  C_13
REMARK    2  A    between atoms: N_3  and  C_4
REMARK    3  A    between atoms: N_16  and  S_17
REMARK    4  A    between atoms: S_17  and  C_20
REMARK                            x       y       z     vdW  Elec       q    Type
REMARK                         _______ _______ _______ _____ _____    ______ ____
ROOT
ATOM      1  C   UNL     1       8.041   5.651  18.681  0.00  0.00    +0.000 C 
ATOM      2  C   UNL     1       7.792   4.625  17.565  0.00  0.00    +0.000 C 
ATOM      3  C   UNL     1       6.329   4.594  17.118  0.00  0.00    +0.000 C 
ATOM      4  N   UNL     1       5.440   4.327  18.286  0.00  0.00    +0.000 NA
ATOM      5  C   UNL     1       5.619   5.346  19.364  0.00  0.00    +0.000 C 
ATOM      6  C   UNL     1       7.071   5.387  19.834  0.00  0.00    +0.000 C 
ENDROOT
BRANCH   1   8
ATOM      7  O   UNL     1       7.375   7.331  17.091  0.00  0.00    +0.000 OA
ATOM      8  C   UNL     1       7.949   7.086  18.149  0.00  0.00    +0.000 C 
ATOM      9  N   UNL     1       8.614   8.020  18.929  0.00  0.00    +0.000 N 
ATOM     10  H   UNL     1       9.259   7.666  19.625  0.00  0.00    +0.000 HD
BRANCH   9  11
ATOM     11  C   UNL     1       8.671   9.411  18.670  0.00  0.00    +0.000 A 
ATOM     12  C   UNL     1       7.849  10.044  17.714  0.00  0.00    +0.000 A 
ATOM     13  C   UNL     1       7.989  11.405  17.421  0.00  0.00    +0.000 A 
ATOM     14  C   UNL     1       8.960  12.105  18.097  0.00  0.00    +0.000 A 
ATOM     15  C   UNL     1       9.738  11.509  19.060  0.00  0.00    +0.000 A 
ATOM     16  C   UNL     1       9.602  10.173  19.388  0.00  0.00    +0.000 A 
ATOM     17  O   UNL     1      10.639  12.375  19.599  0.00  0.00    +0.000 OA
ATOM     18  C   UNL     1      10.407  13.547  18.787  0.00  0.00    +0.000 C 
ATOM     19  O   UNL     1       9.274  13.413  17.905  0.00  0.00    +0.000 OA
ENDBRANCH   9  11
ENDBRANCH   1   8
BRANCH   4  20
ATOM     20  S   UNL     1       3.771   4.172  17.854  0.00  0.00    +0.000 S 
ATOM     21  O   UNL     1       3.672   4.305  16.414  0.00  0.00    +0.000 OA
ATOM     22  O   UNL     1       3.258   3.000  18.529  0.00  0.00    +0.000 OA
BRANCH  20  23
ATOM     23  C   UNL     1       3.007   5.612  18.559  0.00  0.00    +0.000 A 
ATOM     24  C   UNL     1       2.556   5.581  19.891  0.00  0.00    +0.000 A 
ATOM     25  C   UNL     1       1.929   6.700  20.445  0.00  0.00    +0.000 A 
ATOM     26  C   UNL     1       1.791   7.832  19.658  0.00  0.00    +0.000 A 
ATOM     27  C   UNL     1       2.244   7.858  18.332  0.00  0.00    +0.000 A 
ATOM     28  C   UNL     1       2.837   6.747  17.756  0.00  0.00    +0.000 A 
ATOM     29  C   UNL     1       1.959   9.185  17.702  0.00  0.00    +0.000 C 
ATOM     30  C   UNL     1       1.739  10.057  18.948  0.00  0.00    +0.000 C 
ATOM     31  C   UNL     1       1.147   9.134  20.021  0.00  0.00    +0.000 C 
ENDBRANCH  20  23
ENDBRANCH   4  20
TORSDOF 4
ENDMDL
MODEL 7
REMARK VINA RESULT:      -8.2      3.711      6.217
REMARK  Name = 
REMARK  4 active torsions:
REMARK  status: ('A' for Active; 'I' for Inactive)
REMARK    1  A    between atoms: C_2  and  C_13
REMARK    2  A    between atoms: N_3  and  C_4
REMARK    3  A    between atoms: N_16  and  S_17
REMARK    4  A    between atoms: S_17  and  C_20
REMARK                            x       y       z     vdW  Elec       q    Type
REMARK                         _______ _______ _______ _____ _____    ______ ____
ROOT
ATOM      1  C   UNL     1       7.398   6.231  17.944  0.00  0.00    +0.000 C 
ATOM      2  C   UNL     1       7.018   5.526  19.255  0.00  0.00    +0.000 C 
ATOM      3  C   UNL     1       5.558   5.068  19.269  0.00  0.00    +0.000 C 
ATOM      4  N   UNL     1       4.654   6.227  19.012  0.00  0.00    +0.000 NA
ATOM      5  C   UNL     1       4.963   6.896  17.712  0.00  0.00    +0.000 C 
ATOM      6  C   UNL     1       6.414   7.372  17.681  0.00  0.00    +0.000 C 
ENDROOT
BRANCH   1   8
ATOM      7  O   UNL     1       8.047   4.158  16.907  0.00  0.00    +0.000 OA
ATOM      8  C   UNL     1       7.475   5.237  16.779  0.00  0.00    +0.000 C 
ATOM      9  N   UNL     1       6.910   5.705  15.602  0.00  0.00    +0.000 N 
ATOM     10  H   UNL     1       6.706   6.695  15.548  0.00  0.00    +0.000 HD
BRANCH   9  11
ATOM     11  C   UNL     1       6.837   4.981  14.387  0.00  0.00    +0.000 A 
ATOM     12  C   UNL     1       7.838   5.050  13.395  0.00  0.00    +0.000 A 
ATOM     13  C   UNL     1       7.695   4.389  12.170  0.00  0.00    +0.000 A 
ATOM     14  C   UNL     1       6.542   3.671  11.965  0.00  0.00    +0.000 A 
ATOM     15  C   UNL     1       5.579   3.562  12.939  0.00  0.00    +0.000 A 
ATOM     16  C   UNL     1       5.707   4.182  14.167  0.00  0.00    +0.000 A 
ATOM     17  O   UNL     1       4.518   2.815  12.529  0.00  0.00    +0.000 OA
ATOM     18  C   UNL     1       4.880   2.562  11.154  0.00  0.00    +0.000 C 
ATOM     19  O   UNL     1       6.209   3.014  10.822  0.00  0.00    +0.000 OA
ENDBRANCH   9  11
ENDBRANCH   1   8
BRANCH   4  20
ATOM     20  S   UNL     1       2.974   5.819  19.111  0.00  0.00    +0.000 S 
ATOM     21  O   UNL     1       2.591   5.211  17.852  0.00  0.00    +0.000 OA
ATOM     22  O   UNL     1       2.773   5.125  20.364  0.00  0.00    +0.000 OA
BRANCH  20  23
ATOM     23  C   UNL     1       2.152   7.391  19.196  0.00  0.00    +0.000 A 
ATOM     24  C   UNL     1       2.057   8.192  18.042  0.00  0.00    +0.000 A 
ATOM     25  C   UNL     1       1.436   9.441  18.106  0.00  0.00    +0.000 A 
ATOM     26  C   UNL     1       0.903   9.849  19.318  0.00  0.00    +0.000 A 
ATOM     27  C   UNL     1       0.999   9.046  20.463  0.00  0.00    +0.000 A 
ATOM     28  C   UNL     1       1.641   7.820  20.427  0.00  0.00    +0.000 A 
ATOM     29  C   UNL     1       0.363   9.723  21.638  0.00  0.00    +0.000 C 
ATOM     30  C   UNL     1      -0.519  10.764  20.931  0.00  0.00    +0.000 C 
ATOM     31  C   UNL     1       0.212  11.139  19.634  0.00  0.00    +0.000 C 
ENDBRANCH  20  23
ENDBRANCH   4  20
TORSDOF 4
ENDMDL
MODEL 8
REMARK VINA RESULT:      -8.2      5.081      9.237
REMARK  Name = 
REMARK  4 active torsions:
REMARK  status: ('A' for Active; 'I' for Inactive)
REMARK    1  A    between atoms: C_2  and  C_13
REMARK    2  A    between atoms: N_3  and  C_4
REMARK    3  A    between atoms: N_16  and  S_17
REMARK    4  A    between atoms: S_17  and  C_20
REMARK                            x       y       z     vdW  Elec       q    Type
REMARK                         _______ _______ _______ _____ _____    ______ ____
ROOT
ATOM      1  C   UNL     1       1.166  10.366  19.393  0.00  0.00    +0.000 C 
ATOM      2  C   UNL     1       1.929   9.821  18.177  0.00  0.00    +0.000 C 
ATOM      3  C   UNL     1       1.823   8.299  18.057  0.00  0.00    +0.000 C 
ATOM      4  N   UNL     1       2.301   7.650  19.312  0.00  0.00    +0.000 NA
ATOM      5  C   UNL     1       1.534   8.119  20.506  0.00  0.00    +0.000 C 
ATOM      6  C   UNL     1       1.635   9.635  20.652  0.00  0.00    +0.000 C 
ENDROOT
BRANCH   1   8
ATOM      7  O   UNL     1      -1.028   9.481  19.839  0.00  0.00    +0.000 OA
ATOM      8  C   UNL     1      -0.351  10.273  19.188  0.00  0.00    +0.000 C 
ATOM      9  N   UNL     1      -0.835  11.097  18.184  0.00  0.00    +0.000 N 
ATOM     10  H   UNL     1      -0.157  11.503  17.551  0.00  0.00    +0.000 HD
BRANCH   9  11
ATOM     11  C   UNL     1      -2.195  11.211  17.804  0.00  0.00    +0.000 A 
ATOM     12  C   UNL     1      -2.671  10.814  16.537  0.00  0.00    +0.000 A 
ATOM     13  C   UNL     1      -4.003  11.018  16.163  0.00  0.00    +0.000 A 
ATOM     14  C   UNL     1      -4.835  11.623  17.075  0.00  0.00    +0.000 A 
ATOM     15  C   UNL     1      -4.394  11.976  18.327  0.00  0.00    +0.000 A 
ATOM     16  C   UNL     1      -3.090  11.761  18.732  0.00  0.00    +0.000 A 
ATOM     17  O   UNL     1      -5.372  12.566  19.068  0.00  0.00    +0.000 OA
ATOM     18  C   UNL     1      -6.439  12.638  18.097  0.00  0.00    +0.000 C 
ATOM     19  O   UNL     1      -6.137  11.949  16.867  0.00  0.00    +0.000 OA
ENDBRANCH   9  11
ENDBRANCH   1   8
BRANCH   4  20
ATOM     20  S   UNL     1       2.313   5.921  19.227  0.00  0.00    +0.000 S 
ATOM     21  O   UNL     1       2.333   5.411  20.584  0.00  0.00    +0.000 OA
ATOM     22  O   UNL     1       1.273   5.528  18.301  0.00  0.00    +0.000 OA
BRANCH  20  23
ATOM     23  C   UNL     1       3.889   5.535  18.507  0.00  0.00    +0.000 A 
ATOM     24  C   UNL     1       4.979   5.220  19.340  0.00  0.00    +0.000 A 
ATOM     25  C   UNL     1       6.229   4.942  18.783  0.00  0.00    +0.000 A 
ATOM     26  C   UNL     1       6.353   4.961  17.403  0.00  0.00    +0.000 A 
ATOM     27  C   UNL     1       5.264   5.273  16.578  0.00  0.00    +0.000 A 
ATOM     28  C   UNL     1       4.025   5.585  17.114  0.00  0.00    +0.000 A 
ATOM     29  C   UNL     1       5.667   5.243  15.137  0.00  0.00    +0.000 C 
ATOM     30  C   UNL     1       6.959   4.415  15.214  0.00  0.00    +0.000 C 
ATOM     31  C   UNL     1       7.582   4.715  16.584  0.00  0.00    +0.000 C 
ENDBRANCH  20  23
ENDBRANCH   4  20
TORSDOF 4
ENDMDL
MODEL 9
REMARK VINA RESULT:      -8.2      7.174     10.895
REMARK  Name = 
REMARK  4 active torsions:
REMARK  status: ('A' for Active; 'I' for Inactive)
REMARK    1  A    between atoms: C_2  and  C_13
REMARK    2  A    between atoms: N_3  and  C_4
REMARK    3  A    between atoms: N_16  and  S_17
REMARK    4  A    between atoms: S_17  and  C_20
REMARK                            x       y       z     vdW  Elec       q    Type
REMARK                         _______ _______ _______ _____ _____    ______ ____
ROOT
ATOM      1  C   UNL     1      -1.214  12.735  19.396  0.00  0.00    +0.000 C 
ATOM      2  C   UNL     1      -1.030  11.443  18.586  0.00  0.00    +0.000 C 
ATOM      3  C   UNL     1      -0.826  10.218  19.480  0.00  0.00    +0.000 C 
ATOM      4  N   UNL     1       0.333  10.437  20.394  0.00  0.00    +0.000 NA
ATOM      5  C   UNL     1       0.153  11.657  21.238  0.00  0.00    +0.000 C 
ATOM      6  C   UNL     1      -0.042  12.894  20.365  0.00  0.00    +0.000 C 
ENDROOT
BRANCH   1   8
ATOM      7  O   UNL     1      -3.544  12.176  19.628  0.00  0.00    +0.000 OA
ATOM      8  C   UNL     1      -2.574  12.759  20.105  0.00  0.00    +0.000 C 
ATOM      9  N   UNL     1      -2.596  13.534  21.254  0.00  0.00    +0.000 N 
ATOM     10  H   UNL     1      -1.819  14.167  21.401  0.00  0.00    +0.000 HD
BRANCH   9  11
ATOM     11  C   UNL     1      -3.718  13.711  22.099  0.00  0.00    +0.000 A 
ATOM     12  C   UNL     1      -4.049  12.808  23.131  0.00  0.00    +0.000 A 
ATOM     13  C   UNL     1      -5.212  12.967  23.893  0.00  0.00    +0.000 A 
ATOM     14  C   UNL     1      -6.024  14.036  23.599  0.00  0.00    +0.000 A 
ATOM     15  C   UNL     1      -5.691  14.946  22.625  0.00  0.00    +0.000 A 
ATOM     16  C   UNL     1      -4.536  14.828  21.876  0.00  0.00    +0.000 A 
ATOM     17  O   UNL     1      -6.633  15.919  22.489  0.00  0.00    +0.000 OA
ATOM     18  C   UNL     1      -7.640  15.451  23.414  0.00  0.00    +0.000 C 
ATOM     19  O   UNL     1      -7.213  14.316  24.194  0.00  0.00    +0.000 OA
ENDBRANCH   9  11
ENDBRANCH   1   8
BRANCH   4  20
ATOM     20  S   UNL     1       0.701   9.058  21.374  0.00  0.00    +0.000 S 
ATOM     21  O   UNL     1       1.659   9.474  22.380  0.00  0.00    +0.000 OA
ATOM     22  O   UNL     1      -0.555   8.449  21.750  0.00  0.00    +0.000 OA
BRANCH  20  23
ATOM     23  C   UNL     1       1.556   7.960  20.271  0.00  0.00    +0.000 A 
ATOM     24  C   UNL     1       2.022   8.439  19.032  0.00  0.00    +0.000 A 
ATOM     25  C   UNL     1       2.672   7.576  18.146  0.00  0.00    +0.000 A 
ATOM     26  C   UNL     1       2.861   6.259  18.533  0.00  0.00    +0.000 A 
ATOM     27  C   UNL     1       2.396   5.788  19.769  0.00  0.00    +0.000 A 
ATOM     28  C   UNL     1       1.720   6.621  20.645  0.00  0.00    +0.000 A 
ATOM     29  C   UNL     1       2.710   4.333  19.932  0.00  0.00    +0.000 C 
ATOM     30  C   UNL     1       3.816   4.155  18.881  0.00  0.00    +0.000 C 
ATOM     31  C   UNL     1       3.507   5.154  17.757  0.00  0.00    +0.000 C 
ENDBRANCH  20  23
ENDBRANCH   4  20
TORSDOF 4
ENDMDL
