MODEL 1
REMARK VINA RESULT:      -9.1      0.000      0.000
REMARK  Name = 
REMARK  6 active torsions:
REMARK  status: ('A' for Active; 'I' for Inactive)
REMARK    1  A    between atoms: C_2  and  C_15
REMARK    2  A    between atoms: N_3  and  C_4
REMARK    3  A    between atoms: C_4  and  C_5
REMARK    4  A    between atoms: C_9  and  C_10
REMARK    5  A    between atoms: C_20  and  S_21
REMARK    6  A    between atoms: S_21  and  N_24
REMARK                            x       y       z     vdW  Elec       q    Type
REMARK                         _______ _______ _______ _____ _____    ______ ____
ROOT
ATOM      1  C   UNL     1       5.687   5.929  18.191  0.00  0.00    +0.000 A 
ATOM      2  C   UNL     1       5.334   6.886  17.238  0.00  0.00    +0.000 A 
ATOM      3  C   UNL     1       4.046   7.442  17.254  0.00  0.00    +0.000 A 
ATOM      4  C   UNL     1       3.086   6.989  18.167  0.00  0.00    +0.000 A 
ATOM      5  F   UNL     1       1.848   7.489  18.088  0.00  0.00    +0.000 F 
ATOM      6  C   UNL     1       3.438   6.046  19.114  0.00  0.00    +0.000 A 
ATOM      7  C   UNL     1       4.769   5.608  19.195  0.00  0.00    +0.000 A 
ENDROOT
BRANCH   1   9
ATOM      8  O   UNL     1       7.938   5.515  18.757  0.00  0.00    +0.000 OA
ATOM      9  C   UNL     1       6.984   5.200  18.050  0.00  0.00    +0.000 C 
ATOM     10  N   UNL     1       7.119   4.233  17.072  0.00  0.00    +0.000 N 
ATOM     11  H   UNL     1       8.015   3.760  17.073  0.00  0.00    +0.000 HD
BRANCH  10  12
ATOM     12  C   UNL     1       6.090   3.723  16.185  0.00  0.00    +0.000 C 
BRANCH  12  13
ATOM     13  C   UNL     1       6.218   4.108  14.746  0.00  0.00    +0.000 A 
ATOM     14  C   UNL     1       7.379   4.748  14.298  0.00  0.00    +0.000 A 
ATOM     15  C   UNL     1       7.613   4.907  12.935  0.00  0.00    +0.000 A 
ATOM     16  C   UNL     1       6.691   4.414  12.009  0.00  0.00    +0.000 A 
ATOM     17  C   UNL     1       5.523   3.768  12.438  0.00  0.00    +0.000 A 
ATOM     18  C   UNL     1       5.286   3.635  13.813  0.00  0.00    +0.000 A 
BRANCH  17  19
ATOM     19  C   UNL     1       4.553   3.159  11.457  0.00  0.00    +0.000 C 
ATOM     20  F   UNL     1       3.327   2.899  11.991  0.00  0.00    +0.000 F 
ATOM     21  F   UNL     1       4.327   3.968  10.383  0.00  0.00    +0.000 F 
ATOM     22  F   UNL     1       4.998   1.978  10.946  0.00  0.00    +0.000 F 
ENDBRANCH  17  19
ENDBRANCH  12  13
ENDBRANCH  10  12
ENDBRANCH   1   9
BRANCH   6  23
ATOM     23  S   UNL     1       2.298   5.100  20.075  0.00  0.00    +0.000 S 
ATOM     24  O   UNL     1       3.122   4.124  20.763  0.00  0.00    +0.000 OA
ATOM     25  O   UNL     1       1.533   6.064  20.839  0.00  0.00    +0.000 OA
BRANCH  23  26
ATOM     26  N   UNL     1       1.229   4.253  19.071  0.00  0.00    +0.000 NA
ATOM     27  C   UNL     1       0.843   2.872  19.504  0.00  0.00    +0.000 C 
ATOM     28  C   UNL     1       1.938   1.843  19.174  0.00  0.00    +0.000 C 
ATOM     29  O   UNL     1       2.294   1.866  17.784  0.00  0.00    +0.000 OA
ATOM     30  C   UNL     1       2.731   3.171  17.378  0.00  0.00    +0.000 C 
ATOM     31  C   UNL     1       1.631   4.211  17.620  0.00  0.00    +0.000 C 
ENDBRANCH  23  26
ENDBRANCH   6  23
TORSDOF 6
ENDMDL
MODEL 2
REMARK VINA RESULT:      -8.9      0.646      1.086
REMARK  Name = 
REMARK  6 active torsions:
REMARK  status: ('A' for Active; 'I' for Inactive)
REMARK    1  A    between atoms: C_2  and  C_15
REMARK    2  A    between atoms: N_3  and  C_4
REMARK    3  A    between atoms: C_4  and  C_5
REMARK    4  A    between atoms: C_9  and  C_10
REMARK    5  A    between atoms: C_20  and  S_21
REMARK    6  A    between atoms: S_21  and  N_24
REMARK                            x       y       z     vdW  Elec       q    Type
REMARK                         _______ _______ _______ _____ _____    ______ ____
ROOT
ATOM      1  C   UNL     1       5.662   5.819  18.178  0.00  0.00    +0.000 A 
ATOM      2  C   UNL     1       5.334   6.828  17.270  0.00  0.00    +0.000 A 
ATOM      3  C   UNL     1       4.076   7.444  17.340  0.00  0.00    +0.000 A 
ATOM      4  C   UNL     1       3.117   7.003  18.260  0.00  0.00    +0.000 A 
ATOM      5  F   UNL     1       1.904   7.565  18.231  0.00  0.00    +0.000 F 
ATOM      6  C   UNL     1       3.445   6.009  19.162  0.00  0.00    +0.000 A 
ATOM      7  C   UNL     1       4.755   5.505  19.192  0.00  0.00    +0.000 A 
ENDROOT
BRANCH   1   9
ATOM      8  O   UNL     1       7.881   5.227  18.715  0.00  0.00    +0.000 OA
ATOM      9  C   UNL     1       6.918   5.034  17.976  0.00  0.00    +0.000 C 
ATOM     10  N   UNL     1       7.010   4.156  16.913  0.00  0.00    +0.000 N 
ATOM     11  H   UNL     1       7.879   3.635  16.875  0.00  0.00    +0.000 HD
BRANCH  10  12
ATOM     12  C   UNL     1       5.964   3.790  15.977  0.00  0.00    +0.000 C 
BRANCH  12  13
ATOM     13  C   UNL     1       6.272   4.017  14.531  0.00  0.00    +0.000 A 
ATOM     14  C   UNL     1       7.188   5.010  14.163  0.00  0.00    +0.000 A 
ATOM     15  C   UNL     1       7.656   5.083  12.854  0.00  0.00    +0.000 A 
ATOM     16  C   UNL     1       7.221   4.155  11.907  0.00  0.00    +0.000 A 
ATOM     17  C   UNL     1       6.305   3.152  12.256  0.00  0.00    +0.000 A 
ATOM     18  C   UNL     1       5.822   3.103  13.571  0.00  0.00    +0.000 A 
BRANCH  17  19
ATOM     19  C   UNL     1       5.882   2.092  11.271  0.00  0.00    +0.000 C 
ATOM     20  F   UNL     1       6.793   1.867  10.285  0.00  0.00    +0.000 F 
ATOM     21  F   UNL     1       5.675   0.884  11.869  0.00  0.00    +0.000 F 
ATOM     22  F   UNL     1       4.714   2.400  10.642  0.00  0.00    +0.000 F 
ENDBRANCH  17  19
ENDBRANCH  12  13
ENDBRANCH  10  12
ENDBRANCH   1   9
BRANCH   6  23
ATOM     23  S   UNL     1       2.283   5.083  20.116  0.00  0.00    +0.000 S 
ATOM     24  O   UNL     1       3.085   4.090  20.807  0.00  0.00    +0.000 OA
ATOM     25  O   UNL     1       1.532   6.060  20.878  0.00  0.00    +0.000 OA
BRANCH  23  26
ATOM     26  N   UNL     1       1.203   4.259  19.106  0.00  0.00    +0.000 NA
ATOM     27  C   UNL     1       0.832   2.863  19.506  0.00  0.00    +0.000 C 
ATOM     28  C   UNL     1       1.928   1.851  19.129  0.00  0.00    +0.000 C 
ATOM     29  O   UNL     1       2.260   1.915  17.734  0.00  0.00    +0.000 OA
ATOM     30  C   UNL     1       2.683   3.234  17.359  0.00  0.00    +0.000 C 
ATOM     31  C   UNL     1       1.581   4.260  17.648  0.00  0.00    +0.000 C 
ENDBRANCH  23  26
ENDBRANCH   6  23
TORSDOF 6
ENDMDL
MODEL 3
REMARK VINA RESULT:      -8.5      5.137      7.150
REMARK  Name = 
REMARK  6 active torsions:
REMARK  status: ('A' for Active; 'I' for Inactive)
REMARK    1  A    between atoms: C_2  and  C_15
REMARK    2  A    between atoms: N_3  and  C_4
REMARK    3  A    between atoms: C_4  and  C_5
REMARK    4  A    between atoms: C_9  and  C_10
REMARK    5  A    between atoms: C_20  and  S_21
REMARK    6  A    between atoms: S_21  and  N_24
REMARK                            x       y       z     vdW  Elec       q    Type
REMARK                         _______ _______ _______ _____ _____    ______ ____
ROOT
ATOM      1  C   UNL     1       7.036   5.985  17.854  0.00  0.00    +0.000 A 
ATOM      2  C   UNL     1       7.472   5.645  16.572  0.00  0.00    +0.000 A 
ATOM      3  C   UNL     1       6.540   5.244  15.603  0.00  0.00    +0.000 A 
ATOM      4  C   UNL     1       5.186   5.104  15.933  0.00  0.00    +0.000 A 
ATOM      5  F   UNL     1       4.349   4.637  15.000  0.00  0.00    +0.000 F 
ATOM      6  C   UNL     1       4.755   5.446  17.201  0.00  0.00    +0.000 A 
ATOM      7  C   UNL     1       5.665   5.996  18.118  0.00  0.00    +0.000 A 
ENDROOT
BRANCH   1   9
ATOM      8  O   UNL     1       8.326   5.311  19.709  0.00  0.00    +0.000 OA
ATOM      9  C   UNL     1       8.046   6.219  18.931  0.00  0.00    +0.000 C 
ATOM     10  N   UNL     1       8.597   7.477  19.086  0.00  0.00    +0.000 N 
ATOM     11  H   UNL     1       9.302   7.537  19.811  0.00  0.00    +0.000 HD
BRANCH  10  12
ATOM     12  C   UNL     1       8.401   8.638  18.240  0.00  0.00    +0.000 C 
BRANCH  12  13
ATOM     13  C   UNL     1       8.931   9.932  18.771  0.00  0.00    +0.000 A 
ATOM     14  C   UNL     1       8.961  10.156  20.152  0.00  0.00    +0.000 A 
ATOM     15  C   UNL     1       9.653  11.246  20.672  0.00  0.00    +0.000 A 
ATOM     16  C   UNL     1      10.332  12.112  19.813  0.00  0.00    +0.000 A 
ATOM     17  C   UNL     1      10.315  11.905  18.427  0.00  0.00    +0.000 A 
ATOM     18  C   UNL     1       9.594  10.817  17.913  0.00  0.00    +0.000 A 
BRANCH  17  19
ATOM     19  C   UNL     1      11.104  12.781  17.488  0.00  0.00    +0.000 C 
ATOM     20  F   UNL     1      12.300  12.247  17.116  0.00  0.00    +0.000 F 
ATOM     21  F   UNL     1      10.432  13.031  16.328  0.00  0.00    +0.000 F 
ATOM     22  F   UNL     1      11.386  14.000  18.023  0.00  0.00    +0.000 F 
ENDBRANCH  17  19
ENDBRANCH  12  13
ENDBRANCH  10  12
ENDBRANCH   1   9
BRANCH   6  23
ATOM     23  S   UNL     1       3.199   4.990  17.900  0.00  0.00    +0.000 S 
ATOM     24  O   UNL     1       2.417   6.212  17.882  0.00  0.00    +0.000 OA
ATOM     25  O   UNL     1       2.752   3.837  17.146  0.00  0.00    +0.000 OA
BRANCH  23  26
ATOM     26  N   UNL     1       3.384   4.523  19.517  0.00  0.00    +0.000 NA
ATOM     27  C   UNL     1       3.650   3.072  19.777  0.00  0.00    +0.000 C 
ATOM     28  C   UNL     1       2.362   2.233  19.703  0.00  0.00    +0.000 C 
ATOM     29  O   UNL     1       1.344   2.736  20.581  0.00  0.00    +0.000 OA
ATOM     30  C   UNL     1       1.035   4.107  20.292  0.00  0.00    +0.000 C 
ATOM     31  C   UNL     1       2.283   4.986  20.435  0.00  0.00    +0.000 C 
ENDBRANCH  23  26
ENDBRANCH   6  23
TORSDOF 6
ENDMDL
MODEL 4
REMARK VINA RESULT:      -8.4      1.206      2.153
REMARK  Name = 
REMARK  6 active torsions:
REMARK  status: ('A' for Active; 'I' for Inactive)
REMARK    1  A    between atoms: C_2  and  C_15
REMARK    2  A    between atoms: N_3  and  C_4
REMARK    3  A    between atoms: C_4  and  C_5
REMARK    4  A    between atoms: C_9  and  C_10
REMARK    5  A    between atoms: C_20  and  S_21
REMARK    6  A    between atoms: S_21  and  N_24
REMARK                            x       y       z     vdW  Elec       q    Type
REMARK                         _______ _______ _______ _____ _____    ______ ____
ROOT
ATOM      1  C   UNL     1       5.624   5.802  18.018  0.00  0.00    +0.000 A 
ATOM      2  C   UNL     1       5.077   7.041  17.679  0.00  0.00    +0.000 A 
ATOM      3  C   UNL     1       3.683   7.195  17.622  0.00  0.00    +0.000 A 
ATOM      4  C   UNL     1       2.837   6.097  17.824  0.00  0.00    +0.000 A 
ATOM      5  F   UNL     1       1.520   6.275  17.676  0.00  0.00    +0.000 F 
ATOM      6  C   UNL     1       3.380   4.873  18.165  0.00  0.00    +0.000 A 
ATOM      7  C   UNL     1       4.763   4.761  18.375  0.00  0.00    +0.000 A 
ENDROOT
BRANCH   1   9
ATOM      8  O   UNL     1       7.870   6.254  18.575  0.00  0.00    +0.000 OA
ATOM      9  C   UNL     1       7.097   5.593  17.884  0.00  0.00    +0.000 C 
ATOM     10  N   UNL     1       7.578   4.714  16.932  0.00  0.00    +0.000 N 
ATOM     11  H   UNL     1       8.585   4.601  16.938  0.00  0.00    +0.000 HD
BRANCH  10  12
ATOM     12  C   UNL     1       6.808   3.840  16.069  0.00  0.00    +0.000 C 
BRANCH  12  13
ATOM     13  C   UNL     1       6.719   4.251  14.633  0.00  0.00    +0.000 A 
ATOM     14  C   UNL     1       7.765   4.978  14.053  0.00  0.00    +0.000 A 
ATOM     15  C   UNL     1       7.806   5.170  12.674  0.00  0.00    +0.000 A 
ATOM     16  C   UNL     1       6.807   4.624  11.866  0.00  0.00    +0.000 A 
ATOM     17  C   UNL     1       5.753   3.891  12.428  0.00  0.00    +0.000 A 
ATOM     18  C   UNL     1       5.708   3.725  13.820  0.00  0.00    +0.000 A 
BRANCH  17  19
ATOM     19  C   UNL     1       4.707   3.227  11.569  0.00  0.00    +0.000 C 
ATOM     20  F   UNL     1       4.375   3.943  10.460  0.00  0.00    +0.000 F 
ATOM     21  F   UNL     1       5.110   2.005  11.117  0.00  0.00    +0.000 F 
ATOM     22  F   UNL     1       3.542   3.009  12.239  0.00  0.00    +0.000 F 
ENDBRANCH  17  19
ENDBRANCH  12  13
ENDBRANCH  10  12
ENDBRANCH   1   9
BRANCH   6  23
ATOM     23  S   UNL     1       2.526   3.329  18.087  0.00  0.00    +0.000 S 
ATOM     24  O   UNL     1       1.818   3.366  16.821  0.00  0.00    +0.000 OA
ATOM     25  O   UNL     1       3.529   2.312  18.324  0.00  0.00    +0.000 OA
BRANCH  23  26
ATOM     26  N   UNL     1       1.368   3.225  19.318  0.00  0.00    +0.000 NA
ATOM     27  C   UNL     1       1.077   4.480  20.083  0.00  0.00    +0.000 C 
ATOM     28  C   UNL     1       2.153   4.763  21.146  0.00  0.00    +0.000 C 
ATOM     29  O   UNL     1       2.336   3.649  22.033  0.00  0.00    +0.000 OA
ATOM     30  C   UNL     1       2.682   2.458  21.312  0.00  0.00    +0.000 C 
ATOM     31  C   UNL     1       1.590   2.102  20.297  0.00  0.00    +0.000 C 
ENDBRANCH  23  26
ENDBRANCH   6  23
TORSDOF 6
ENDMDL
MODEL 5
REMARK VINA RESULT:      -8.2      4.691      7.439
REMARK  Name = 
REMARK  6 active torsions:
REMARK  status: ('A' for Active; 'I' for Inactive)
REMARK    1  A    between atoms: C_2  and  C_15
REMARK    2  A    between atoms: N_3  and  C_4
REMARK    3  A    between atoms: C_4  and  C_5
REMARK    4  A    between atoms: C_9  and  C_10
REMARK    5  A    between atoms: C_20  and  S_21
REMARK    6  A    between atoms: S_21  and  N_24
REMARK                            x       y       z     vdW  Elec       q    Type
REMARK                         _______ _______ _______ _____ _____    ______ ____
ROOT
ATOM      1  C   UNL     1       6.988   5.816  17.975  0.00  0.00    +0.000 A 
ATOM      2  C   UNL     1       7.404   5.728  16.646  0.00  0.00    +0.000 A 
ATOM      3  C   UNL     1       6.513   5.262  15.667  0.00  0.00    +0.000 A 
ATOM      4  C   UNL     1       5.236   4.810  16.024  0.00  0.00    +0.000 A 
ATOM      5  F   UNL     1       4.454   4.296  15.068  0.00  0.00    +0.000 F 
ATOM      6  C   UNL     1       4.824   4.904  17.339  0.00  0.00    +0.000 A 
ATOM      7  C   UNL     1       5.660   5.515  18.286  0.00  0.00    +0.000 A 
ENDROOT
BRANCH   1   9
ATOM      8  O   UNL     1       8.287   5.262  19.863  0.00  0.00    +0.000 OA
ATOM      9  C   UNL     1       7.994   6.122  19.037  0.00  0.00    +0.000 C 
ATOM     10  N   UNL     1       8.527   7.395  19.124  0.00  0.00    +0.000 N 
ATOM     11  H   UNL     1       9.232   7.504  19.844  0.00  0.00    +0.000 HD
BRANCH  10  12
ATOM     12  C   UNL     1       8.315   8.505  18.215  0.00  0.00    +0.000 C 
BRANCH  12  13
ATOM     13  C   UNL     1       8.963   9.797  18.600  0.00  0.00    +0.000 A 
ATOM     14  C   UNL     1       9.503  10.626  17.609  0.00  0.00    +0.000 A 
ATOM     15  C   UNL     1       9.900  11.923  17.919  0.00  0.00    +0.000 A 
ATOM     16  C   UNL     1       9.747  12.406  19.219  0.00  0.00    +0.000 A 
ATOM     17  C   UNL     1       9.207  11.593  20.225  0.00  0.00    +0.000 A 
ATOM     18  C   UNL     1       8.833  10.279  19.908  0.00  0.00    +0.000 A 
BRANCH  17  19
ATOM     19  C   UNL     1       8.960  12.117  21.617  0.00  0.00    +0.000 C 
ATOM     20  F   UNL     1       7.958  13.036  21.685  0.00  0.00    +0.000 F 
ATOM     21  F   UNL     1       8.617  11.126  22.489  0.00  0.00    +0.000 F 
ATOM     22  F   UNL     1      10.059  12.718  22.152  0.00  0.00    +0.000 F 
ENDBRANCH  17  19
ENDBRANCH  12  13
ENDBRANCH  10  12
ENDBRANCH   1   9
BRANCH   6  23
ATOM     23  S   UNL     1       3.434   4.059  18.027  0.00  0.00    +0.000 S 
ATOM     24  O   UNL     1       2.291   4.871  17.655  0.00  0.00    +0.000 OA
ATOM     25  O   UNL     1       3.532   2.692  17.557  0.00  0.00    +0.000 OA
BRANCH  23  26
ATOM     26  N   UNL     1       3.523   4.042  19.718  0.00  0.00    +0.000 NA
ATOM     27  C   UNL     1       3.373   2.712  20.391  0.00  0.00    +0.000 C 
ATOM     28  C   UNL     1       1.898   2.283  20.485  0.00  0.00    +0.000 C 
ATOM     29  O   UNL     1       1.089   3.280  21.126  0.00  0.00    +0.000 OA
ATOM     30  C   UNL     1       1.175   4.540  20.445  0.00  0.00    +0.000 C 
ATOM     31  C   UNL     1       2.624   5.037  20.405  0.00  0.00    +0.000 C 
ENDBRANCH  23  26
ENDBRANCH   6  23
TORSDOF 6
ENDMDL
MODEL 6
REMARK VINA RESULT:      -8.1      4.879      7.418
REMARK  Name = 
REMARK  6 active torsions:
REMARK  status: ('A' for Active; 'I' for Inactive)
REMARK    1  A    between atoms: C_2  and  C_15
REMARK    2  A    between atoms: N_3  and  C_4
REMARK    3  A    between atoms: C_4  and  C_5
REMARK    4  A    between atoms: C_9  and  C_10
REMARK    5  A    between atoms: C_20  and  S_21
REMARK    6  A    between atoms: S_21  and  N_24
REMARK                            x       y       z     vdW  Elec       q    Type
REMARK                         _______ _______ _______ _____ _____    ______ ____
ROOT
ATOM      1  C   UNL     1       6.899   6.048  17.805  0.00  0.00    +0.000 A 
ATOM      2  C   UNL     1       7.357   5.834  16.504  0.00  0.00    +0.000 A 
ATOM      3  C   UNL     1       6.530   5.193  15.571  0.00  0.00    +0.000 A 
ATOM      4  C   UNL     1       5.277   4.696  15.953  0.00  0.00    +0.000 A 
ATOM      5  F   UNL     1       4.561   4.018  15.050  0.00  0.00    +0.000 F 
ATOM      6  C   UNL     1       4.822   4.914  17.239  0.00  0.00    +0.000 A 
ATOM      7  C   UNL     1       5.586   5.692  18.123  0.00  0.00    +0.000 A 
ENDROOT
BRANCH   1   9
ATOM      8  O   UNL     1       8.162   5.823  19.783  0.00  0.00    +0.000 OA
ATOM      9  C   UNL     1       7.850   6.549  18.842  0.00  0.00    +0.000 C 
ATOM     10  N   UNL     1       8.310   7.851  18.773  0.00  0.00    +0.000 N 
ATOM     11  H   UNL     1       8.983   8.095  19.491  0.00  0.00    +0.000 HD
BRANCH  10  12
ATOM     12  C   UNL     1       8.068   8.819  17.720  0.00  0.00    +0.000 C 
BRANCH  12  13
ATOM     13  C   UNL     1       8.552  10.209  17.986  0.00  0.00    +0.000 A 
ATOM     14  C   UNL     1       8.041  11.277  17.239  0.00  0.00    +0.000 A 
ATOM     15  C   UNL     1       8.304  12.590  17.620  0.00  0.00    +0.000 A 
ATOM     16  C   UNL     1       9.069  12.843  18.760  0.00  0.00    +0.000 A 
ATOM     17  C   UNL     1       9.588  11.787  19.522  0.00  0.00    +0.000 A 
ATOM     18  C   UNL     1       9.338  10.469  19.115  0.00  0.00    +0.000 A 
BRANCH  17  19
ATOM     19  C   UNL     1      10.351  12.036  20.799  0.00  0.00    +0.000 C 
ATOM     20  F   UNL     1       9.756  11.506  21.903  0.00  0.00    +0.000 F 
ATOM     21  F   UNL     1      11.607  11.506  20.762  0.00  0.00    +0.000 F 
ATOM     22  F   UNL     1      10.515  13.362  21.060  0.00  0.00    +0.000 F 
ENDBRANCH  17  19
ENDBRANCH  12  13
ENDBRANCH  10  12
ENDBRANCH   1   9
BRANCH   6  23
ATOM     23  S   UNL     1       3.475   4.059  17.995  0.00  0.00    +0.000 S 
ATOM     24  O   UNL     1       2.301   4.831  17.634  0.00  0.00    +0.000 OA
ATOM     25  O   UNL     1       3.592   2.681  17.565  0.00  0.00    +0.000 OA
BRANCH  23  26
ATOM     26  N   UNL     1       3.615   4.098  19.683  0.00  0.00    +0.000 NA
ATOM     27  C   UNL     1       3.444   2.798  20.407  0.00  0.00    +0.000 C 
ATOM     28  C   UNL     1       1.961   2.419  20.558  0.00  0.00    +0.000 C 
ATOM     29  O   UNL     1       1.202   3.462  21.187  0.00  0.00    +0.000 OA
ATOM     30  C   UNL     1       1.306   4.694  20.460  0.00  0.00    +0.000 C 
ATOM     31  C   UNL     1       2.767   5.144  20.359  0.00  0.00    +0.000 C 
ENDBRANCH  23  26
ENDBRANCH   6  23
TORSDOF 6
ENDMDL
MODEL 7
REMARK VINA RESULT:      -8.1      4.772      7.383
REMARK  Name = 
REMARK  6 active torsions:
REMARK  status: ('A' for Active; 'I' for Inactive)
REMARK    1  A    between atoms: C_2  and  C_15
REMARK    2  A    between atoms: N_3  and  C_4
REMARK    3  A    between atoms: C_4  and  C_5
REMARK    4  A    between atoms: C_9  and  C_10
REMARK    5  A    between atoms: C_20  and  S_21
REMARK    6  A    between atoms: S_21  and  N_24
REMARK                            x       y       z     vdW  Elec       q    Type
REMARK                         _______ _______ _______ _____ _____    ______ ____
ROOT
ATOM      1  C   UNL     1       6.938   5.833  18.017  0.00  0.00    +0.000 A 
ATOM      2  C   UNL     1       7.146   5.863  16.637  0.00  0.00    +0.000 A 
ATOM      3  C   UNL     1       6.233   5.229  15.782  0.00  0.00    +0.000 A 
ATOM      4  C   UNL     1       5.157   4.500  16.303  0.00  0.00    +0.000 A 
ATOM      5  F   UNL     1       4.363   3.843  15.451  0.00  0.00    +0.000 F 
ATOM      6  C   UNL     1       4.949   4.476  17.669  0.00  0.00    +0.000 A 
ATOM      7  C   UNL     1       5.773   5.240  18.510  0.00  0.00    +0.000 A 
ENDROOT
BRANCH   1   9
ATOM      8  O   UNL     1       8.461   5.597  19.801  0.00  0.00    +0.000 OA
ATOM      9  C   UNL     1       8.010   6.336  18.929  0.00  0.00    +0.000 C 
ATOM     10  N   UNL     1       8.428   7.649  18.830  0.00  0.00    +0.000 N 
ATOM     11  H   UNL     1       9.187   7.894  19.456  0.00  0.00    +0.000 HD
BRANCH  10  12
ATOM     12  C   UNL     1       8.026   8.632  17.843  0.00  0.00    +0.000 C 
BRANCH  12  13
ATOM     13  C   UNL     1       8.537  10.022  18.058  0.00  0.00    +0.000 A 
ATOM     14  C   UNL     1       8.065  11.067  17.255  0.00  0.00    +0.000 A 
ATOM     15  C   UNL     1       8.351  12.389  17.584  0.00  0.00    +0.000 A 
ATOM     16  C   UNL     1       9.100  12.675  18.727  0.00  0.00    +0.000 A 
ATOM     17  C   UNL     1       9.581  11.642  19.544  0.00  0.00    +0.000 A 
ATOM     18  C   UNL     1       9.307  10.313  19.190  0.00  0.00    +0.000 A 
BRANCH  17  19
ATOM     19  C   UNL     1      10.324  11.930  20.824  0.00  0.00    +0.000 C 
ATOM     20  F   UNL     1       9.847  11.244  21.899  0.00  0.00    +0.000 F 
ATOM     21  F   UNL     1      11.647  11.609  20.735  0.00  0.00    +0.000 F 
ATOM     22  F   UNL     1      10.283  13.246  21.168  0.00  0.00    +0.000 F 
ENDBRANCH  17  19
ENDBRANCH  12  13
ENDBRANCH  10  12
ENDBRANCH   1   9
BRANCH   6  23
ATOM     23  S   UNL     1       3.902   3.332  18.514  0.00  0.00    +0.000 S 
ATOM     24  O   UNL     1       3.930   2.135  17.694  0.00  0.00    +0.000 OA
ATOM     25  O   UNL     1       4.391   3.284  19.877  0.00  0.00    +0.000 OA
BRANCH  23  26
ATOM     26  N   UNL     1       2.305   3.895  18.545  0.00  0.00    +0.000 NA
ATOM     27  C   UNL     1       2.097   5.357  18.292  0.00  0.00    +0.000 C 
ATOM     28  C   UNL     1       2.399   6.201  19.543  0.00  0.00    +0.000 C 
ATOM     29  O   UNL     1       1.642   5.763  20.681  0.00  0.00    +0.000 OA
ATOM     30  C   UNL     1       1.890   4.379  20.971  0.00  0.00    +0.000 C 
ATOM     31  C   UNL     1       1.524   3.500  19.771  0.00  0.00    +0.000 C 
ENDBRANCH  23  26
ENDBRANCH   6  23
TORSDOF 6
ENDMDL
MODEL 8
REMARK VINA RESULT:      -8.0      0.927      1.481
REMARK  Name = 
REMARK  6 active torsions:
REMARK  status: ('A' for Active; 'I' for Inactive)
REMARK    1  A    between atoms: C_2  and  C_15
REMARK    2  A    between atoms: N_3  and  C_4
REMARK    3  A    between atoms: C_4  and  C_5
REMARK    4  A    between atoms: C_9  and  C_10
REMARK    5  A    between atoms: C_20  and  S_21
REMARK    6  A    between atoms: S_21  and  N_24
REMARK                            x       y       z     vdW  Elec       q    Type
REMARK                         _______ _______ _______ _____ _____    ______ ____
ROOT
ATOM      1  C   UNL     1       5.791   6.047  18.148  0.00  0.00    +0.000 A 
ATOM      2  C   UNL     1       5.515   7.054  17.221  0.00  0.00    +0.000 A 
ATOM      3  C   UNL     1       4.222   7.591  17.141  0.00  0.00    +0.000 A 
ATOM      4  C   UNL     1       3.186   7.072  17.927  0.00  0.00    +0.000 A 
ATOM      5  F   UNL     1       1.952   7.559  17.755  0.00  0.00    +0.000 F 
ATOM      6  C   UNL     1       3.462   6.080  18.848  0.00  0.00    +0.000 A 
ATOM      7  C   UNL     1       4.787   5.656  19.035  0.00  0.00    +0.000 A 
ENDROOT
BRANCH   1   9
ATOM      8  O   UNL     1       8.032   5.729  18.810  0.00  0.00    +0.000 OA
ATOM      9  C   UNL     1       7.110   5.346  18.093  0.00  0.00    +0.000 C 
ATOM     10  N   UNL     1       7.301   4.324  17.183  0.00  0.00    +0.000 N 
ATOM     11  H   UNL     1       8.208   3.876  17.242  0.00  0.00    +0.000 HD
BRANCH  10  12
ATOM     12  C   UNL     1       6.316   3.734  16.298  0.00  0.00    +0.000 C 
BRANCH  12  13
ATOM     13  C   UNL     1       6.396   4.145  14.862  0.00  0.00    +0.000 A 
ATOM     14  C   UNL     1       7.513   4.854  14.404  0.00  0.00    +0.000 A 
ATOM     15  C   UNL     1       7.712   5.044  13.039  0.00  0.00    +0.000 A 
ATOM     16  C   UNL     1       6.802   4.516  12.123  0.00  0.00    +0.000 A 
ATOM     17  C   UNL     1       5.678   3.802  12.562  0.00  0.00    +0.000 A 
ATOM     18  C   UNL     1       5.474   3.637  13.939  0.00  0.00    +0.000 A 
BRANCH  17  19
ATOM     19  C   UNL     1       4.724   3.156  11.589  0.00  0.00    +0.000 C 
ATOM     20  F   UNL     1       5.117   1.919  11.178  0.00  0.00    +0.000 F 
ATOM     21  F   UNL     1       3.478   2.994  12.119  0.00  0.00    +0.000 F 
ATOM     22  F   UNL     1       4.553   3.892  10.457  0.00  0.00    +0.000 F 
ENDBRANCH  17  19
ENDBRANCH  12  13
ENDBRANCH  10  12
ENDBRANCH   1   9
BRANCH   6  23
ATOM     23  S   UNL     1       2.251   5.064  19.636  0.00  0.00    +0.000 S 
ATOM     24  O   UNL     1       1.789   5.852  20.764  0.00  0.00    +0.000 OA
ATOM     25  O   UNL     1       1.320   4.681  18.594  0.00  0.00    +0.000 OA
BRANCH  23  26
ATOM     26  N   UNL     1       2.962   3.656  20.252  0.00  0.00    +0.000 NA
ATOM     27  C   UNL     1       4.073   3.051  19.448  0.00  0.00    +0.000 C 
ATOM     28  C   UNL     1       3.538   2.236  18.257  0.00  0.00    +0.000 C 
ATOM     29  O   UNL     1       2.597   1.235  18.672  0.00  0.00    +0.000 OA
ATOM     30  C   UNL     1       1.495   1.816  19.383  0.00  0.00    +0.000 C 
ATOM     31  C   UNL     1       1.987   2.570  20.624  0.00  0.00    +0.000 C 
ENDBRANCH  23  26
ENDBRANCH   6  23
TORSDOF 6
ENDMDL
MODEL 9
REMARK VINA RESULT:      -8.0      4.588      7.237
REMARK  Name = 
REMARK  6 active torsions:
REMARK  status: ('A' for Active; 'I' for Inactive)
REMARK    1  A    between atoms: C_2  and  C_15
REMARK    2  A    between atoms: N_3  and  C_4
REMARK    3  A    between atoms: C_4  and  C_5
REMARK    4  A    between atoms: C_9  and  C_10
REMARK    5  A    between atoms: C_20  and  S_21
REMARK    6  A    between atoms: S_21  and  N_24
REMARK                            x       y       z     vdW  Elec       q    Type
REMARK                         _______ _______ _______ _____ _____    ______ ____
ROOT
ATOM      1  C   UNL     1       6.937   5.543  18.219  0.00  0.00    +0.000 A 
ATOM      2  C   UNL     1       7.252   4.894  17.024  0.00  0.00    +0.000 A 
ATOM      3  C   UNL     1       6.225   4.373  16.223  0.00  0.00    +0.000 A 
ATOM      4  C   UNL     1       4.892   4.428  16.650  0.00  0.00    +0.000 A 
ATOM      5  F   UNL     1       3.958   3.843  15.892  0.00  0.00    +0.000 F 
ATOM      6  C   UNL     1       4.581   5.077  17.830  0.00  0.00    +0.000 A 
ATOM      7  C   UNL     1       5.592   5.733  18.548  0.00  0.00    +0.000 A 
ENDROOT
BRANCH   1   9
ATOM      8  O   UNL     1       8.429   5.105  19.991  0.00  0.00    +0.000 OA
ATOM      9  C   UNL     1       8.036   5.919  19.159  0.00  0.00    +0.000 C 
ATOM     10  N   UNL     1       8.547   7.203  19.132  0.00  0.00    +0.000 N 
ATOM     11  H   UNL     1       9.317   7.360  19.772  0.00  0.00    +0.000 HD
BRANCH  10  12
ATOM     12  C   UNL     1       8.221   8.264  18.198  0.00  0.00    +0.000 C 
BRANCH  12  13
ATOM     13  C   UNL     1       8.803   9.607  18.505  0.00  0.00    +0.000 A 
ATOM     14  C   UNL     1       9.109  10.487  17.460  0.00  0.00    +0.000 A 
ATOM     15  C   UNL     1       9.434  11.813  17.731  0.00  0.00    +0.000 A 
ATOM     16  C   UNL     1       9.441  12.272  19.048  0.00  0.00    +0.000 A 
ATOM     17  C   UNL     1       9.136  11.407  20.109  0.00  0.00    +0.000 A 
ATOM     18  C   UNL     1       8.834  10.067  19.827  0.00  0.00    +0.000 A 
BRANCH  17  19
ATOM     19  C   UNL     1       9.061  11.899  21.532  0.00  0.00    +0.000 C 
ATOM     20  F   UNL     1      10.243  12.380  22.007  0.00  0.00    +0.000 F 
ATOM     21  F   UNL     1       8.161  12.912  21.682  0.00  0.00    +0.000 F 
ATOM     22  F   UNL     1       8.673  10.926  22.402  0.00  0.00    +0.000 F 
ENDBRANCH  17  19
ENDBRANCH  12  13
ENDBRANCH  10  12
ENDBRANCH   1   9
BRANCH   6  23
ATOM     23  S   UNL     1       3.050   4.923  18.697  0.00  0.00    +0.000 S 
ATOM     24  O   UNL     1       3.308   5.505  20.001  0.00  0.00    +0.000 OA
ATOM     25  O   UNL     1       2.047   5.509  17.832  0.00  0.00    +0.000 OA
BRANCH  23  26
ATOM     26  N   UNL     1       2.658   3.292  18.932  0.00  0.00    +0.000 NA
ATOM     27  C   UNL     1       1.612   2.989  19.960  0.00  0.00    +0.000 C 
ATOM     28  C   UNL     1       2.185   3.036  21.388  0.00  0.00    +0.000 C 
ATOM     29  O   UNL     1       3.322   2.173  21.539  0.00  0.00    +0.000 OA
ATOM     30  C   UNL     1       4.356   2.504  20.600  0.00  0.00    +0.000 C 
ATOM     31  C   UNL     1       3.841   2.389  19.162  0.00  0.00    +0.000 C 
ENDBRANCH  23  26
ENDBRANCH   6  23
TORSDOF 6
ENDMDL
