MODEL 1
REMARK VINA RESULT:      -9.1      0.000      0.000
REMARK  Name = 
REMARK  7 active torsions:
REMARK  status: ('A' for Active; 'I' for Inactive)
REMARK    1  A    between atoms: C_1  and  C_2
REMARK    2  A    between atoms: C_4  and  C_5
REMARK    3  A    between atoms: C_9  and  N_10
REMARK    4  A    between atoms: C_11  and  C_13
REMARK    5  A    between atoms: C_15  and  S_16
REMARK    6  A    between atoms: S_16  and  C_17
REMARK    7  A    between atoms: C_22  and  C_23
REMARK                            x       y       z     vdW  Elec       q    Type
REMARK                         _______ _______ _______ _____ _____    ______ ____
ROOT
ATOM      1  N   UNL     1       2.287   7.399  19.782  0.00  0.00    +0.000 N 
ATOM      2  C   UNL     1       2.524   7.253  18.421  0.00  0.00    +0.000 C 
ATOM      3  O   UNL     1       2.022   7.946  17.542  0.00  0.00    +0.000 OA
ATOM      4  H   UNL     1       2.776   6.801  20.429  0.00  0.00    +0.000 HD
ENDROOT
BRANCH   2   5
ATOM      5  C   UNL     1       3.411   6.136  17.969  0.00  0.00    +0.000 A 
ATOM      6  C   UNL     1       4.795   6.337  17.865  0.00  0.00    +0.000 A 
ATOM      7  C   UNL     1       5.640   5.243  17.638  0.00  0.00    +0.000 A 
ATOM      8  C   UNL     1       5.130   3.952  17.511  0.00  0.00    +0.000 A 
ATOM      9  C   UNL     1       3.755   3.752  17.581  0.00  0.00    +0.000 A 
ATOM     10  C   UNL     1       2.879   4.832  17.783  0.00  0.00    +0.000 A 
ATOM     11  C   UNL     1       1.396   4.546  17.766  0.00  0.00    +0.000 C 
BRANCH   7  12
ATOM     12  S   UNL     1       7.388   5.510  17.469  0.00  0.00    +0.000 S 
ATOM     13  C   UNL     1       7.907   5.923  19.114  0.00  0.00    +0.000 C 
ATOM     14  O   UNL     1       7.991   4.242  17.108  0.00  0.00    +0.000 OA
ATOM     15  O   UNL     1       7.558   6.681  16.630  0.00  0.00    +0.000 OA
ENDBRANCH   7  12
ENDBRANCH   2   5
BRANCH   1  20
ATOM     16  C   UNL     1      -0.227  10.137  20.026  0.00  0.00    +0.000 A 
ATOM     17  C   UNL     1      -0.321  10.305  21.413  0.00  0.00    +0.000 A 
ATOM     18  C   UNL     1       0.470   9.551  22.268  0.00  0.00    +0.000 A 
ATOM     19  C   UNL     1       1.352   8.610  21.740  0.00  0.00    +0.000 A 
ATOM     20  C   UNL     1       1.455   8.396  20.362  0.00  0.00    +0.000 A 
ATOM     21  C   UNL     1       0.676   9.189  19.505  0.00  0.00    +0.000 A 
BRANCH  16  25
ATOM     22  C   UNL     1      -3.614  11.243  16.631  0.00  0.00    +0.000 C 
ATOM     23  C   UNL     1      -2.569  11.307  17.674  0.00  0.00    +0.000 A 
ATOM     24  N   UNL     1      -2.036  10.311  18.338  0.00  0.00    +0.000 NA
ATOM     25  C   UNL     1      -1.103  10.914  19.159  0.00  0.00    +0.000 A 
ATOM     26  N   UNL     1      -1.064  12.252  19.032  0.00  0.00    +0.000 NA
ATOM     27  N   UNL     1      -1.987  12.469  18.085  0.00  0.00    +0.000 N 
ATOM     28  H   UNL     1      -2.156  13.416  17.765  0.00  0.00    +0.000 HD
ENDBRANCH  16  25
ENDBRANCH   1  20
TORSDOF 4
ENDMDL
MODEL 2
REMARK VINA RESULT:      -9.1      1.371      1.720
REMARK  Name = 
REMARK  7 active torsions:
REMARK  status: ('A' for Active; 'I' for Inactive)
REMARK    1  A    between atoms: C_1  and  C_2
REMARK    2  A    between atoms: C_4  and  C_5
REMARK    3  A    between atoms: C_9  and  N_10
REMARK    4  A    between atoms: C_11  and  C_13
REMARK    5  A    between atoms: C_15  and  S_16
REMARK    6  A    between atoms: S_16  and  C_17
REMARK    7  A    between atoms: C_22  and  C_23
REMARK                            x       y       z     vdW  Elec       q    Type
REMARK                         _______ _______ _______ _____ _____    ______ ____
ROOT
ATOM      1  N   UNL     1       1.976   8.133  17.921  0.00  0.00    +0.000 N 
ATOM      2  C   UNL     1       2.463   7.057  18.653  0.00  0.00    +0.000 C 
ATOM      3  O   UNL     1       2.297   6.894  19.858  0.00  0.00    +0.000 OA
ATOM      4  H   UNL     1       2.137   8.157  16.926  0.00  0.00    +0.000 HD
ENDROOT
BRANCH   2   5
ATOM      5  C   UNL     1       3.304   6.039  17.950  0.00  0.00    +0.000 A 
ATOM      6  C   UNL     1       4.665   6.289  17.720  0.00  0.00    +0.000 A 
ATOM      7  C   UNL     1       5.489   5.261  17.247  0.00  0.00    +0.000 A 
ATOM      8  C   UNL     1       4.982   3.986  16.997  0.00  0.00    +0.000 A 
ATOM      9  C   UNL     1       3.626   3.741  17.193  0.00  0.00    +0.000 A 
ATOM     10  C   UNL     1       2.769   4.759  17.644  0.00  0.00    +0.000 A 
ATOM     11  C   UNL     1       1.296   4.438  17.754  0.00  0.00    +0.000 C 
BRANCH   7  12
ATOM     12  S   UNL     1       7.203   5.596  16.921  0.00  0.00    +0.000 S 
ATOM     13  C   UNL     1       7.526   7.065  17.858  0.00  0.00    +0.000 C 
ATOM     14  O   UNL     1       7.977   4.511  17.494  0.00  0.00    +0.000 OA
ATOM     15  O   UNL     1       7.309   5.922  15.511  0.00  0.00    +0.000 OA
ENDBRANCH   7  12
ENDBRANCH   2   5
BRANCH   1  20
ATOM     16  C   UNL     1      -0.823  10.567  18.248  0.00  0.00    +0.000 A 
ATOM     17  C   UNL     1      -0.526  11.170  19.478  0.00  0.00    +0.000 A 
ATOM     18  C   UNL     1       0.616  10.808  20.179  0.00  0.00    +0.000 A 
ATOM     19  C   UNL     1       1.461   9.828  19.662  0.00  0.00    +0.000 A 
ATOM     20  C   UNL     1       1.183   9.187  18.452  0.00  0.00    +0.000 A 
ATOM     21  C   UNL     1       0.045   9.584  17.733  0.00  0.00    +0.000 A 
BRANCH  16  25
ATOM     22  C   UNL     1      -5.488  11.934  17.480  0.00  0.00    +0.000 C 
ATOM     23  C   UNL     1      -4.079  11.521  17.313  0.00  0.00    +0.000 A 
ATOM     24  N   UNL     1      -3.178  11.347  18.248  0.00  0.00    +0.000 NA
ATOM     25  C   UNL     1      -2.053  10.939  17.559  0.00  0.00    +0.000 A 
ATOM     26  N   UNL     1      -2.232  10.876  16.228  0.00  0.00    +0.000 NA
ATOM     27  N   UNL     1      -3.517  11.237  16.104  0.00  0.00    +0.000 N 
ATOM     28  H   UNL     1      -3.940  11.255  15.183  0.00  0.00    +0.000 HD
ENDBRANCH  16  25
ENDBRANCH   1  20
TORSDOF 4
ENDMDL
MODEL 3
REMARK VINA RESULT:      -9.1      1.194      1.571
REMARK  Name = 
REMARK  7 active torsions:
REMARK  status: ('A' for Active; 'I' for Inactive)
REMARK    1  A    between atoms: C_1  and  C_2
REMARK    2  A    between atoms: C_4  and  C_5
REMARK    3  A    between atoms: C_9  and  N_10
REMARK    4  A    between atoms: C_11  and  C_13
REMARK    5  A    between atoms: C_15  and  S_16
REMARK    6  A    between atoms: S_16  and  C_17
REMARK    7  A    between atoms: C_22  and  C_23
REMARK                            x       y       z     vdW  Elec       q    Type
REMARK                         _______ _______ _______ _____ _____    ______ ____
ROOT
ATOM      1  N   UNL     1       2.233   7.400  19.725  0.00  0.00    +0.000 N 
ATOM      2  C   UNL     1       2.473   7.260  18.364  0.00  0.00    +0.000 C 
ATOM      3  O   UNL     1       1.964   7.949  17.486  0.00  0.00    +0.000 OA
ATOM      4  H   UNL     1       2.729   6.807  20.371  0.00  0.00    +0.000 HD
ENDROOT
BRANCH   2   5
ATOM      5  C   UNL     1       3.375   6.157  17.910  0.00  0.00    +0.000 A 
ATOM      6  C   UNL     1       4.756   6.380  17.795  0.00  0.00    +0.000 A 
ATOM      7  C   UNL     1       5.616   5.299  17.567  0.00  0.00    +0.000 A 
ATOM      8  C   UNL     1       5.128   3.999  17.449  0.00  0.00    +0.000 A 
ATOM      9  C   UNL     1       3.756   3.776  17.531  0.00  0.00    +0.000 A 
ATOM     10  C   UNL     1       2.864   4.843  17.735  0.00  0.00    +0.000 A 
ATOM     11  C   UNL     1       1.385   4.532  17.730  0.00  0.00    +0.000 C 
BRANCH   7  12
ATOM     12  S   UNL     1       7.358   5.595  17.383  0.00  0.00    +0.000 S 
ATOM     13  C   UNL     1       7.883   6.028  19.020  0.00  0.00    +0.000 C 
ATOM     14  O   UNL     1       7.980   4.334  17.026  0.00  0.00    +0.000 OA
ATOM     15  O   UNL     1       7.502   6.762  16.534  0.00  0.00    +0.000 OA
ENDBRANCH   7  12
ENDBRANCH   2   5
BRANCH   1  20
ATOM     16  C   UNL     1       0.229  10.522  20.057  0.00  0.00    +0.000 A 
ATOM     17  C   UNL     1      -0.376  10.333  21.307  0.00  0.00    +0.000 A 
ATOM     18  C   UNL     1      -0.093   9.202  22.060  0.00  0.00    +0.000 A 
ATOM     19  C   UNL     1       0.786   8.243  21.560  0.00  0.00    +0.000 A 
ATOM     20  C   UNL     1       1.387   8.385  20.306  0.00  0.00    +0.000 A 
ATOM     21  C   UNL     1       1.123   9.549  19.568  0.00  0.00    +0.000 A 
BRANCH  16  25
ATOM     22  C   UNL     1      -0.169  15.223  18.658  0.00  0.00    +0.000 C 
ATOM     23  C   UNL     1      -0.260  13.751  18.746  0.00  0.00    +0.000 A 
ATOM     24  N   UNL     1       0.306  12.963  19.627  0.00  0.00    +0.000 NA
ATOM     25  C   UNL     1      -0.124  11.699  19.274  0.00  0.00    +0.000 A 
ATOM     26  N   UNL     1      -0.919  11.687  18.190  0.00  0.00    +0.000 NA
ATOM     27  N   UNL     1      -0.996  12.991  17.887  0.00  0.00    +0.000 N 
ATOM     28  H   UNL     1      -1.567  13.285  17.103  0.00  0.00    +0.000 HD
ENDBRANCH  16  25
ENDBRANCH   1  20
TORSDOF 4
ENDMDL
MODEL 4
REMARK VINA RESULT:      -9.0      1.060      1.069
REMARK  Name = 
REMARK  7 active torsions:
REMARK  status: ('A' for Active; 'I' for Inactive)
REMARK    1  A    between atoms: C_1  and  C_2
REMARK    2  A    between atoms: C_4  and  C_5
REMARK    3  A    between atoms: C_9  and  N_10
REMARK    4  A    between atoms: C_11  and  C_13
REMARK    5  A    between atoms: C_15  and  S_16
REMARK    6  A    between atoms: S_16  and  C_17
REMARK    7  A    between atoms: C_22  and  C_23
REMARK                            x       y       z     vdW  Elec       q    Type
REMARK                         _______ _______ _______ _____ _____    ______ ____
ROOT
ATOM      1  N   UNL     1       2.204   7.692  19.032  0.00  0.00    +0.000 N 
ATOM      2  C   UNL     1       2.534   6.388  19.378  0.00  0.00    +0.000 C 
ATOM      3  O   UNL     1       2.235   5.844  20.436  0.00  0.00    +0.000 OA
ATOM      4  H   UNL     1       2.466   8.036  18.122  0.00  0.00    +0.000 HD
ENDROOT
BRANCH   2   5
ATOM      5  C   UNL     1       3.365   5.587  18.425  0.00  0.00    +0.000 A 
ATOM      6  C   UNL     1       4.746   5.818  18.333  0.00  0.00    +0.000 A 
ATOM      7  C   UNL     1       5.548   4.939  17.595  0.00  0.00    +0.000 A 
ATOM      8  C   UNL     1       5.001   3.833  16.947  0.00  0.00    +0.000 A 
ATOM      9  C   UNL     1       3.627   3.617  17.009  0.00  0.00    +0.000 A 
ATOM     10  C   UNL     1       2.792   4.495  17.721  0.00  0.00    +0.000 A 
ATOM     11  C   UNL     1       1.303   4.240  17.674  0.00  0.00    +0.000 C 
BRANCH   7  12
ATOM     12  S   UNL     1       7.289   5.260  17.450  0.00  0.00    +0.000 S 
ATOM     13  C   UNL     1       7.413   7.010  17.706  0.00  0.00    +0.000 C 
ATOM     14  O   UNL     1       7.951   4.591  18.553  0.00  0.00    +0.000 OA
ATOM     15  O   UNL     1       7.659   4.974  16.077  0.00  0.00    +0.000 OA
ENDBRANCH   7  12
ENDBRANCH   2   5
BRANCH   1  20
ATOM     16  C   UNL     1      -0.368  10.219  19.965  0.00  0.00    +0.000 A 
ATOM     17  C   UNL     1      -0.215  10.271  21.357  0.00  0.00    +0.000 A 
ATOM     18  C   UNL     1       0.760   9.510  21.985  0.00  0.00    +0.000 A 
ATOM     19  C   UNL     1       1.580   8.678  21.226  0.00  0.00    +0.000 A 
ATOM     20  C   UNL     1       1.439   8.580  19.839  0.00  0.00    +0.000 A 
ATOM     21  C   UNL     1       0.474   9.381  19.209  0.00  0.00    +0.000 A 
BRANCH  16  25
ATOM     22  C   UNL     1      -4.041  11.488  16.946  0.00  0.00    +0.000 C 
ATOM     23  C   UNL     1      -3.001  11.473  17.995  0.00  0.00    +0.000 A 
ATOM     24  N   UNL     1      -2.231  10.473  18.347  0.00  0.00    +0.000 NA
ATOM     25  C   UNL     1      -1.430  10.999  19.342  0.00  0.00    +0.000 A 
ATOM     26  N   UNL     1      -1.701  12.286  19.624  0.00  0.00    +0.000 NA
ATOM     27  N   UNL     1      -2.684  12.559  18.755  0.00  0.00    +0.000 N 
ATOM     28  H   UNL     1      -3.076  13.493  18.728  0.00  0.00    +0.000 HD
ENDBRANCH  16  25
ENDBRANCH   1  20
TORSDOF 4
ENDMDL
MODEL 5
REMARK VINA RESULT:      -8.9      1.038      1.351
REMARK  Name = 
REMARK  7 active torsions:
REMARK  status: ('A' for Active; 'I' for Inactive)
REMARK    1  A    between atoms: C_1  and  C_2
REMARK    2  A    between atoms: C_4  and  C_5
REMARK    3  A    between atoms: C_9  and  N_10
REMARK    4  A    between atoms: C_11  and  C_13
REMARK    5  A    between atoms: C_15  and  S_16
REMARK    6  A    between atoms: S_16  and  C_17
REMARK    7  A    between atoms: C_22  and  C_23
REMARK                            x       y       z     vdW  Elec       q    Type
REMARK                         _______ _______ _______ _____ _____    ______ ____
ROOT
ATOM      1  N   UNL     1       2.173   7.455  20.311  0.00  0.00    +0.000 N 
ATOM      2  C   UNL     1       2.491   7.055  19.019  0.00  0.00    +0.000 C 
ATOM      3  O   UNL     1       2.055   7.573  17.996  0.00  0.00    +0.000 OA
ATOM      4  H   UNL     1       2.613   6.986  21.088  0.00  0.00    +0.000 HD
ENDROOT
BRANCH   2   5
ATOM      5  C   UNL     1       3.385   5.870  18.839  0.00  0.00    +0.000 A 
ATOM      6  C   UNL     1       4.646   6.025  18.243  0.00  0.00    +0.000 A 
ATOM      7  C   UNL     1       5.556   4.961  18.259  0.00  0.00    +0.000 A 
ATOM      8  C   UNL     1       5.234   3.744  18.858  0.00  0.00    +0.000 A 
ATOM      9  C   UNL     1       3.974   3.574  19.423  0.00  0.00    +0.000 A 
ATOM     10  C   UNL     1       3.029   4.615  19.401  0.00  0.00    +0.000 A 
ATOM     11  C   UNL     1       1.656   4.327  19.962  0.00  0.00    +0.000 C 
BRANCH   7  12
ATOM     12  S   UNL     1       7.135   5.152  17.467  0.00  0.00    +0.000 S 
ATOM     13  C   UNL     1       6.886   4.438  15.863  0.00  0.00    +0.000 C 
ATOM     14  O   UNL     1       7.371   6.573  17.300  0.00  0.00    +0.000 OA
ATOM     15  O   UNL     1       8.076   4.321  18.194  0.00  0.00    +0.000 OA
ENDBRANCH   7  12
ENDBRANCH   2   5
BRANCH   1  20
ATOM     16  C   UNL     1      -0.212  10.280  19.860  0.00  0.00    +0.000 A 
ATOM     17  C   UNL     1      -0.476  10.635  21.190  0.00  0.00    +0.000 A 
ATOM     18  C   UNL     1       0.159   9.977  22.232  0.00  0.00    +0.000 A 
ATOM     19  C   UNL     1       1.054   8.946  21.953  0.00  0.00    +0.000 A 
ATOM     20  C   UNL     1       1.324   8.547  20.641  0.00  0.00    +0.000 A 
ATOM     21  C   UNL     1       0.703   9.242  19.592  0.00  0.00    +0.000 A 
BRANCH  16  25
ATOM     22  C   UNL     1      -3.025  11.027  15.892  0.00  0.00    +0.000 C 
ATOM     23  C   UNL     1      -2.146  11.199  17.068  0.00  0.00    +0.000 A 
ATOM     24  N   UNL     1      -1.744  10.279  17.910  0.00  0.00    +0.000 NA
ATOM     25  C   UNL     1      -0.929  10.963  18.791  0.00  0.00    +0.000 A 
ATOM     26  N   UNL     1      -0.836  12.278  18.525  0.00  0.00    +0.000 NA
ATOM     27  N   UNL     1      -1.603  12.395  17.431  0.00  0.00    +0.000 N 
ATOM     28  H   UNL     1      -1.698  13.301  16.988  0.00  0.00    +0.000 HD
ENDBRANCH  16  25
ENDBRANCH   1  20
TORSDOF 4
ENDMDL
MODEL 6
REMARK VINA RESULT:      -8.9      1.511      2.102
REMARK  Name = 
REMARK  7 active torsions:
REMARK  status: ('A' for Active; 'I' for Inactive)
REMARK    1  A    between atoms: C_1  and  C_2
REMARK    2  A    between atoms: C_4  and  C_5
REMARK    3  A    between atoms: C_9  and  N_10
REMARK    4  A    between atoms: C_11  and  C_13
REMARK    5  A    between atoms: C_15  and  S_16
REMARK    6  A    between atoms: S_16  and  C_17
REMARK    7  A    between atoms: C_22  and  C_23
REMARK                            x       y       z     vdW  Elec       q    Type
REMARK                         _______ _______ _______ _____ _____    ______ ____
ROOT
ATOM      1  N   UNL     1       1.895   7.982  17.772  0.00  0.00    +0.000 N 
ATOM      2  C   UNL     1       2.515   7.009  18.547  0.00  0.00    +0.000 C 
ATOM      3  O   UNL     1       2.517   6.984  19.773  0.00  0.00    +0.000 OA
ATOM      4  H   UNL     1       1.920   7.894  16.768  0.00  0.00    +0.000 HD
ENDROOT
BRANCH   2   5
ATOM      5  C   UNL     1       3.293   5.936  17.854  0.00  0.00    +0.000 A 
ATOM      6  C   UNL     1       4.618   6.172  17.457  0.00  0.00    +0.000 A 
ATOM      7  C   UNL     1       5.404   5.110  16.994  0.00  0.00    +0.000 A 
ATOM      8  C   UNL     1       4.894   3.814  16.918  0.00  0.00    +0.000 A 
ATOM      9  C   UNL     1       3.571   3.580  17.281  0.00  0.00    +0.000 A 
ATOM     10  C   UNL     1       2.749   4.630  17.725  0.00  0.00    +0.000 A 
ATOM     11  C   UNL     1       1.303   4.311  18.023  0.00  0.00    +0.000 C 
BRANCH   7  12
ATOM     12  S   UNL     1       7.067   5.425  16.456  0.00  0.00    +0.000 S 
ATOM     13  C   UNL     1       7.037   4.997  14.736  0.00  0.00    +0.000 C 
ATOM     14  O   UNL     1       7.299   6.852  16.566  0.00  0.00    +0.000 OA
ATOM     15  O   UNL     1       7.921   4.477  17.146  0.00  0.00    +0.000 OA
ENDBRANCH   7  12
ENDBRANCH   2   5
BRANCH   1  20
ATOM     16  C   UNL     1      -0.859  10.467  18.106  0.00  0.00    +0.000 A 
ATOM     17  C   UNL     1      -0.496  11.127  19.287  0.00  0.00    +0.000 A 
ATOM     18  C   UNL     1       0.674  10.787  19.951  0.00  0.00    +0.000 A 
ATOM     19  C   UNL     1       1.482   9.771  19.446  0.00  0.00    +0.000 A 
ATOM     20  C   UNL     1       1.139   9.072  18.285  0.00  0.00    +0.000 A 
ATOM     21  C   UNL     1      -0.027   9.448  17.601  0.00  0.00    +0.000 A 
BRANCH  16  25
ATOM     22  C   UNL     1      -5.474  12.053  17.469  0.00  0.00    +0.000 C 
ATOM     23  C   UNL     1      -4.114  11.511  17.269  0.00  0.00    +0.000 A 
ATOM     24  N   UNL     1      -3.149  11.417  18.151  0.00  0.00    +0.000 NA
ATOM     25  C   UNL     1      -2.116  10.820  17.457  0.00  0.00    +0.000 A 
ATOM     26  N   UNL     1      -2.411  10.563  16.171  0.00  0.00    +0.000 NA
ATOM     27  N   UNL     1      -3.676  10.998  16.084  0.00  0.00    +0.000 N 
ATOM     28  H   UNL     1      -4.174  10.904  15.207  0.00  0.00    +0.000 HD
ENDBRANCH  16  25
ENDBRANCH   1  20
TORSDOF 4
ENDMDL
MODEL 7
REMARK VINA RESULT:      -8.9      2.695      3.377
REMARK  Name = 
REMARK  7 active torsions:
REMARK  status: ('A' for Active; 'I' for Inactive)
REMARK    1  A    between atoms: C_1  and  C_2
REMARK    2  A    between atoms: C_4  and  C_5
REMARK    3  A    between atoms: C_9  and  N_10
REMARK    4  A    between atoms: C_11  and  C_13
REMARK    5  A    between atoms: C_15  and  S_16
REMARK    6  A    between atoms: S_16  and  C_17
REMARK    7  A    between atoms: C_22  and  C_23
REMARK                            x       y       z     vdW  Elec       q    Type
REMARK                         _______ _______ _______ _____ _____    ______ ____
ROOT
ATOM      1  N   UNL     1       2.221   8.301  17.620  0.00  0.00    +0.000 N 
ATOM      2  C   UNL     1       2.591   7.260  18.462  0.00  0.00    +0.000 C 
ATOM      3  O   UNL     1       2.325   7.194  19.657  0.00  0.00    +0.000 OA
ATOM      4  H   UNL     1       2.457   8.245  16.642  0.00  0.00    +0.000 HD
ENDROOT
BRANCH   2   5
ATOM      5  C   UNL     1       3.426   6.152  17.900  0.00  0.00    +0.000 A 
ATOM      6  C   UNL     1       4.805   6.335  17.719  0.00  0.00    +0.000 A 
ATOM      7  C   UNL     1       5.612   5.240  17.386  0.00  0.00    +0.000 A 
ATOM      8  C   UNL     1       5.070   3.965  17.230  0.00  0.00    +0.000 A 
ATOM      9  C   UNL     1       3.698   3.785  17.377  0.00  0.00    +0.000 A 
ATOM     10  C   UNL     1       2.858   4.868  17.686  0.00  0.00    +0.000 A 
ATOM     11  C   UNL     1       1.371   4.608  17.749  0.00  0.00    +0.000 C 
BRANCH   7  12
ATOM     12  S   UNL     1       7.351   5.487  17.120  0.00  0.00    +0.000 S 
ATOM     13  C   UNL     1       7.826   6.568  18.442  0.00  0.00    +0.000 C 
ATOM     14  O   UNL     1       8.008   4.209  17.319  0.00  0.00    +0.000 OA
ATOM     15  O   UNL     1       7.489   6.208  15.869  0.00  0.00    +0.000 OA
ENDBRANCH   7  12
ENDBRANCH   2   5
BRANCH   1  20
ATOM     16  C   UNL     1       1.410  11.783  18.665  0.00  0.00    +0.000 A 
ATOM     17  C   UNL     1       0.010  11.753  18.669  0.00  0.00    +0.000 A 
ATOM     18  C   UNL     1      -0.669  10.580  18.370  0.00  0.00    +0.000 A 
ATOM     19  C   UNL     1       0.050   9.431  18.050  0.00  0.00    +0.000 A 
ATOM     20  C   UNL     1       1.447   9.429  18.011  0.00  0.00    +0.000 A 
ATOM     21  C   UNL     1       2.125  10.610  18.349  0.00  0.00    +0.000 A 
BRANCH  16  25
ATOM     22  C   UNL     1       3.710  16.075  17.953  0.00  0.00    +0.000 C 
ATOM     23  C   UNL     1       3.084  14.877  18.549  0.00  0.00    +0.000 A 
ATOM     24  N   UNL     1       2.441  13.916  17.931  0.00  0.00    +0.000 NA
ATOM     25  C   UNL     1       2.091  13.042  18.941  0.00  0.00    +0.000 A 
ATOM     26  N   UNL     1       2.482  13.448  20.162  0.00  0.00    +0.000 NA
ATOM     27  N   UNL     1       3.113  14.598  19.883  0.00  0.00    +0.000 N 
ATOM     28  H   UNL     1       3.542  15.124  20.635  0.00  0.00    +0.000 HD
ENDBRANCH  16  25
ENDBRANCH   1  20
TORSDOF 4
ENDMDL
MODEL 8
REMARK VINA RESULT:      -8.8      2.814      3.606
REMARK  Name = 
REMARK  7 active torsions:
REMARK  status: ('A' for Active; 'I' for Inactive)
REMARK    1  A    between atoms: C_1  and  C_2
REMARK    2  A    between atoms: C_4  and  C_5
REMARK    3  A    between atoms: C_9  and  N_10
REMARK    4  A    between atoms: C_11  and  C_13
REMARK    5  A    between atoms: C_15  and  S_16
REMARK    6  A    between atoms: S_16  and  C_17
REMARK    7  A    between atoms: C_22  and  C_23
REMARK                            x       y       z     vdW  Elec       q    Type
REMARK                         _______ _______ _______ _____ _____    ______ ____
ROOT
ATOM      1  N   UNL     1       2.153   8.193  17.537  0.00  0.00    +0.000 N 
ATOM      2  C   UNL     1       2.631   7.183  18.364  0.00  0.00    +0.000 C 
ATOM      3  O   UNL     1       2.527   7.167  19.585  0.00  0.00    +0.000 OA
ATOM      4  H   UNL     1       2.257   8.096  16.539  0.00  0.00    +0.000 HD
ENDROOT
BRANCH   2   5
ATOM      5  C   UNL     1       3.383   6.049  17.741  0.00  0.00    +0.000 A 
ATOM      6  C   UNL     1       4.716   6.225  17.342  0.00  0.00    +0.000 A 
ATOM      7  C   UNL     1       5.475   5.116  16.949  0.00  0.00    +0.000 A 
ATOM      8  C   UNL     1       4.929   3.833  16.945  0.00  0.00    +0.000 A 
ATOM      9  C   UNL     1       3.597   3.657  17.309  0.00  0.00    +0.000 A 
ATOM     10  C   UNL     1       2.803   4.754  17.684  0.00  0.00    +0.000 A 
ATOM     11  C   UNL     1       1.345   4.494  17.987  0.00  0.00    +0.000 C 
BRANCH   7  12
ATOM     12  S   UNL     1       7.150   5.352  16.408  0.00  0.00    +0.000 S 
ATOM     13  C   UNL     1       7.100   4.908  14.692  0.00  0.00    +0.000 C 
ATOM     14  O   UNL     1       7.444   6.769  16.502  0.00  0.00    +0.000 OA
ATOM     15  O   UNL     1       7.962   4.375  17.108  0.00  0.00    +0.000 OA
ENDBRANCH   7  12
ENDBRANCH   2   5
BRANCH   1  20
ATOM     16  C   UNL     1       1.518  11.683  18.671  0.00  0.00    +0.000 A 
ATOM     17  C   UNL     1       0.119  11.702  18.743  0.00  0.00    +0.000 A 
ATOM     18  C   UNL     1      -0.614  10.558  18.461  0.00  0.00    +0.000 A 
ATOM     19  C   UNL     1       0.047   9.390  18.089  0.00  0.00    +0.000 A 
ATOM     20  C   UNL     1       1.440   9.341  17.982  0.00  0.00    +0.000 A 
ATOM     21  C   UNL     1       2.175  10.492  18.304  0.00  0.00    +0.000 A 
BRANCH  16  25
ATOM     22  C   UNL     1       4.097  15.804  17.908  0.00  0.00    +0.000 C 
ATOM     23  C   UNL     1       3.372  14.671  18.518  0.00  0.00    +0.000 A 
ATOM     24  N   UNL     1       2.707  13.721  17.907  0.00  0.00    +0.000 NA
ATOM     25  C   UNL     1       2.255  12.914  18.932  0.00  0.00    +0.000 A 
ATOM     26  N   UNL     1       2.606  13.351  20.154  0.00  0.00    +0.000 NA
ATOM     27  N   UNL     1       3.315  14.451  19.862  0.00  0.00    +0.000 N 
ATOM     28  H   UNL     1       3.734  14.984  20.614  0.00  0.00    +0.000 HD
ENDBRANCH  16  25
ENDBRANCH   1  20
TORSDOF 4
ENDMDL
MODEL 9
REMARK VINA RESULT:      -8.8      1.693      2.211
REMARK  Name = 
REMARK  7 active torsions:
REMARK  status: ('A' for Active; 'I' for Inactive)
REMARK    1  A    between atoms: C_1  and  C_2
REMARK    2  A    between atoms: C_4  and  C_5
REMARK    3  A    between atoms: C_9  and  N_10
REMARK    4  A    between atoms: C_11  and  C_13
REMARK    5  A    between atoms: C_15  and  S_16
REMARK    6  A    between atoms: S_16  and  C_17
REMARK    7  A    between atoms: C_22  and  C_23
REMARK                            x       y       z     vdW  Elec       q    Type
REMARK                         _______ _______ _______ _____ _____    ______ ____
ROOT
ATOM      1  N   UNL     1       2.273   7.620  18.747  0.00  0.00    +0.000 N 
ATOM      2  C   UNL     1       2.667   6.349  19.147  0.00  0.00    +0.000 C 
ATOM      3  O   UNL     1       2.523   5.892  20.276  0.00  0.00    +0.000 OA
ATOM      4  H   UNL     1       2.403   7.890  17.785  0.00  0.00    +0.000 HD
ENDROOT
BRANCH   2   5
ATOM      5  C   UNL     1       3.373   5.478  18.157  0.00  0.00    +0.000 A 
ATOM      6  C   UNL     1       4.680   5.789  17.754  0.00  0.00    +0.000 A 
ATOM      7  C   UNL     1       5.407   4.869  16.989  0.00  0.00    +0.000 A 
ATOM      8  C   UNL     1       4.856   3.644  16.616  0.00  0.00    +0.000 A 
ATOM      9  C   UNL     1       3.548   3.345  16.986  0.00  0.00    +0.000 A 
ATOM     10  C   UNL     1       2.784   4.257  17.733  0.00  0.00    +0.000 A 
ATOM     11  C   UNL     1       1.347   3.894  18.026  0.00  0.00    +0.000 C 
BRANCH   7  12
ATOM     12  S   UNL     1       7.047   5.287  16.449  0.00  0.00    +0.000 S 
ATOM     13  C   UNL     1       7.035   4.877  14.724  0.00  0.00    +0.000 C 
ATOM     14  O   UNL     1       7.196   6.724  16.574  0.00  0.00    +0.000 OA
ATOM     15  O   UNL     1       7.958   4.383  17.125  0.00  0.00    +0.000 OA
ENDBRANCH   7  12
ENDBRANCH   2   5
BRANCH   1  20
ATOM     16  C   UNL     1       0.478  10.725  19.754  0.00  0.00    +0.000 A 
ATOM     17  C   UNL     1       0.181  10.451  21.096  0.00  0.00    +0.000 A 
ATOM     18  C   UNL     1       0.607   9.268  21.682  0.00  0.00    +0.000 A 
ATOM     19  C   UNL     1       1.319   8.341  20.925  0.00  0.00    +0.000 A 
ATOM     20  C   UNL     1       1.611   8.567  19.577  0.00  0.00    +0.000 A 
ATOM     21  C   UNL     1       1.208   9.782  19.003  0.00  0.00    +0.000 A 
BRANCH  16  25
ATOM     22  C   UNL     1      -0.129  15.516  18.812  0.00  0.00    +0.000 C 
ATOM     23  C   UNL     1      -0.230  14.042  18.817  0.00  0.00    +0.000 A 
ATOM     24  N   UNL     1       0.508  13.190  19.486  0.00  0.00    +0.000 NA
ATOM     25  C   UNL     1      -0.021  11.957  19.157  0.00  0.00    +0.000 A 
ATOM     26  N   UNL     1      -1.048  12.028  18.293  0.00  0.00    +0.000 NA
ATOM     27  N   UNL     1      -1.164  13.350  18.106  0.00  0.00    +0.000 N 
ATOM     28  H   UNL     1      -1.896  13.703  17.500  0.00  0.00    +0.000 HD
ENDBRANCH  16  25
ENDBRANCH   1  20
TORSDOF 4
ENDMDL
