MODEL 1
REMARK VINA RESULT:      -9.2      0.000      0.000
REMARK  Name = 
REMARK  4 active torsions:
REMARK  status: ('A' for Active; 'I' for Inactive)
REMARK    1  A    between atoms: C_1  and  C_2
REMARK    2  A    between atoms: C_5  and  C_6
REMARK    3  A    between atoms: N_8  and  C_9
REMARK    4  A    between atoms: C_14  and  C_15
REMARK                            x       y       z     vdW  Elec       q    Type
REMARK                         _______ _______ _______ _____ _____    ______ ____
ROOT
ATOM      1  C   UNL     1       3.325   3.718  19.524  0.00  0.00    +0.000 A 
ATOM      2  C   UNL     1       3.426   2.410  20.027  0.00  0.00    +0.000 A 
ATOM      3  C   UNL     1       2.825   2.068  21.238  0.00  0.00    +0.000 A 
ATOM      4  C   UNL     1       2.151   3.036  21.969  0.00  0.00    +0.000 A 
ATOM      5  C   UNL     1       2.045   4.337  21.470  0.00  0.00    +0.000 A 
ATOM      6  C   UNL     1       2.605   4.701  20.228  0.00  0.00    +0.000 A 
ENDROOT
BRANCH   6   7
ATOM      7  C   UNL     1       2.434   6.080  19.744  0.00  0.00    +0.000 A 
ATOM      8  N   UNL     1       2.758   6.579  18.559  0.00  0.00    +0.000 NA
ATOM      9  C   UNL     1       2.304   7.886  18.564  0.00  0.00    +0.000 A 
ATOM     10  C   UNL     1       2.336   8.872  17.565  0.00  0.00    +0.000 A 
ATOM     11  C   UNL     1       1.782  10.135  17.836  0.00  0.00    +0.000 A 
ATOM     12  C   UNL     1       1.200  10.410  19.072  0.00  0.00    +0.000 A 
ATOM     13  C   UNL     1       1.150   9.445  20.079  0.00  0.00    +0.000 A 
ATOM     14  C   UNL     1       1.718   8.204  19.782  0.00  0.00    +0.000 A 
ATOM     15  N   UNL     1       1.855   7.062  20.521  0.00  0.00    +0.000 N 
ATOM     16  H   UNL     1       1.559   6.951  21.478  0.00  0.00    +0.000 HD
ENDBRANCH   6   7
BRANCH   1  19
ATOM     17  C   UNL     1       5.316   4.164  18.230  0.00  0.00    +0.000 C 
ATOM     18  O   UNL     1       6.074   4.120  19.195  0.00  0.00    +0.000 OA
ATOM     19  N   UNL     1       3.937   3.970  18.275  0.00  0.00    +0.000 N 
ATOM     20  H   UNL     1       3.445   4.666  17.715  0.00  0.00    +0.000 HD
BRANCH  17  25
ATOM     21  C   UNL     1       7.700   5.366  13.141  0.00  0.00    +0.000 C 
ATOM     22  C   UNL     1       7.035   5.032  14.443  0.00  0.00    +0.000 A 
ATOM     23  C   UNL     1       5.936   4.179  14.486  0.00  0.00    +0.000 A 
ATOM     24  C   UNL     1       5.344   3.896  15.719  0.00  0.00    +0.000 A 
ATOM     25  C   UNL     1       5.865   4.465  16.882  0.00  0.00    +0.000 A 
ATOM     26  C   UNL     1       6.970   5.294  16.751  0.00  0.00    +0.000 A 
ATOM     27  N   UNL     1       7.557   5.595  15.560  0.00  0.00    +0.000 NA
ENDBRANCH  17  25
ENDBRANCH   1  19
TORSDOF 3
ENDMDL
MODEL 2
REMARK VINA RESULT:      -8.2      2.435      6.121
REMARK  Name = 
REMARK  4 active torsions:
REMARK  status: ('A' for Active; 'I' for Inactive)
REMARK    1  A    between atoms: C_1  and  C_2
REMARK    2  A    between atoms: C_5  and  C_6
REMARK    3  A    between atoms: N_8  and  C_9
REMARK    4  A    between atoms: C_14  and  C_15
REMARK                            x       y       z     vdW  Elec       q    Type
REMARK                         _______ _______ _______ _____ _____    ______ ____
ROOT
ATOM      1  C   UNL     1       2.111   4.228  18.722  0.00  0.00    +0.000 A 
ATOM      2  C   UNL     1       1.052   3.323  18.905  0.00  0.00    +0.000 A 
ATOM      3  C   UNL     1       1.264   1.951  18.786  0.00  0.00    +0.000 A 
ATOM      4  C   UNL     1       2.525   1.476  18.448  0.00  0.00    +0.000 A 
ATOM      5  C   UNL     1       3.581   2.373  18.269  0.00  0.00    +0.000 A 
ATOM      6  C   UNL     1       3.406   3.764  18.427  0.00  0.00    +0.000 A 
ENDROOT
BRANCH   6   7
ATOM      7  C   UNL     1       4.565   4.654  18.253  0.00  0.00    +0.000 A 
ATOM      8  N   UNL     1       4.713   5.648  17.388  0.00  0.00    +0.000 NA
ATOM      9  C   UNL     1       5.927   6.235  17.693  0.00  0.00    +0.000 A 
ATOM     10  C   UNL     1       6.573   7.350  17.135  0.00  0.00    +0.000 A 
ATOM     11  C   UNL     1       7.818   7.747  17.654  0.00  0.00    +0.000 A 
ATOM     12  C   UNL     1       8.404   7.055  18.711  0.00  0.00    +0.000 A 
ATOM     13  C   UNL     1       7.780   5.949  19.288  0.00  0.00    +0.000 A 
ATOM     14  C   UNL     1       6.549   5.574  18.744  0.00  0.00    +0.000 A 
ATOM     15  N   UNL     1       5.690   4.555  19.045  0.00  0.00    +0.000 N 
ATOM     16  H   UNL     1       5.846   3.854  19.752  0.00  0.00    +0.000 HD
ENDBRANCH   6   7
BRANCH   1  19
ATOM     17  C   UNL     1       1.963   6.165  20.159  0.00  0.00    +0.000 C 
ATOM     18  O   UNL     1       2.350   5.574  21.163  0.00  0.00    +0.000 OA
ATOM     19  N   UNL     1       1.815   5.601  18.894  0.00  0.00    +0.000 N 
ATOM     20  H   UNL     1       0.938   5.885  18.459  0.00  0.00    +0.000 HD
BRANCH  17  25
ATOM     21  C   UNL     1       0.454  11.711  20.235  0.00  0.00    +0.000 C 
ATOM     22  C   UNL     1       0.845  10.263  20.269  0.00  0.00    +0.000 A 
ATOM     23  C   UNL     1       0.690   9.508  21.429  0.00  0.00    +0.000 A 
ATOM     24  C   UNL     1       1.069   8.164  21.419  0.00  0.00    +0.000 A 
ATOM     25  C   UNL     1       1.590   7.601  20.253  0.00  0.00    +0.000 A 
ATOM     26  C   UNL     1       1.699   8.421  19.139  0.00  0.00    +0.000 A 
ATOM     27  N   UNL     1       1.348   9.736  19.127  0.00  0.00    +0.000 NA
ENDBRANCH  17  25
ENDBRANCH   1  19
TORSDOF 3
ENDMDL
MODEL 3
REMARK VINA RESULT:      -8.0      2.387      5.949
REMARK  Name = 
REMARK  4 active torsions:
REMARK  status: ('A' for Active; 'I' for Inactive)
REMARK    1  A    between atoms: C_1  and  C_2
REMARK    2  A    between atoms: C_5  and  C_6
REMARK    3  A    between atoms: N_8  and  C_9
REMARK    4  A    between atoms: C_14  and  C_15
REMARK                            x       y       z     vdW  Elec       q    Type
REMARK                         _______ _______ _______ _____ _____    ______ ____
ROOT
ATOM      1  C   UNL     1       2.188   4.254  18.441  0.00  0.00    +0.000 A 
ATOM      2  C   UNL     1       1.112   3.365  18.599  0.00  0.00    +0.000 A 
ATOM      3  C   UNL     1       1.334   1.992  18.687  0.00  0.00    +0.000 A 
ATOM      4  C   UNL     1       2.627   1.496  18.582  0.00  0.00    +0.000 A 
ATOM      5  C   UNL     1       3.700   2.377  18.429  0.00  0.00    +0.000 A 
ATOM      6  C   UNL     1       3.509   3.774  18.381  0.00  0.00    +0.000 A 
ENDROOT
BRANCH   6   7
ATOM      7  C   UNL     1       4.684   4.651  18.248  0.00  0.00    +0.000 A 
ATOM      8  N   UNL     1       4.884   5.625  17.371  0.00  0.00    +0.000 NA
ATOM      9  C   UNL     1       6.086   6.209  17.725  0.00  0.00    +0.000 A 
ATOM     10  C   UNL     1       6.770   7.306  17.176  0.00  0.00    +0.000 A 
ATOM     11  C   UNL     1       7.991   7.705  17.750  0.00  0.00    +0.000 A 
ATOM     12  C   UNL     1       8.516   7.032  18.851  0.00  0.00    +0.000 A 
ATOM     13  C   UNL     1       7.853   5.944  19.419  0.00  0.00    +0.000 A 
ATOM     14  C   UNL     1       6.648   5.566  18.820  0.00  0.00    +0.000 A 
ATOM     15  N   UNL     1       5.765   4.561  19.099  0.00  0.00    +0.000 N 
ATOM     16  H   UNL     1       5.880   3.875  19.828  0.00  0.00    +0.000 HD
ENDBRANCH   6   7
BRANCH   1  19
ATOM     17  C   UNL     1       2.076   6.406  19.536  0.00  0.00    +0.000 C 
ATOM     18  O   UNL     1       2.523   5.997  20.603  0.00  0.00    +0.000 OA
ATOM     19  N   UNL     1       1.876   5.633  18.393  0.00  0.00    +0.000 N 
ATOM     20  H   UNL     1       0.973   5.830  17.964  0.00  0.00    +0.000 HD
BRANCH  17  25
ATOM     21  C   UNL     1       0.615  11.960  19.315  0.00  0.00    +0.000 C 
ATOM     22  C   UNL     1       0.998  10.509  19.319  0.00  0.00    +0.000 A 
ATOM     23  C   UNL     1       1.485   9.896  18.168  0.00  0.00    +0.000 A 
ATOM     24  C   UNL     1       1.827   8.543  18.213  0.00  0.00    +0.000 A 
ATOM     25  C   UNL     1       1.681   7.832  19.405  0.00  0.00    +0.000 A 
ATOM     26  C   UNL     1       1.201   8.524  20.509  0.00  0.00    +0.000 A 
ATOM     27  N   UNL     1       0.849   9.839  20.487  0.00  0.00    +0.000 NA
ENDBRANCH  17  25
ENDBRANCH   1  19
TORSDOF 3
ENDMDL
MODEL 4
REMARK VINA RESULT:      -7.6      2.496      6.184
REMARK  Name = 
REMARK  4 active torsions:
REMARK  status: ('A' for Active; 'I' for Inactive)
REMARK    1  A    between atoms: C_1  and  C_2
REMARK    2  A    between atoms: C_5  and  C_6
REMARK    3  A    between atoms: N_8  and  C_9
REMARK    4  A    between atoms: C_14  and  C_15
REMARK                            x       y       z     vdW  Elec       q    Type
REMARK                         _______ _______ _______ _____ _____    ______ ____
ROOT
ATOM      1  C   UNL     1       2.120   4.163  18.808  0.00  0.00    +0.000 A 
ATOM      2  C   UNL     1       1.065   3.237  18.851  0.00  0.00    +0.000 A 
ATOM      3  C   UNL     1       1.313   1.873  18.708  0.00  0.00    +0.000 A 
ATOM      4  C   UNL     1       2.610   1.428  18.487  0.00  0.00    +0.000 A 
ATOM      5  C   UNL     1       3.662   2.346  18.448  0.00  0.00    +0.000 A 
ATOM      6  C   UNL     1       3.447   3.728  18.633  0.00  0.00    +0.000 A 
ENDROOT
BRANCH   6   7
ATOM      7  C   UNL     1       4.601   4.640  18.610  0.00  0.00    +0.000 A 
ATOM      8  N   UNL     1       5.698   4.594  19.352  0.00  0.00    +0.000 NA
ATOM      9  C   UNL     1       6.516   5.604  18.880  0.00  0.00    +0.000 A 
ATOM     10  C   UNL     1       7.811   5.990  19.261  0.00  0.00    +0.000 A 
ATOM     11  C   UNL     1       8.427   7.063  18.593  0.00  0.00    +0.000 A 
ATOM     12  C   UNL     1       7.772   7.733  17.562  0.00  0.00    +0.000 A 
ATOM     13  C   UNL     1       6.488   7.365  17.159  0.00  0.00    +0.000 A 
ATOM     14  C   UNL     1       5.900   6.301  17.849  0.00  0.00    +0.000 A 
ATOM     15  N   UNL     1       4.677   5.702  17.732  0.00  0.00    +0.000 N 
ATOM     16  H   UNL     1       3.954   5.981  17.089  0.00  0.00    +0.000 HD
ENDBRANCH   6   7
BRANCH   1  19
ATOM     17  C   UNL     1       1.915   6.080  20.264  0.00  0.00    +0.000 C 
ATOM     18  O   UNL     1       2.321   5.491  21.262  0.00  0.00    +0.000 OA
ATOM     19  N   UNL     1       1.783   5.524  18.993  0.00  0.00    +0.000 N 
ATOM     20  H   UNL     1       0.897   5.786  18.562  0.00  0.00    +0.000 HD
BRANCH  17  25
ATOM     21  C   UNL     1       0.265  11.584  20.392  0.00  0.00    +0.000 C 
ATOM     22  C   UNL     1       0.689  10.145  20.412  0.00  0.00    +0.000 A 
ATOM     23  C   UNL     1       0.459   9.348  21.530  0.00  0.00    +0.000 A 
ATOM     24  C   UNL     1       0.872   8.014  21.510  0.00  0.00    +0.000 A 
ATOM     25  C   UNL     1       1.499   7.503  20.373  0.00  0.00    +0.000 A 
ATOM     26  C   UNL     1       1.677   8.362  19.298  0.00  0.00    +0.000 A 
ATOM     27  N   UNL     1       1.295   9.669  19.298  0.00  0.00    +0.000 NA
ENDBRANCH  17  25
ENDBRANCH   1  19
TORSDOF 3
ENDMDL
MODEL 5
REMARK VINA RESULT:      -7.4      3.503      5.128
REMARK  Name = 
REMARK  4 active torsions:
REMARK  status: ('A' for Active; 'I' for Inactive)
REMARK    1  A    between atoms: C_1  and  C_2
REMARK    2  A    between atoms: C_5  and  C_6
REMARK    3  A    between atoms: N_8  and  C_9
REMARK    4  A    between atoms: C_14  and  C_15
REMARK                            x       y       z     vdW  Elec       q    Type
REMARK                         _______ _______ _______ _____ _____    ______ ____
ROOT
ATOM      1  C   UNL     1       6.184   6.232  16.655  0.00  0.00    +0.000 A 
ATOM      2  C   UNL     1       7.005   5.285  16.020  0.00  0.00    +0.000 A 
ATOM      3  C   UNL     1       6.515   4.018  15.707  0.00  0.00    +0.000 A 
ATOM      4  C   UNL     1       5.216   3.677  16.058  0.00  0.00    +0.000 A 
ATOM      5  C   UNL     1       4.395   4.617  16.685  0.00  0.00    +0.000 A 
ATOM      6  C   UNL     1       4.849   5.921  16.975  0.00  0.00    +0.000 A 
ENDROOT
BRANCH   6   7
ATOM      7  C   UNL     1       3.927   6.874  17.612  0.00  0.00    +0.000 A 
ATOM      8  N   UNL     1       3.437   8.000  17.112  0.00  0.00    +0.000 NA
ATOM      9  C   UNL     1       2.544   8.474  18.055  0.00  0.00    +0.000 A 
ATOM     10  C   UNL     1       1.708   9.603  18.042  0.00  0.00    +0.000 A 
ATOM     11  C   UNL     1       0.875   9.847  19.148  0.00  0.00    +0.000 A 
ATOM     12  C   UNL     1       0.868   8.983  20.241  0.00  0.00    +0.000 A 
ATOM     13  C   UNL     1       1.683   7.851  20.276  0.00  0.00    +0.000 A 
ATOM     14  C   UNL     1       2.506   7.642  19.166  0.00  0.00    +0.000 A 
ATOM     15  N   UNL     1       3.421   6.668  18.879  0.00  0.00    +0.000 N 
ATOM     16  H   UNL     1       3.669   5.907  19.490  0.00  0.00    +0.000 HD
ENDBRANCH   6   7
BRANCH   1  19
ATOM     17  C   UNL     1       7.697   7.626  17.923  0.00  0.00    +0.000 C 
ATOM     18  O   UNL     1       8.107   6.710  18.630  0.00  0.00    +0.000 OA
ATOM     19  N   UNL     1       6.751   7.503  16.907  0.00  0.00    +0.000 N 
ATOM     20  H   UNL     1       6.063   8.254  16.945  0.00  0.00    +0.000 HD
BRANCH  17  25
ATOM     21  C   UNL     1       9.410  13.061  18.668  0.00  0.00    +0.000 C 
ATOM     22  C   UNL     1       9.003  11.626  18.506  0.00  0.00    +0.000 A 
ATOM     23  C   UNL     1       9.507  10.640  19.351  0.00  0.00    +0.000 A 
ATOM     24  C   UNL     1       9.105   9.316  19.164  0.00  0.00    +0.000 A 
ATOM     25  C   UNL     1       8.206   9.004  18.143  0.00  0.00    +0.000 A 
ATOM     26  C   UNL     1       7.744  10.049  17.355  0.00  0.00    +0.000 A 
ATOM     27  N   UNL     1       8.130  11.345  17.509  0.00  0.00    +0.000 NA
ENDBRANCH  17  25
ENDBRANCH   1  19
TORSDOF 3
ENDMDL
MODEL 6
REMARK VINA RESULT:      -7.4      0.267      1.188
REMARK  Name = 
REMARK  4 active torsions:
REMARK  status: ('A' for Active; 'I' for Inactive)
REMARK    1  A    between atoms: C_1  and  C_2
REMARK    2  A    between atoms: C_5  and  C_6
REMARK    3  A    between atoms: N_8  and  C_9
REMARK    4  A    between atoms: C_14  and  C_15
REMARK                            x       y       z     vdW  Elec       q    Type
REMARK                         _______ _______ _______ _____ _____    ______ ____
ROOT
ATOM      1  C   UNL     1       3.292   3.629  19.639  0.00  0.00    +0.000 A 
ATOM      2  C   UNL     1       3.495   2.334  20.144  0.00  0.00    +0.000 A 
ATOM      3  C   UNL     1       2.930   1.950  21.358  0.00  0.00    +0.000 A 
ATOM      4  C   UNL     1       2.188   2.866  22.092  0.00  0.00    +0.000 A 
ATOM      5  C   UNL     1       1.980   4.153  21.591  0.00  0.00    +0.000 A 
ATOM      6  C   UNL     1       2.503   4.556  20.344  0.00  0.00    +0.000 A 
ENDROOT
BRANCH   6   7
ATOM      7  C   UNL     1       2.225   5.917  19.859  0.00  0.00    +0.000 A 
ATOM      8  N   UNL     1       1.588   6.897  20.485  0.00  0.00    +0.000 NA
ATOM      9  C   UNL     1       1.680   7.998  19.653  0.00  0.00    +0.000 A 
ATOM     10  C   UNL     1       1.225   9.316  19.821  0.00  0.00    +0.000 A 
ATOM     11  C   UNL     1       1.468  10.256  18.804  0.00  0.00    +0.000 A 
ATOM     12  C   UNL     1       2.157   9.895  17.648  0.00  0.00    +0.000 A 
ATOM     13  C   UNL     1       2.626   8.595  17.460  0.00  0.00    +0.000 A 
ATOM     14  C   UNL     1       2.359   7.682  18.484  0.00  0.00    +0.000 A 
ATOM     15  N   UNL     1       2.650   6.354  18.621  0.00  0.00    +0.000 N 
ATOM     16  H   UNL     1       3.121   5.789  17.932  0.00  0.00    +0.000 HD
ENDBRANCH   6   7
BRANCH   1  19
ATOM     17  C   UNL     1       5.253   4.128  18.317  0.00  0.00    +0.000 C 
ATOM     18  O   UNL     1       6.031   4.059  19.263  0.00  0.00    +0.000 OA
ATOM     19  N   UNL     1       3.876   3.924  18.385  0.00  0.00    +0.000 N 
ATOM     20  H   UNL     1       3.368   4.634  17.857  0.00  0.00    +0.000 HD
BRANCH  17  25
ATOM     21  C   UNL     1       7.527   5.440  13.204  0.00  0.00    +0.000 C 
ATOM     22  C   UNL     1       6.886   5.089  14.514  0.00  0.00    +0.000 A 
ATOM     23  C   UNL     1       5.644   4.460  14.557  0.00  0.00    +0.000 A 
ATOM     24  C   UNL     1       5.081   4.153  15.797  0.00  0.00    +0.000 A 
ATOM     25  C   UNL     1       5.770   4.474  16.967  0.00  0.00    +0.000 A 
ATOM     26  C   UNL     1       7.008   5.088  16.835  0.00  0.00    +0.000 A 
ATOM     27  N   UNL     1       7.572   5.409  15.638  0.00  0.00    +0.000 NA
ENDBRANCH  17  25
ENDBRANCH   1  19
TORSDOF 3
ENDMDL
MODEL 7
REMARK VINA RESULT:      -7.2      2.378      6.038
REMARK  Name = 
REMARK  4 active torsions:
REMARK  status: ('A' for Active; 'I' for Inactive)
REMARK    1  A    between atoms: C_1  and  C_2
REMARK    2  A    between atoms: C_5  and  C_6
REMARK    3  A    between atoms: N_8  and  C_9
REMARK    4  A    between atoms: C_14  and  C_15
REMARK                            x       y       z     vdW  Elec       q    Type
REMARK                         _______ _______ _______ _____ _____    ______ ____
ROOT
ATOM      1  C   UNL     1       1.882   4.806  19.630  0.00  0.00    +0.000 A 
ATOM      2  C   UNL     1       0.797   4.078  20.148  0.00  0.00    +0.000 A 
ATOM      3  C   UNL     1       0.963   2.759  20.564  0.00  0.00    +0.000 A 
ATOM      4  C   UNL     1       2.202   2.146  20.433  0.00  0.00    +0.000 A 
ATOM      5  C   UNL     1       3.284   2.867  19.923  0.00  0.00    +0.000 A 
ATOM      6  C   UNL     1       3.157   4.217  19.535  0.00  0.00    +0.000 A 
ENDROOT
BRANCH   6   7
ATOM      7  C   UNL     1       4.341   4.931  19.032  0.00  0.00    +0.000 A 
ATOM      8  N   UNL     1       4.416   5.783  18.019  0.00  0.00    +0.000 NA
ATOM      9  C   UNL     1       5.717   6.252  18.016  0.00  0.00    +0.000 A 
ATOM     10  C   UNL     1       6.349   7.201  17.196  0.00  0.00    +0.000 A 
ATOM     11  C   UNL     1       7.703   7.505  17.424  0.00  0.00    +0.000 A 
ATOM     12  C   UNL     1       8.411   6.885  18.451  0.00  0.00    +0.000 A 
ATOM     13  C   UNL     1       7.805   5.944  19.284  0.00  0.00    +0.000 A 
ATOM     14  C   UNL     1       6.462   5.656  19.025  0.00  0.00    +0.000 A 
ATOM     15  N   UNL     1       5.582   4.795  19.619  0.00  0.00    +0.000 N 
ATOM     16  H   UNL     1       5.803   4.175  20.382  0.00  0.00    +0.000 HD
ENDBRANCH   6   7
BRANCH   1  19
ATOM     17  C   UNL     1       1.714   7.138  20.241  0.00  0.00    +0.000 C 
ATOM     18  O   UNL     1       2.002   6.953  21.419  0.00  0.00    +0.000 OA
ATOM     19  N   UNL     1       1.633   6.148  19.262  0.00  0.00    +0.000 N 
ATOM     20  H   UNL     1       0.803   6.264  18.683  0.00  0.00    +0.000 HD
BRANCH  17  25
ATOM     21  C   UNL     1       0.513  12.544  18.702  0.00  0.00    +0.000 C 
ATOM     22  C   UNL     1       0.835  11.121  19.051  0.00  0.00    +0.000 A 
ATOM     23  C   UNL     1       1.448  10.279  18.127  0.00  0.00    +0.000 A 
ATOM     24  C   UNL     1       1.728   8.960  18.492  0.00  0.00    +0.000 A 
ATOM     25  C   UNL     1       1.396   8.511  19.771  0.00  0.00    +0.000 A 
ATOM     26  C   UNL     1       0.799   9.420  20.634  0.00  0.00    +0.000 A 
ATOM     27  N   UNL     1       0.505  10.706  20.298  0.00  0.00    +0.000 NA
ENDBRANCH  17  25
ENDBRANCH   1  19
TORSDOF 3
ENDMDL
MODEL 8
REMARK VINA RESULT:      -7.1      1.679      6.211
REMARK  Name = 
REMARK  4 active torsions:
REMARK  status: ('A' for Active; 'I' for Inactive)
REMARK    1  A    between atoms: C_1  and  C_2
REMARK    2  A    between atoms: C_5  and  C_6
REMARK    3  A    between atoms: N_8  and  C_9
REMARK    4  A    between atoms: C_14  and  C_15
REMARK                            x       y       z     vdW  Elec       q    Type
REMARK                         _______ _______ _______ _____ _____    ______ ____
ROOT
ATOM      1  C   UNL     1       1.987   4.727  19.520  0.00  0.00    +0.000 A 
ATOM      2  C   UNL     1       1.063   4.285  20.482  0.00  0.00    +0.000 A 
ATOM      3  C   UNL     1       1.110   2.977  20.961  0.00  0.00    +0.000 A 
ATOM      4  C   UNL     1       2.054   2.093  20.457  0.00  0.00    +0.000 A 
ATOM      5  C   UNL     1       2.977   2.529  19.504  0.00  0.00    +0.000 A 
ATOM      6  C   UNL     1       2.982   3.859  19.033  0.00  0.00    +0.000 A 
ENDROOT
BRANCH   6   7
ATOM      7  C   UNL     1       3.998   4.265  18.049  0.00  0.00    +0.000 A 
ATOM      8  N   UNL     1       5.042   5.062  18.229  0.00  0.00    +0.000 NA
ATOM      9  C   UNL     1       5.740   5.043  17.036  0.00  0.00    +0.000 A 
ATOM     10  C   UNL     1       6.943   5.668  16.667  0.00  0.00    +0.000 A 
ATOM     11  C   UNL     1       7.446   5.466  15.369  0.00  0.00    +0.000 A 
ATOM     12  C   UNL     1       6.771   4.654  14.460  0.00  0.00    +0.000 A 
ATOM     13  C   UNL     1       5.578   4.017  14.804  0.00  0.00    +0.000 A 
ATOM     14  C   UNL     1       5.100   4.246  16.097  0.00  0.00    +0.000 A 
ATOM     15  N   UNL     1       3.982   3.806  16.748  0.00  0.00    +0.000 N 
ATOM     16  H   UNL     1       3.269   3.219  16.344  0.00  0.00    +0.000 HD
ENDBRANCH   6   7
BRANCH   1  19
ATOM     17  C   UNL     1       1.770   7.065  20.089  0.00  0.00    +0.000 C 
ATOM     18  O   UNL     1       1.757   6.872  21.301  0.00  0.00    +0.000 OA
ATOM     19  N   UNL     1       1.889   6.078  19.113  0.00  0.00    +0.000 N 
ATOM     20  H   UNL     1       1.228   6.225  18.351  0.00  0.00    +0.000 HD
BRANCH  17  25
ATOM     21  C   UNL     1       1.247  12.517  18.347  0.00  0.00    +0.000 C 
ATOM     22  C   UNL     1       1.394  11.080  18.751  0.00  0.00    +0.000 A 
ATOM     23  C   UNL     1       1.990  10.156  17.897  0.00  0.00    +0.000 A 
ATOM     24  C   UNL     1       2.105   8.827  18.310  0.00  0.00    +0.000 A 
ATOM     25  C   UNL     1       1.630   8.450  19.567  0.00  0.00    +0.000 A 
ATOM     26  C   UNL     1       1.063   9.437  20.360  0.00  0.00    +0.000 A 
ATOM     27  N   UNL     1       0.927  10.736  19.975  0.00  0.00    +0.000 NA
ENDBRANCH  17  25
ENDBRANCH   1  19
TORSDOF 3
ENDMDL
MODEL 9
REMARK VINA RESULT:      -7.0      9.163     11.096
REMARK  Name = 
REMARK  4 active torsions:
REMARK  status: ('A' for Active; 'I' for Inactive)
REMARK    1  A    between atoms: C_1  and  C_2
REMARK    2  A    between atoms: C_5  and  C_6
REMARK    3  A    between atoms: N_8  and  C_9
REMARK    4  A    between atoms: C_14  and  C_15
REMARK                            x       y       z     vdW  Elec       q    Type
REMARK                         _______ _______ _______ _____ _____    ______ ____
ROOT
ATOM      1  C   UNL     1       9.661  12.946  18.897  0.00  0.00    +0.000 A 
ATOM      2  C   UNL     1      10.391  12.712  17.720  0.00  0.00    +0.000 A 
ATOM      3  C   UNL     1      11.671  12.162  17.776  0.00  0.00    +0.000 A 
ATOM      4  C   UNL     1      12.243  11.877  19.009  0.00  0.00    +0.000 A 
ATOM      5  C   UNL     1      11.519  12.104  20.182  0.00  0.00    +0.000 A 
ATOM      6  C   UNL     1      10.205  12.618  20.152  0.00  0.00    +0.000 A 
ENDROOT
BRANCH   6   7
ATOM      7  C   UNL     1       9.484  12.809  21.421  0.00  0.00    +0.000 A 
ATOM      8  N   UNL     1       9.036  13.940  21.948  0.00  0.00    +0.000 NA
ATOM      9  C   UNL     1       8.344  13.576  23.088  0.00  0.00    +0.000 A 
ATOM     10  C   UNL     1       7.628  14.353  24.014  0.00  0.00    +0.000 A 
ATOM     11  C   UNL     1       6.996  13.713  25.095  0.00  0.00    +0.000 A 
ATOM     12  C   UNL     1       7.067  12.331  25.248  0.00  0.00    +0.000 A 
ATOM     13  C   UNL     1       7.765  11.536  24.339  0.00  0.00    +0.000 A 
ATOM     14  C   UNL     1       8.391  12.202  23.281  0.00  0.00    +0.000 A 
ATOM     15  N   UNL     1       9.154  11.750  22.242  0.00  0.00    +0.000 N 
ATOM     16  H   UNL     1       9.416  10.789  22.089  0.00  0.00    +0.000 HD
ENDBRANCH   6   7
BRANCH   1  19
ATOM     17  C   UNL     1       8.209  14.852  18.579  0.00  0.00    +0.000 C 
ATOM     18  O   UNL     1       9.125  15.668  18.534  0.00  0.00    +0.000 OA
ATOM     19  N   UNL     1       8.359  13.476  18.746  0.00  0.00    +0.000 N 
ATOM     20  H   UNL     1       7.690  13.108  19.421  0.00  0.00    +0.000 HD
BRANCH  17  25
ATOM     21  C   UNL     1       2.874  16.945  18.153  0.00  0.00    +0.000 C 
ATOM     22  C   UNL     1       4.247  16.350  18.251  0.00  0.00    +0.000 A 
ATOM     23  C   UNL     1       4.517  15.085  17.734  0.00  0.00    +0.000 A 
ATOM     24  C   UNL     1       5.808  14.567  17.849  0.00  0.00    +0.000 A 
ATOM     25  C   UNL     1       6.804  15.321  18.471  0.00  0.00    +0.000 A 
ATOM     26  C   UNL     1       6.452  16.577  18.947  0.00  0.00    +0.000 A 
ATOM     27  N   UNL     1       5.199  17.100  18.858  0.00  0.00    +0.000 NA
ENDBRANCH  17  25
ENDBRANCH   1  19
TORSDOF 3
ENDMDL
