MODEL 1
REMARK VINA RESULT:      -9.3      0.000      0.000
REMARK  Name = 
REMARK  6 active torsions:
REMARK  status: ('A' for Active; 'I' for Inactive)
REMARK    1  A    between atoms: C_1  and  N_2
REMARK    2  A    between atoms: C_6  and  C_7
REMARK    3  A    between atoms: C_7  and  C_10
REMARK    4  A    between atoms: C_10  and  C_11
REMARK    5  A    between atoms: C_10  and  C_13
REMARK    6  A    between atoms: C_17  and  N_18
REMARK                            x       y       z     vdW  Elec       q    Type
REMARK                         _______ _______ _______ _____ _____    ______ ____
ROOT
ATOM      1  C   UNL     1       4.573   5.113  17.424  0.00  0.00    +0.000 A 
ATOM      2  C   UNL     1       3.803   3.951  17.566  0.00  0.00    +0.000 A 
ATOM      3  C   UNL     1       2.586   3.958  18.264  0.00  0.00    +0.000 A 
ATOM      4  C   UNL     1       2.052   5.143  18.775  0.00  0.00    +0.000 A 
ATOM      5  C   UNL     1       2.713   6.340  18.551  0.00  0.00    +0.000 A 
ATOM      6  C   UNL     1       3.993   6.288  17.934  0.00  0.00    +0.000 A 
ENDROOT
BRANCH   5   7
ATOM      7  N   UNL     1       2.156   7.574  18.776  0.00  0.00    +0.000 N 
ATOM      8  C   UNL     1       2.235   8.848  18.025  0.00  0.00    +0.000 C 
ATOM      9  C   UNL     1       1.297   9.706  18.862  0.00  0.00    +0.000 A 
ATOM     10  C   UNL     1       0.627  10.886  18.586  0.00  0.00    +0.000 A 
ATOM     11  C   UNL     1      -0.429  11.262  19.437  0.00  0.00    +0.000 A 
ATOM     12  C   UNL     1      -0.810  10.452  20.521  0.00  0.00    +0.000 A 
ATOM     13  C   UNL     1      -0.057   9.335  20.841  0.00  0.00    +0.000 A 
ATOM     14  F   UNL     1      -0.424   8.522  21.839  0.00  0.00    +0.000 F 
ATOM     15  C   UNL     1       1.017   9.019  20.052  0.00  0.00    +0.000 A 
ATOM     16  C   UNL     1       1.952   7.883  20.195  0.00  0.00    +0.000 C 
ENDBRANCH   5   7
BRANCH   1  17
ATOM     17  C   UNL     1       5.910   5.089  16.646  0.00  0.00    +0.000 C 
ATOM     18  C   UNL     1       7.080   4.502  17.475  0.00  0.00    +0.000 C 
ATOM     19  F   UNL     1       6.303   6.382  16.378  0.00  0.00    +0.000 F 
BRANCH  17  20
ATOM     20  C   UNL     1       5.861   4.295  15.309  0.00  0.00    +0.000 C 
ATOM     21  F   UNL     1       4.567   4.287  14.850  0.00  0.00    +0.000 F 
ATOM     22  F   UNL     1       6.135   2.972  15.548  0.00  0.00    +0.000 F 
BRANCH  20  28
ATOM     23  C   UNL     1       5.913   3.353  12.310  0.00  0.00    +0.000 C 
ATOM     24  N   UNL     1       6.802   4.305  12.935  0.00  0.00    +0.000 N 
ATOM     25  C   UNL     1       7.843   4.921  12.302  0.00  0.00    +0.000 A 
ATOM     26  N   UNL     1       8.448   5.713  13.156  0.00  0.00    +0.000 NA
ATOM     27  N   UNL     1       7.811   5.592  14.366  0.00  0.00    +0.000 NA
ATOM     28  C   UNL     1       6.802   4.749  14.230  0.00  0.00    +0.000 A 
ENDBRANCH  20  28
ENDBRANCH  17  20
ENDBRANCH   1  17
TORSDOF 4
ENDMDL
MODEL 2
REMARK VINA RESULT:      -9.2      2.431      3.385
REMARK  Name = 
REMARK  6 active torsions:
REMARK  status: ('A' for Active; 'I' for Inactive)
REMARK    1  A    between atoms: C_1  and  N_2
REMARK    2  A    between atoms: C_6  and  C_7
REMARK    3  A    between atoms: C_7  and  C_10
REMARK    4  A    between atoms: C_10  and  C_11
REMARK    5  A    between atoms: C_10  and  C_13
REMARK    6  A    between atoms: C_17  and  N_18
REMARK                            x       y       z     vdW  Elec       q    Type
REMARK                         _______ _______ _______ _____ _____    ______ ____
ROOT
ATOM      1  C   UNL     1       4.418   5.180  17.413  0.00  0.00    +0.000 A 
ATOM      2  C   UNL     1       4.154   3.950  18.031  0.00  0.00    +0.000 A 
ATOM      3  C   UNL     1       3.430   3.872  19.230  0.00  0.00    +0.000 A 
ATOM      4  C   UNL     1       2.869   5.011  19.812  0.00  0.00    +0.000 A 
ATOM      5  C   UNL     1       2.994   6.233  19.173  0.00  0.00    +0.000 A 
ATOM      6  C   UNL     1       3.821   6.299  18.018  0.00  0.00    +0.000 A 
ENDROOT
BRANCH   5   7
ATOM      7  N   UNL     1       2.273   7.351  19.514  0.00  0.00    +0.000 N 
ATOM      8  C   UNL     1       1.380   7.643  20.659  0.00  0.00    +0.000 C 
ATOM      9  C   UNL     1       1.037   9.095  20.362  0.00  0.00    +0.000 A 
ATOM     10  C   UNL     1       0.535  10.110  21.159  0.00  0.00    +0.000 A 
ATOM     11  C   UNL     1       0.639  11.433  20.690  0.00  0.00    +0.000 A 
ATOM     12  C   UNL     1       1.258  11.720  19.461  0.00  0.00    +0.000 A 
ATOM     13  C   UNL     1       1.654  10.683  18.634  0.00  0.00    +0.000 A 
ATOM     14  F   UNL     1       2.286  10.928  17.480  0.00  0.00    +0.000 F 
ATOM     15  C   UNL     1       1.478   9.395  19.064  0.00  0.00    +0.000 A 
ATOM     16  C   UNL     1       1.826   8.142  18.363  0.00  0.00    +0.000 C 
ENDBRANCH   5   7
BRANCH   1  17
ATOM     17  C   UNL     1       5.214   5.248  16.089  0.00  0.00    +0.000 C 
ATOM     18  C   UNL     1       5.026   6.591  15.339  0.00  0.00    +0.000 C 
ATOM     19  F   UNL     1       4.723   4.303  15.215  0.00  0.00    +0.000 F 
BRANCH  17  20
ATOM     20  C   UNL     1       6.747   5.031  16.248  0.00  0.00    +0.000 C 
ATOM     21  F   UNL     1       7.395   5.735  15.264  0.00  0.00    +0.000 F 
ATOM     22  F   UNL     1       7.057   3.722  15.977  0.00  0.00    +0.000 F 
BRANCH  20  28
ATOM     23  C   UNL     1       7.469   7.872  17.384  0.00  0.00    +0.000 C 
ATOM     24  N   UNL     1       7.642   6.602  18.052  0.00  0.00    +0.000 N 
ATOM     25  C   UNL     1       8.192   6.449  19.291  0.00  0.00    +0.000 A 
ATOM     26  N   UNL     1       8.207   5.172  19.592  0.00  0.00    +0.000 NA
ATOM     27  N   UNL     1       7.686   4.482  18.527  0.00  0.00    +0.000 NA
ATOM     28  C   UNL     1       7.327   5.349  17.596  0.00  0.00    +0.000 A 
ENDBRANCH  20  28
ENDBRANCH  17  20
ENDBRANCH   1  17
TORSDOF 4
ENDMDL
MODEL 3
REMARK VINA RESULT:      -9.2      2.018      2.926
REMARK  Name = 
REMARK  6 active torsions:
REMARK  status: ('A' for Active; 'I' for Inactive)
REMARK    1  A    between atoms: C_1  and  N_2
REMARK    2  A    between atoms: C_6  and  C_7
REMARK    3  A    between atoms: C_7  and  C_10
REMARK    4  A    between atoms: C_10  and  C_11
REMARK    5  A    between atoms: C_10  and  C_13
REMARK    6  A    between atoms: C_17  and  N_18
REMARK                            x       y       z     vdW  Elec       q    Type
REMARK                         _______ _______ _______ _____ _____    ______ ____
ROOT
ATOM      1  C   UNL     1       4.295   5.281  16.950  0.00  0.00    +0.000 A 
ATOM      2  C   UNL     1       3.777   4.092  17.482  0.00  0.00    +0.000 A 
ATOM      3  C   UNL     1       2.884   4.101  18.563  0.00  0.00    +0.000 A 
ATOM      4  C   UNL     1       2.409   5.300  19.100  0.00  0.00    +0.000 A 
ATOM      5  C   UNL     1       2.793   6.501  18.528  0.00  0.00    +0.000 A 
ATOM      6  C   UNL     1       3.779   6.465  17.504  0.00  0.00    +0.000 A 
ENDROOT
BRANCH   5   7
ATOM      7  N   UNL     1       2.193   7.705  18.803  0.00  0.00    +0.000 N 
ATOM      8  C   UNL     1       2.239   9.015  18.113  0.00  0.00    +0.000 C 
ATOM      9  C   UNL     1       1.263   9.801  18.976  0.00  0.00    +0.000 A 
ATOM     10  C   UNL     1       0.558  10.970  18.746  0.00  0.00    +0.000 A 
ATOM     11  C   UNL     1      -0.520  11.271  19.598  0.00  0.00    +0.000 A 
ATOM     12  C   UNL     1      -0.888  10.399  20.638  0.00  0.00    +0.000 A 
ATOM     13  C   UNL     1      -0.103   9.294  20.916  0.00  0.00    +0.000 A 
ATOM     14  F   UNL     1      -0.455   8.423  21.870  0.00  0.00    +0.000 F 
ATOM     15  C   UNL     1       0.991   9.050  20.129  0.00  0.00    +0.000 A 
ATOM     16  C   UNL     1       1.961   7.940  20.231  0.00  0.00    +0.000 C 
ENDBRANCH   5   7
BRANCH   1  17
ATOM     17  C   UNL     1       5.276   5.254  15.754  0.00  0.00    +0.000 C 
ATOM     18  C   UNL     1       5.307   6.590  14.968  0.00  0.00    +0.000 C 
ATOM     19  F   UNL     1       4.839   4.330  14.830  0.00  0.00    +0.000 F 
BRANCH  17  20
ATOM     20  C   UNL     1       6.747   4.920  16.136  0.00  0.00    +0.000 C 
ATOM     21  F   UNL     1       7.582   5.502  15.215  0.00  0.00    +0.000 F 
ATOM     22  F   UNL     1       6.969   3.575  15.980  0.00  0.00    +0.000 F 
BRANCH  20  28
ATOM     23  C   UNL     1       7.571   7.758  17.208  0.00  0.00    +0.000 C 
ATOM     24  N   UNL     1       7.535   6.524  17.960  0.00  0.00    +0.000 N 
ATOM     25  C   UNL     1       7.898   6.407  19.270  0.00  0.00    +0.000 A 
ATOM     26  N   UNL     1       7.754   5.155  19.638  0.00  0.00    +0.000 NA
ATOM     27  N   UNL     1       7.318   4.444  18.548  0.00  0.00    +0.000 NA
ATOM     28  C   UNL     1       7.169   5.276  17.532  0.00  0.00    +0.000 A 
ENDBRANCH  20  28
ENDBRANCH  17  20
ENDBRANCH   1  17
TORSDOF 4
ENDMDL
MODEL 4
REMARK VINA RESULT:      -9.1      1.809      2.973
REMARK  Name = 
REMARK  6 active torsions:
REMARK  status: ('A' for Active; 'I' for Inactive)
REMARK    1  A    between atoms: C_1  and  N_2
REMARK    2  A    between atoms: C_6  and  C_7
REMARK    3  A    between atoms: C_7  and  C_10
REMARK    4  A    between atoms: C_10  and  C_11
REMARK    5  A    between atoms: C_10  and  C_13
REMARK    6  A    between atoms: C_17  and  N_18
REMARK                            x       y       z     vdW  Elec       q    Type
REMARK                         _______ _______ _______ _____ _____    ______ ____
ROOT
ATOM      1  C   UNL     1       4.221   4.675  17.050  0.00  0.00    +0.000 A 
ATOM      2  C   UNL     1       3.311   3.610  17.103  0.00  0.00    +0.000 A 
ATOM      3  C   UNL     1       2.093   3.720  17.791  0.00  0.00    +0.000 A 
ATOM      4  C   UNL     1       1.701   4.924  18.381  0.00  0.00    +0.000 A 
ATOM      5  C   UNL     1       2.508   6.042  18.247  0.00  0.00    +0.000 A 
ATOM      6  C   UNL     1       3.782   5.874  17.637  0.00  0.00    +0.000 A 
ENDROOT
BRANCH   5   7
ATOM      7  N   UNL     1       2.104   7.317  18.555  0.00  0.00    +0.000 N 
ATOM      8  C   UNL     1       2.275   8.608  17.849  0.00  0.00    +0.000 C 
ATOM      9  C   UNL     1       1.491   9.522  18.777  0.00  0.00    +0.000 A 
ATOM     10  C   UNL     1       0.937  10.778  18.590  0.00  0.00    +0.000 A 
ATOM     11  C   UNL     1      -0.017  11.226  19.522  0.00  0.00    +0.000 A 
ATOM     12  C   UNL     1      -0.417  10.414  20.598  0.00  0.00    +0.000 A 
ATOM     13  C   UNL     1       0.228   9.210  20.825  0.00  0.00    +0.000 A 
ATOM     14  F   UNL     1      -0.165   8.397  21.814  0.00  0.00    +0.000 F 
ATOM     15  C   UNL     1       1.210   8.817  19.956  0.00  0.00    +0.000 A 
ATOM     16  C   UNL     1       2.022   7.583  19.994  0.00  0.00    +0.000 C 
ENDBRANCH   5   7
BRANCH   1  17
ATOM     17  C   UNL     1       5.557   4.538  16.283  0.00  0.00    +0.000 C 
ATOM     18  C   UNL     1       5.698   5.563  15.128  0.00  0.00    +0.000 C 
ATOM     19  F   UNL     1       5.596   3.314  15.652  0.00  0.00    +0.000 F 
BRANCH  17  20
ATOM     20  C   UNL     1       6.826   4.682  17.171  0.00  0.00    +0.000 C 
ATOM     21  F   UNL     1       7.838   3.940  16.615  0.00  0.00    +0.000 F 
ATOM     22  F   UNL     1       6.608   4.083  18.386  0.00  0.00    +0.000 F 
BRANCH  20  28
ATOM     23  C   UNL     1       8.246   5.733  19.771  0.00  0.00    +0.000 C 
ATOM     24  N   UNL     1       7.893   6.507  18.603  0.00  0.00    +0.000 N 
ATOM     25  C   UNL     1       8.100   7.850  18.474  0.00  0.00    +0.000 A 
ATOM     26  N   UNL     1       7.658   8.235  17.300  0.00  0.00    +0.000 NA
ATOM     27  N   UNL     1       7.133   7.136  16.667  0.00  0.00    +0.000 NA
ATOM     28  C   UNL     1       7.289   6.083  17.450  0.00  0.00    +0.000 A 
ENDBRANCH  20  28
ENDBRANCH  17  20
ENDBRANCH   1  17
TORSDOF 4
ENDMDL
MODEL 5
REMARK VINA RESULT:      -8.6      2.386      3.358
REMARK  Name = 
REMARK  6 active torsions:
REMARK  status: ('A' for Active; 'I' for Inactive)
REMARK    1  A    between atoms: C_1  and  N_2
REMARK    2  A    between atoms: C_6  and  C_7
REMARK    3  A    between atoms: C_7  and  C_10
REMARK    4  A    between atoms: C_10  and  C_11
REMARK    5  A    between atoms: C_10  and  C_13
REMARK    6  A    between atoms: C_17  and  N_18
REMARK                            x       y       z     vdW  Elec       q    Type
REMARK                         _______ _______ _______ _____ _____    ______ ____
ROOT
ATOM      1  C   UNL     1       2.846   5.280  18.814  0.00  0.00    +0.000 A 
ATOM      2  C   UNL     1       2.267   4.281  19.608  0.00  0.00    +0.000 A 
ATOM      3  C   UNL     1       1.524   4.596  20.755  0.00  0.00    +0.000 A 
ATOM      4  C   UNL     1       1.262   5.922  21.106  0.00  0.00    +0.000 A 
ATOM      5  C   UNL     1       1.705   6.944  20.284  0.00  0.00    +0.000 A 
ATOM      6  C   UNL     1       2.544   6.600  19.187  0.00  0.00    +0.000 A 
ENDROOT
BRANCH   5   7
ATOM      7  N   UNL     1       1.287   8.247  20.390  0.00  0.00    +0.000 N 
ATOM      8  C   UNL     1       1.309   9.376  19.432  0.00  0.00    +0.000 C 
ATOM      9  C   UNL     1       0.608  10.441  20.262  0.00  0.00    +0.000 A 
ATOM     10  C   UNL     1      -0.021  11.624  19.911  0.00  0.00    +0.000 A 
ATOM     11  C   UNL     1      -0.868  12.229  20.858  0.00  0.00    +0.000 A 
ATOM     12  C   UNL     1      -1.092  11.638  22.114  0.00  0.00    +0.000 A 
ATOM     13  C   UNL     1      -0.370  10.515  22.481  0.00  0.00    +0.000 A 
ATOM     14  F   UNL     1      -0.597   9.906  23.652  0.00  0.00    +0.000 F 
ATOM     15  C   UNL     1       0.511   9.977  21.582  0.00  0.00    +0.000 A 
ATOM     16  C   UNL     1       1.376   8.791  21.749  0.00  0.00    +0.000 C 
ENDBRANCH   5   7
BRANCH   1  17
ATOM     17  C   UNL     1       3.658   4.915  17.548  0.00  0.00    +0.000 C 
ATOM     18  C   UNL     1       4.185   6.159  16.789  0.00  0.00    +0.000 C 
ATOM     19  F   UNL     1       2.829   4.293  16.640  0.00  0.00    +0.000 F 
BRANCH  17  20
ATOM     20  C   UNL     1       4.885   3.995  17.814  0.00  0.00    +0.000 C 
ATOM     21  F   UNL     1       5.252   3.400  16.633  0.00  0.00    +0.000 F 
ATOM     22  F   UNL     1       4.508   2.943  18.611  0.00  0.00    +0.000 F 
BRANCH  20  28
ATOM     23  C   UNL     1       7.593   4.830  16.455  0.00  0.00    +0.000 C 
ATOM     24  N   UNL     1       7.241   4.979  17.848  0.00  0.00    +0.000 N 
ATOM     25  C   UNL     1       8.072   5.485  18.806  0.00  0.00    +0.000 A 
ATOM     26  N   UNL     1       7.446   5.472  19.959  0.00  0.00    +0.000 NA
ATOM     27  N   UNL     1       6.203   4.926  19.756  0.00  0.00    +0.000 NA
ATOM     28  C   UNL     1       6.070   4.641  18.472  0.00  0.00    +0.000 A 
ENDBRANCH  20  28
ENDBRANCH  17  20
ENDBRANCH   1  17
TORSDOF 4
ENDMDL
MODEL 6
REMARK VINA RESULT:      -8.5      2.456      3.329
REMARK  Name = 
REMARK  6 active torsions:
REMARK  status: ('A' for Active; 'I' for Inactive)
REMARK    1  A    between atoms: C_1  and  N_2
REMARK    2  A    between atoms: C_6  and  C_7
REMARK    3  A    between atoms: C_7  and  C_10
REMARK    4  A    between atoms: C_10  and  C_11
REMARK    5  A    between atoms: C_10  and  C_13
REMARK    6  A    between atoms: C_17  and  N_18
REMARK                            x       y       z     vdW  Elec       q    Type
REMARK                         _______ _______ _______ _____ _____    ______ ____
ROOT
ATOM      1  C   UNL     1       3.180   4.577  18.966  0.00  0.00    +0.000 A 
ATOM      2  C   UNL     1       2.577   3.759  19.931  0.00  0.00    +0.000 A 
ATOM      3  C   UNL     1       1.812   4.300  20.976  0.00  0.00    +0.000 A 
ATOM      4  C   UNL     1       1.552   5.670  21.048  0.00  0.00    +0.000 A 
ATOM      5  C   UNL     1       2.019   6.506  20.048  0.00  0.00    +0.000 A 
ATOM      6  C   UNL     1       2.878   5.946  19.061  0.00  0.00    +0.000 A 
ENDROOT
BRANCH   5   7
ATOM      7  N   UNL     1       1.608   7.804  19.881  0.00  0.00    +0.000 N 
ATOM      8  C   UNL     1       1.812   8.776  18.782  0.00  0.00    +0.000 C 
ATOM      9  C   UNL     1       0.993   9.945  19.307  0.00  0.00    +0.000 A 
ATOM     10  C   UNL     1       0.452  11.054  18.678  0.00  0.00    +0.000 A 
ATOM     11  C   UNL     1      -0.539  11.784  19.361  0.00  0.00    +0.000 A 
ATOM     12  C   UNL     1      -0.986  11.387  20.633  0.00  0.00    +0.000 A 
ATOM     13  C   UNL     1      -0.355  10.341  21.286  0.00  0.00    +0.000 A 
ATOM     14  F   UNL     1      -0.791   9.913  22.477  0.00  0.00    +0.000 F 
ATOM     15  C   UNL     1       0.661   9.684  20.645  0.00  0.00    +0.000 A 
ATOM     16  C   UNL     1       1.467   8.548  21.137  0.00  0.00    +0.000 C 
ENDBRANCH   5   7
BRANCH   1  17
ATOM     17  C   UNL     1       4.015   3.964  17.817  0.00  0.00    +0.000 C 
ATOM     18  C   UNL     1       3.157   3.577  16.586  0.00  0.00    +0.000 C 
ATOM     19  F   UNL     1       4.559   2.770  18.237  0.00  0.00    +0.000 F 
BRANCH  17  20
ATOM     20  C   UNL     1       5.163   4.879  17.298  0.00  0.00    +0.000 C 
ATOM     21  F   UNL     1       4.609   5.998  16.729  0.00  0.00    +0.000 F 
ATOM     22  F   UNL     1       5.807   4.262  16.255  0.00  0.00    +0.000 F 
BRANCH  20  28
ATOM     23  C   UNL     1       7.403   7.059  16.966  0.00  0.00    +0.000 C 
ATOM     24  N   UNL     1       7.185   6.208  18.114  0.00  0.00    +0.000 N 
ATOM     25  C   UNL     1       7.965   6.206  19.234  0.00  0.00    +0.000 A 
ATOM     26  N   UNL     1       7.496   5.313  20.073  0.00  0.00    +0.000 NA
ATOM     27  N   UNL     1       6.415   4.707  19.483  0.00  0.00    +0.000 NA
ATOM     28  C   UNL     1       6.214   5.260  18.300  0.00  0.00    +0.000 A 
ENDBRANCH  20  28
ENDBRANCH  17  20
ENDBRANCH   1  17
TORSDOF 4
ENDMDL
MODEL 7
REMARK VINA RESULT:      -8.5      2.471      3.859
REMARK  Name = 
REMARK  6 active torsions:
REMARK  status: ('A' for Active; 'I' for Inactive)
REMARK    1  A    between atoms: C_1  and  N_2
REMARK    2  A    between atoms: C_6  and  C_7
REMARK    3  A    between atoms: C_7  and  C_10
REMARK    4  A    between atoms: C_10  and  C_11
REMARK    5  A    between atoms: C_10  and  C_13
REMARK    6  A    between atoms: C_17  and  N_18
REMARK                            x       y       z     vdW  Elec       q    Type
REMARK                         _______ _______ _______ _____ _____    ______ ____
ROOT
ATOM      1  C   UNL     1       2.829   6.164  18.809  0.00  0.00    +0.000 A 
ATOM      2  C   UNL     1       3.593   6.817  17.833  0.00  0.00    +0.000 A 
ATOM      3  C   UNL     1       3.334   8.147  17.467  0.00  0.00    +0.000 A 
ATOM      4  C   UNL     1       2.356   8.899  18.122  0.00  0.00    +0.000 A 
ATOM      5  C   UNL     1       1.660   8.339  19.179  0.00  0.00    +0.000 A 
ATOM      6  C   UNL     1       1.870   6.959  19.458  0.00  0.00    +0.000 A 
ENDROOT
BRANCH   5   7
ATOM      7  N   UNL     1       0.878   9.059  20.048  0.00  0.00    +0.000 N 
ATOM      8  C   UNL     1       0.323   8.736  21.383  0.00  0.00    +0.000 C 
ATOM      9  C   UNL     1      -0.354  10.057  21.714  0.00  0.00    +0.000 A 
ATOM     10  C   UNL     1      -0.777  10.606  22.913  0.00  0.00    +0.000 A 
ATOM     11  C   UNL     1      -1.061  11.984  22.946  0.00  0.00    +0.000 A 
ATOM     12  C   UNL     1      -0.896  12.787  21.804  0.00  0.00    +0.000 A 
ATOM     13  C   UNL     1      -0.576  12.197  20.592  0.00  0.00    +0.000 A 
ATOM     14  F   UNL     1      -0.368  12.943  19.500  0.00  0.00    +0.000 F 
ATOM     15  C   UNL     1      -0.377  10.843  20.552  0.00  0.00    +0.000 A 
ATOM     16  C   UNL     1      -0.026  10.006  19.387  0.00  0.00    +0.000 C 
ENDBRANCH   5   7
BRANCH   1  17
ATOM     17  C   UNL     1       3.133   4.699  19.204  0.00  0.00    +0.000 C 
ATOM     18  C   UNL     1       1.852   3.848  19.398  0.00  0.00    +0.000 C 
ATOM     19  F   UNL     1       3.741   4.678  20.439  0.00  0.00    +0.000 F 
BRANCH  17  20
ATOM     20  C   UNL     1       4.034   3.934  18.191  0.00  0.00    +0.000 C 
ATOM     21  F   UNL     1       3.483   4.049  16.939  0.00  0.00    +0.000 F 
ATOM     22  F   UNL     1       3.980   2.588  18.453  0.00  0.00    +0.000 F 
BRANCH  20  28
ATOM     23  C   UNL     1       5.960   3.940  15.707  0.00  0.00    +0.000 C 
ATOM     24  N   UNL     1       6.298   4.296  17.067  0.00  0.00    +0.000 N 
ATOM     25  C   UNL     1       7.545   4.661  17.483  0.00  0.00    +0.000 A 
ATOM     26  N   UNL     1       7.505   4.908  18.771  0.00  0.00    +0.000 NA
ATOM     27  N   UNL     1       6.224   4.675  19.205  0.00  0.00    +0.000 NA
ATOM     28  C   UNL     1       5.485   4.319  18.169  0.00  0.00    +0.000 A 
ENDBRANCH  20  28
ENDBRANCH  17  20
ENDBRANCH   1  17
TORSDOF 4
ENDMDL
MODEL 8
REMARK VINA RESULT:      -8.5      2.583      3.933
REMARK  Name = 
REMARK  6 active torsions:
REMARK  status: ('A' for Active; 'I' for Inactive)
REMARK    1  A    between atoms: C_1  and  N_2
REMARK    2  A    between atoms: C_6  and  C_7
REMARK    3  A    between atoms: C_7  and  C_10
REMARK    4  A    between atoms: C_10  and  C_11
REMARK    5  A    between atoms: C_10  and  C_13
REMARK    6  A    between atoms: C_17  and  N_18
REMARK                            x       y       z     vdW  Elec       q    Type
REMARK                         _______ _______ _______ _____ _____    ______ ____
ROOT
ATOM      1  C   UNL     1       2.613   6.179  19.016  0.00  0.00    +0.000 A 
ATOM      2  C   UNL     1       3.340   6.540  17.874  0.00  0.00    +0.000 A 
ATOM      3  C   UNL     1       3.210   7.811  17.294  0.00  0.00    +0.000 A 
ATOM      4  C   UNL     1       2.414   8.797  17.881  0.00  0.00    +0.000 A 
ATOM      5  C   UNL     1       1.775   8.531  19.080  0.00  0.00    +0.000 A 
ATOM      6  C   UNL     1       1.839   7.203  19.588  0.00  0.00    +0.000 A 
ENDROOT
BRANCH   5   7
ATOM      7  N   UNL     1       1.191   9.493  19.865  0.00  0.00    +0.000 N 
ATOM      8  C   UNL     1       0.925  10.932  19.636  0.00  0.00    +0.000 C 
ATOM      9  C   UNL     1       0.192  11.274  20.924  0.00  0.00    +0.000 A 
ATOM     10  C   UNL     1      -0.640  12.326  21.266  0.00  0.00    +0.000 A 
ATOM     11  C   UNL     1      -1.435  12.194  22.419  0.00  0.00    +0.000 A 
ATOM     12  C   UNL     1      -1.406  11.019  23.190  0.00  0.00    +0.000 A 
ATOM     13  C   UNL     1      -0.489  10.026  22.891  0.00  0.00    +0.000 A 
ATOM     14  F   UNL     1      -0.471   8.878  23.580  0.00  0.00    +0.000 F 
ATOM     15  C   UNL     1       0.336  10.196  21.812  0.00  0.00    +0.000 A 
ATOM     16  C   UNL     1       1.377   9.279  21.303  0.00  0.00    +0.000 C 
ENDBRANCH   5   7
BRANCH   1  17
ATOM     17  C   UNL     1       2.771   4.775  19.646  0.00  0.00    +0.000 C 
ATOM     18  C   UNL     1       1.436   3.990  19.715  0.00  0.00    +0.000 C 
ATOM     19  F   UNL     1       3.151   4.908  20.963  0.00  0.00    +0.000 F 
BRANCH  17  20
ATOM     20  C   UNL     1       3.798   3.858  18.921  0.00  0.00    +0.000 C 
ATOM     21  F   UNL     1       3.292   3.518  17.691  0.00  0.00    +0.000 F 
ATOM     22  F   UNL     1       3.891   2.658  19.582  0.00  0.00    +0.000 F 
BRANCH  20  28
ATOM     23  C   UNL     1       5.581   3.901  16.333  0.00  0.00    +0.000 C 
ATOM     24  N   UNL     1       5.946   4.385  17.645  0.00  0.00    +0.000 N 
ATOM     25  C   UNL     1       7.165   4.911  17.964  0.00  0.00    +0.000 A 
ATOM     26  N   UNL     1       7.163   5.241  19.234  0.00  0.00    +0.000 NA
ATOM     27  N   UNL     1       5.940   4.901  19.756  0.00  0.00    +0.000 NA
ATOM     28  C   UNL     1       5.194   4.395  18.789  0.00  0.00    +0.000 A 
ENDBRANCH  20  28
ENDBRANCH  17  20
ENDBRANCH   1  17
TORSDOF 4
ENDMDL
MODEL 9
REMARK VINA RESULT:      -8.3      2.106      2.989
REMARK  Name = 
REMARK  6 active torsions:
REMARK  status: ('A' for Active; 'I' for Inactive)
REMARK    1  A    between atoms: C_1  and  N_2
REMARK    2  A    between atoms: C_6  and  C_7
REMARK    3  A    between atoms: C_7  and  C_10
REMARK    4  A    between atoms: C_10  and  C_11
REMARK    5  A    between atoms: C_10  and  C_13
REMARK    6  A    between atoms: C_17  and  N_18
REMARK                            x       y       z     vdW  Elec       q    Type
REMARK                         _______ _______ _______ _____ _____    ______ ____
ROOT
ATOM      1  C   UNL     1       3.871   5.197  17.978  0.00  0.00    +0.000 A 
ATOM      2  C   UNL     1       3.328   4.126  18.701  0.00  0.00    +0.000 A 
ATOM      3  C   UNL     1       2.440   4.337  19.767  0.00  0.00    +0.000 A 
ATOM      4  C   UNL     1       1.996   5.620  20.096  0.00  0.00    +0.000 A 
ATOM      5  C   UNL     1       2.404   6.699  19.330  0.00  0.00    +0.000 A 
ATOM      6  C   UNL     1       3.385   6.469  18.325  0.00  0.00    +0.000 A 
ENDROOT
BRANCH   5   7
ATOM      7  N   UNL     1       1.834   7.945  19.400  0.00  0.00    +0.000 N 
ATOM      8  C   UNL     1       1.822   9.084  18.452  0.00  0.00    +0.000 C 
ATOM      9  C   UNL     1       0.928  10.051  19.213  0.00  0.00    +0.000 A 
ATOM     10  C   UNL     1       0.208  11.162  18.807  0.00  0.00    +0.000 A 
ATOM     11  C   UNL     1      -0.791  11.654  19.667  0.00  0.00    +0.000 A 
ATOM     12  C   UNL     1      -1.069  11.023  20.893  0.00  0.00    +0.000 A 
ATOM     13  C   UNL     1      -0.264   9.982  21.326  0.00  0.00    +0.000 A 
ATOM     14  F   UNL     1      -0.534   9.334  22.465  0.00  0.00    +0.000 F 
ATOM     15  C   UNL     1       0.755   9.559  20.516  0.00  0.00    +0.000 A 
ATOM     16  C   UNL     1       1.728   8.474  20.763  0.00  0.00    +0.000 C 
ENDBRANCH   5   7
BRANCH   1  17
ATOM     17  C   UNL     1       4.844   4.946  16.802  0.00  0.00    +0.000 C 
ATOM     18  C   UNL     1       4.774   6.048  15.714  0.00  0.00    +0.000 C 
ATOM     19  F   UNL     1       4.472   3.797  16.140  0.00  0.00    +0.000 F 
BRANCH  17  20
ATOM     20  C   UNL     1       6.338   4.820  17.220  0.00  0.00    +0.000 C 
ATOM     21  F   UNL     1       6.996   4.071  16.276  0.00  0.00    +0.000 F 
ATOM     22  F   UNL     1       6.434   4.068  18.364  0.00  0.00    +0.000 F 
BRANCH  20  28
ATOM     23  C   UNL     1       7.990   5.587  19.782  0.00  0.00    +0.000 C 
ATOM     24  N   UNL     1       7.768   6.410  18.616  0.00  0.00    +0.000 N 
ATOM     25  C   UNL     1       8.227   7.688  18.473  0.00  0.00    +0.000 A 
ATOM     26  N   UNL     1       7.842   8.146  17.305  0.00  0.00    +0.000 NA
ATOM     27  N   UNL     1       7.101   7.167  16.691  0.00  0.00    +0.000 NA
ATOM     28  C   UNL     1       7.068   6.106  17.478  0.00  0.00    +0.000 A 
ENDBRANCH  20  28
ENDBRANCH  17  20
ENDBRANCH   1  17
TORSDOF 4
ENDMDL
