MODEL 1
REMARK VINA RESULT:      -8.3      0.000      0.000
REMARK  Name = 
REMARK  8 active torsions:
REMARK  status: ('A' for Active; 'I' for Inactive)
REMARK    1  A    between atoms: C_1  and  N_2
REMARK    2  A    between atoms: C_6  and  C_7
REMARK    3  A    between atoms: C_7  and  C_8
REMARK    4  A    between atoms: C_8  and  C_9
REMARK    5  A    between atoms: C_13  and  N_14
REMARK    6  A    between atoms: C_17  and  C_18
REMARK    7  A    between atoms: N_20  and  C_21
REMARK    8  A    between atoms: C_21  and  C_22
REMARK                            x       y       z     vdW  Elec       q    Type
REMARK                         _______ _______ _______ _____ _____    ______ ____
ROOT
ATOM      1  C   UNL     1       2.534   7.319  18.647  0.00  0.00    +0.000 A 
ATOM      2  C   UNL     1       2.787   8.264  17.639  0.00  0.00    +0.000 A 
ATOM      3  C   UNL     1       2.203   9.526  17.663  0.00  0.00    +0.000 A 
ATOM      4  C   UNL     1       1.368   9.890  18.721  0.00  0.00    +0.000 A 
ATOM      5  C   UNL     1       1.128   9.028  19.796  0.00  0.00    +0.000 A 
ATOM      6  C   UNL     1       1.704   7.746  19.709  0.00  0.00    +0.000 A 
ENDROOT
BRANCH   5   7
ATOM      7  N   UNL     1       0.364   9.398  20.884  0.00  0.00    +0.000 N 
ATOM      8  C   UNL     1       0.633   8.879  22.225  0.00  0.00    +0.000 C 
ATOM      9  C   UNL     1      -0.146   9.802  23.102  0.00  0.00    +0.000 C 
ATOM     10  C   UNL     1      -0.748  10.759  22.383  0.00  0.00    +0.000 C 
ATOM     11  C   UNL     1      -0.462  10.610  20.923  0.00  0.00    +0.000 C 
BRANCH  10  12
ATOM     12  C   UNL     1      -1.599  11.891  22.803  0.00  0.00    +0.000 C 
ATOM     13  O   UNL     1      -1.208  12.656  23.675  0.00  0.00    +0.000 OA
ATOM     14  N   UNL     1      -2.808  12.005  22.162  0.00  0.00    +0.000 N 
ATOM     15  H   UNL     1      -3.053  11.319  21.460  0.00  0.00    +0.000 HD
BRANCH  14  16
ATOM     16  C   UNL     1      -3.741  13.105  22.393  0.00  0.00    +0.000 C 
ATOM     17  C   UNL     1      -3.106  14.454  22.014  0.00  0.00    +0.000 C 
ATOM     18  C   UNL     1      -5.043  12.891  21.599  0.00  0.00    +0.000 C 
ATOM     19  C   UNL     1      -6.094  13.734  22.319  0.00  0.00    +0.000 C 
ATOM     20  C   UNL     1      -5.588  13.903  23.753  0.00  0.00    +0.000 C 
ATOM     21  C   UNL     1      -4.288  13.106  23.830  0.00  0.00    +0.000 C 
ENDBRANCH  14  16
ENDBRANCH  10  12
ENDBRANCH   5   7
BRANCH   1  22
ATOM     22  C   UNL     1       3.140   5.831  18.591  0.00  0.00    +0.000 C 
ATOM     23  C   UNL     1       4.071   5.463  17.399  0.00  0.00    +0.000 C 
ATOM     24  O   UNL     1       5.193   5.207  18.269  0.00  0.00    +0.000 OA
ATOM     25  C   UNL     1       4.438   5.613  19.425  0.00  0.00    +0.000 C 
BRANCH  22  26
ATOM     26  C   UNL     1       2.066   4.783  18.930  0.00  0.00    +0.000 C 
BRANCH  26  32
ATOM     27  C   UNL     1       3.560   1.973  19.057  0.00  0.00    +0.000 C 
ATOM     28  N   UNL     1       2.965   2.703  20.146  0.00  0.00    +0.000 N 
ATOM     29  C   UNL     1       2.878   2.257  21.429  0.00  0.00    +0.000 A 
ATOM     30  N   UNL     1       2.292   3.162  22.173  0.00  0.00    +0.000 NA
ATOM     31  N   UNL     1       1.965   4.218  21.359  0.00  0.00    +0.000 NA
ATOM     32  C   UNL     1       2.353   3.935  20.127  0.00  0.00    +0.000 A 
ENDBRANCH  26  32
ENDBRANCH  22  26
ENDBRANCH   1  22
TORSDOF 6
ENDMDL
MODEL 2
REMARK VINA RESULT:      -8.2      0.855      1.024
REMARK  Name = 
REMARK  8 active torsions:
REMARK  status: ('A' for Active; 'I' for Inactive)
REMARK    1  A    between atoms: C_1  and  N_2
REMARK    2  A    between atoms: C_6  and  C_7
REMARK    3  A    between atoms: C_7  and  C_8
REMARK    4  A    between atoms: C_8  and  C_9
REMARK    5  A    between atoms: C_13  and  N_14
REMARK    6  A    between atoms: C_17  and  C_18
REMARK    7  A    between atoms: N_20  and  C_21
REMARK    8  A    between atoms: C_21  and  C_22
REMARK                            x       y       z     vdW  Elec       q    Type
REMARK                         _______ _______ _______ _____ _____    ______ ____
ROOT
ATOM      1  C   UNL     1       2.519   7.401  18.935  0.00  0.00    +0.000 A 
ATOM      2  C   UNL     1       2.705   8.266  17.844  0.00  0.00    +0.000 A 
ATOM      3  C   UNL     1       2.048   9.489  17.765  0.00  0.00    +0.000 A 
ATOM      4  C   UNL     1       1.203   9.897  18.799  0.00  0.00    +0.000 A 
ATOM      5  C   UNL     1       1.025   9.121  19.950  0.00  0.00    +0.000 A 
ATOM      6  C   UNL     1       1.676   7.872  19.968  0.00  0.00    +0.000 A 
ENDROOT
BRANCH   5   7
ATOM      7  N   UNL     1       0.251   9.541  21.012  0.00  0.00    +0.000 N 
ATOM      8  C   UNL     1       0.469   9.039  22.368  0.00  0.00    +0.000 C 
ATOM      9  C   UNL     1      -0.294  10.008  23.209  0.00  0.00    +0.000 C 
ATOM     10  C   UNL     1      -0.842  10.973  22.459  0.00  0.00    +0.000 C 
ATOM     11  C   UNL     1      -0.528  10.785  21.009  0.00  0.00    +0.000 C 
BRANCH  10  12
ATOM     12  C   UNL     1      -1.658  12.145  22.837  0.00  0.00    +0.000 C 
ATOM     13  O   UNL     1      -1.218  12.960  23.638  0.00  0.00    +0.000 OA
ATOM     14  N   UNL     1      -2.892  12.236  22.242  0.00  0.00    +0.000 N 
ATOM     15  H   UNL     1      -3.177  11.509  21.599  0.00  0.00    +0.000 HD
BRANCH  14  16
ATOM     16  C   UNL     1      -3.799  13.365  22.438  0.00  0.00    +0.000 C 
ATOM     17  C   UNL     1      -3.137  14.684  22.000  0.00  0.00    +0.000 C 
ATOM     18  C   UNL     1      -5.112  13.149  21.664  0.00  0.00    +0.000 C 
ATOM     19  C   UNL     1      -6.138  14.043  22.360  0.00  0.00    +0.000 C 
ATOM     20  C   UNL     1      -5.614  14.256  23.782  0.00  0.00    +0.000 C 
ATOM     21  C   UNL     1      -4.332  13.434  23.878  0.00  0.00    +0.000 C 
ENDBRANCH  14  16
ENDBRANCH  10  12
ENDBRANCH   5   7
BRANCH   1  22
ATOM     22  C   UNL     1       3.211   5.953  19.001  0.00  0.00    +0.000 C 
ATOM     23  C   UNL     1       3.425   5.180  17.668  0.00  0.00    +0.000 C 
ATOM     24  O   UNL     1       4.860   5.174  17.825  0.00  0.00    +0.000 OA
ATOM     25  C   UNL     1       4.770   5.963  19.025  0.00  0.00    +0.000 C 
BRANCH  22  26
ATOM     26  C   UNL     1       2.635   5.116  20.157  0.00  0.00    +0.000 C 
BRANCH  26  32
ATOM     27  C   UNL     1       4.066   2.286  19.857  0.00  0.00    +0.000 C 
ATOM     28  N   UNL     1       2.686   2.606  19.600  0.00  0.00    +0.000 N 
ATOM     29  C   UNL     1       1.764   1.738  19.101  0.00  0.00    +0.000 A 
ATOM     30  N   UNL     1       0.604   2.337  18.996  0.00  0.00    +0.000 NA
ATOM     31  N   UNL     1       0.768   3.634  19.416  0.00  0.00    +0.000 NA
ATOM     32  C   UNL     1       2.033   3.806  19.762  0.00  0.00    +0.000 A 
ENDBRANCH  26  32
ENDBRANCH  22  26
ENDBRANCH   1  22
TORSDOF 6
ENDMDL
MODEL 3
REMARK VINA RESULT:      -8.1      2.168      2.894
REMARK  Name = 
REMARK  8 active torsions:
REMARK  status: ('A' for Active; 'I' for Inactive)
REMARK    1  A    between atoms: C_1  and  N_2
REMARK    2  A    between atoms: C_6  and  C_7
REMARK    3  A    between atoms: C_7  and  C_8
REMARK    4  A    between atoms: C_8  and  C_9
REMARK    5  A    between atoms: C_13  and  N_14
REMARK    6  A    between atoms: C_17  and  C_18
REMARK    7  A    between atoms: N_20  and  C_21
REMARK    8  A    between atoms: C_21  and  C_22
REMARK                            x       y       z     vdW  Elec       q    Type
REMARK                         _______ _______ _______ _____ _____    ______ ____
ROOT
ATOM      1  C   UNL     1       2.930   5.923  18.737  0.00  0.00    +0.000 A 
ATOM      2  C   UNL     1       3.417   6.674  17.655  0.00  0.00    +0.000 A 
ATOM      3  C   UNL     1       3.086   8.015  17.493  0.00  0.00    +0.000 A 
ATOM      4  C   UNL     1       2.277   8.653  18.434  0.00  0.00    +0.000 A 
ATOM      5  C   UNL     1       1.814   7.989  19.575  0.00  0.00    +0.000 A 
ATOM      6  C   UNL     1       2.138   6.622  19.676  0.00  0.00    +0.000 A 
ENDROOT
BRANCH   5   7
ATOM      7  N   UNL     1       1.074   8.623  20.551  0.00  0.00    +0.000 N 
ATOM      8  C   UNL     1       1.395   8.487  21.971  0.00  0.00    +0.000 C 
ATOM      9  C   UNL     1       0.620   9.599  22.597  0.00  0.00    +0.000 C 
ATOM     10  C   UNL     1      -0.028  10.318  21.671  0.00  0.00    +0.000 C 
ATOM     11  C   UNL     1       0.219   9.789  20.295  0.00  0.00    +0.000 C 
BRANCH  10  12
ATOM     12  C   UNL     1      -0.895  11.507  21.803  0.00  0.00    +0.000 C 
ATOM     13  O   UNL     1      -0.815  12.413  20.983  0.00  0.00    +0.000 OA
ATOM     14  N   UNL     1      -1.754  11.509  22.874  0.00  0.00    +0.000 N 
ATOM     15  H   UNL     1      -1.744  10.721  23.508  0.00  0.00    +0.000 HD
BRANCH  14  16
ATOM     16  C   UNL     1      -2.735  12.564  23.116  0.00  0.00    +0.000 C 
ATOM     17  C   UNL     1      -2.040  13.902  23.426  0.00  0.00    +0.000 C 
ATOM     18  C   UNL     1      -3.674  12.723  21.906  0.00  0.00    +0.000 C 
ATOM     19  C   UNL     1      -4.930  13.394  22.459  0.00  0.00    +0.000 C 
ATOM     20  C   UNL     1      -4.958  13.067  23.953  0.00  0.00    +0.000 C 
ATOM     21  C   UNL     1      -3.748  12.172  24.204  0.00  0.00    +0.000 C 
ENDBRANCH  14  16
ENDBRANCH  10  12
ENDBRANCH   5   7
BRANCH   1  22
ATOM     22  C   UNL     1       3.243   4.354  18.894  0.00  0.00    +0.000 C 
ATOM     23  C   UNL     1       3.090   3.713  20.304  0.00  0.00    +0.000 C 
ATOM     24  O   UNL     1       2.053   2.816  19.856  0.00  0.00    +0.000 OA
ATOM     25  C   UNL     1       2.059   3.404  18.542  0.00  0.00    +0.000 C 
BRANCH  22  26
ATOM     26  C   UNL     1       4.524   3.967  18.135  0.00  0.00    +0.000 C 
BRANCH  26  32
ATOM     27  C   UNL     1       6.961   5.002  16.364  0.00  0.00    +0.000 C 
ATOM     28  N   UNL     1       6.827   5.061  17.797  0.00  0.00    +0.000 N 
ATOM     29  C   UNL     1       7.783   5.514  18.652  0.00  0.00    +0.000 A 
ATOM     30  N   UNL     1       7.344   5.445  19.884  0.00  0.00    +0.000 NA
ATOM     31  N   UNL     1       6.078   4.915  19.842  0.00  0.00    +0.000 NA
ATOM     32  C   UNL     1       5.769   4.662  18.581  0.00  0.00    +0.000 A 
ENDBRANCH  26  32
ENDBRANCH  22  26
ENDBRANCH   1  22
TORSDOF 6
ENDMDL
MODEL 4
REMARK VINA RESULT:      -8.1      1.227      1.889
REMARK  Name = 
REMARK  8 active torsions:
REMARK  status: ('A' for Active; 'I' for Inactive)
REMARK    1  A    between atoms: C_1  and  N_2
REMARK    2  A    between atoms: C_6  and  C_7
REMARK    3  A    between atoms: C_7  and  C_8
REMARK    4  A    between atoms: C_8  and  C_9
REMARK    5  A    between atoms: C_13  and  N_14
REMARK    6  A    between atoms: C_17  and  C_18
REMARK    7  A    between atoms: N_20  and  C_21
REMARK    8  A    between atoms: C_21  and  C_22
REMARK                            x       y       z     vdW  Elec       q    Type
REMARK                         _______ _______ _______ _____ _____    ______ ____
ROOT
ATOM      1  C   UNL     1       2.526   7.375  18.639  0.00  0.00    +0.000 A 
ATOM      2  C   UNL     1       2.744   8.325  17.628  0.00  0.00    +0.000 A 
ATOM      3  C   UNL     1       2.145   9.579  17.668  0.00  0.00    +0.000 A 
ATOM      4  C   UNL     1       1.331   9.931  18.745  0.00  0.00    +0.000 A 
ATOM      5  C   UNL     1       1.126   9.064  19.824  0.00  0.00    +0.000 A 
ATOM      6  C   UNL     1       1.716   7.790  19.721  0.00  0.00    +0.000 A 
ENDROOT
BRANCH   5   7
ATOM      7  N   UNL     1       0.383   9.422  20.930  0.00  0.00    +0.000 N 
ATOM      8  C   UNL     1       0.668   8.878  22.257  0.00  0.00    +0.000 C 
ATOM      9  C   UNL     1      -0.088   9.793  23.162  0.00  0.00    +0.000 C 
ATOM     10  C   UNL     1      -0.693  10.767  22.469  0.00  0.00    +0.000 C 
ATOM     11  C   UNL     1      -0.431  10.641  21.003  0.00  0.00    +0.000 C 
BRANCH  10  12
ATOM     12  C   UNL     1      -1.527  11.900  22.922  0.00  0.00    +0.000 C 
ATOM     13  O   UNL     1      -2.537  11.688  23.580  0.00  0.00    +0.000 OA
ATOM     14  N   UNL     1      -1.092  13.150  22.556  0.00  0.00    +0.000 N 
ATOM     15  H   UNL     1      -0.249  13.230  22.002  0.00  0.00    +0.000 HD
BRANCH  14  16
ATOM     16  C   UNL     1      -1.746  14.386  22.981  0.00  0.00    +0.000 C 
ATOM     17  C   UNL     1      -3.226  14.397  22.560  0.00  0.00    +0.000 C 
ATOM     18  C   UNL     1      -1.627  14.569  24.505  0.00  0.00    +0.000 C 
ATOM     19  C   UNL     1      -1.817  16.067  24.743  0.00  0.00    +0.000 C 
ATOM     20  C   UNL     1      -1.441  16.753  23.428  0.00  0.00    +0.000 C 
ATOM     21  C   UNL     1      -0.995  15.634  22.491  0.00  0.00    +0.000 C 
ENDBRANCH  14  16
ENDBRANCH  10  12
ENDBRANCH   5   7
BRANCH   1  22
ATOM     22  C   UNL     1       3.150   5.895  18.566  0.00  0.00    +0.000 C 
ATOM     23  C   UNL     1       4.115   5.563  17.390  0.00  0.00    +0.000 C 
ATOM     24  O   UNL     1       5.217   5.299  18.283  0.00  0.00    +0.000 OA
ATOM     25  C   UNL     1       4.428   5.671  19.428  0.00  0.00    +0.000 C 
BRANCH  22  26
ATOM     26  C   UNL     1       2.079   4.829  18.854  0.00  0.00    +0.000 C 
BRANCH  26  32
ATOM     27  C   UNL     1       3.603   2.039  19.058  0.00  0.00    +0.000 C 
ATOM     28  N   UNL     1       2.948   2.763  20.116  0.00  0.00    +0.000 N 
ATOM     29  C   UNL     1       2.808   2.319  21.394  0.00  0.00    +0.000 A 
ATOM     30  N   UNL     1       2.176   3.217  22.108  0.00  0.00    +0.000 NA
ATOM     31  N   UNL     1       1.874   4.268  21.278  0.00  0.00    +0.000 NA
ATOM     32  C   UNL     1       2.321   3.987  20.065  0.00  0.00    +0.000 A 
ENDBRANCH  26  32
ENDBRANCH  22  26
ENDBRANCH   1  22
TORSDOF 6
ENDMDL
MODEL 5
REMARK VINA RESULT:      -8.1      1.244      1.696
REMARK  Name = 
REMARK  8 active torsions:
REMARK  status: ('A' for Active; 'I' for Inactive)
REMARK    1  A    between atoms: C_1  and  N_2
REMARK    2  A    between atoms: C_6  and  C_7
REMARK    3  A    between atoms: C_7  and  C_8
REMARK    4  A    between atoms: C_8  and  C_9
REMARK    5  A    between atoms: C_13  and  N_14
REMARK    6  A    between atoms: C_17  and  C_18
REMARK    7  A    between atoms: N_20  and  C_21
REMARK    8  A    between atoms: C_21  and  C_22
REMARK                            x       y       z     vdW  Elec       q    Type
REMARK                         _______ _______ _______ _____ _____    ______ ____
ROOT
ATOM      1  C   UNL     1       2.289   7.685  18.702  0.00  0.00    +0.000 A 
ATOM      2  C   UNL     1       2.548   8.650  17.715  0.00  0.00    +0.000 A 
ATOM      3  C   UNL     1       1.963   9.911  17.762  0.00  0.00    +0.000 A 
ATOM      4  C   UNL     1       1.123  10.254  18.822  0.00  0.00    +0.000 A 
ATOM      5  C   UNL     1       0.877   9.370  19.878  0.00  0.00    +0.000 A 
ATOM      6  C   UNL     1       1.454   8.090  19.768  0.00  0.00    +0.000 A 
ENDROOT
BRANCH   5   7
ATOM      7  N   UNL     1       0.107   9.717  20.969  0.00  0.00    +0.000 N 
ATOM      8  C   UNL     1       0.264   9.055  22.264  0.00  0.00    +0.000 C 
ATOM      9  C   UNL     1      -0.456   9.970  23.196  0.00  0.00    +0.000 C 
ATOM     10  C   UNL     1      -0.929  11.045  22.550  0.00  0.00    +0.000 C 
ATOM     11  C   UNL     1      -0.595  10.999  21.094  0.00  0.00    +0.000 C 
BRANCH  10  12
ATOM     12  C   UNL     1      -1.681  12.217  23.045  0.00  0.00    +0.000 C 
ATOM     13  O   UNL     1      -1.099  13.276  23.240  0.00  0.00    +0.000 OA
ATOM     14  N   UNL     1      -3.023  12.023  23.258  0.00  0.00    +0.000 N 
ATOM     15  H   UNL     1      -3.418  11.109  23.080  0.00  0.00    +0.000 HD
BRANCH  14  16
ATOM     16  C   UNL     1      -3.934  13.089  23.671  0.00  0.00    +0.000 C 
ATOM     17  C   UNL     1      -3.351  13.885  24.852  0.00  0.00    +0.000 C 
ATOM     18  C   UNL     1      -4.236  14.033  22.493  0.00  0.00    +0.000 C 
ATOM     19  C   UNL     1      -5.556  14.713  22.853  0.00  0.00    +0.000 C 
ATOM     20  C   UNL     1      -6.258  13.774  23.837  0.00  0.00    +0.000 C 
ATOM     21  C   UNL     1      -5.345  12.558  23.970  0.00  0.00    +0.000 C 
ENDBRANCH  14  16
ENDBRANCH  10  12
ENDBRANCH   5   7
BRANCH   1  22
ATOM     22  C   UNL     1       2.897   6.199  18.619  0.00  0.00    +0.000 C 
ATOM     23  C   UNL     1       4.383   6.037  18.186  0.00  0.00    +0.000 C 
ATOM     24  O   UNL     1       4.752   5.436  19.445  0.00  0.00    +0.000 OA
ATOM     25  C   UNL     1       3.424   5.622  19.967  0.00  0.00    +0.000 C 
BRANCH  22  26
ATOM     26  C   UNL     1       1.909   5.235  17.938  0.00  0.00    +0.000 C 
BRANCH  26  32
ATOM     27  C   UNL     1       0.767   3.204  20.110  0.00  0.00    +0.000 C 
ATOM     28  N   UNL     1       1.737   2.937  19.079  0.00  0.00    +0.000 N 
ATOM     29  C   UNL     1       2.395   1.757  18.914  0.00  0.00    +0.000 A 
ATOM     30  N   UNL     1       3.197   1.839  17.882  0.00  0.00    +0.000 NA
ATOM     31  N   UNL     1       3.082   3.108  17.368  0.00  0.00    +0.000 NA
ATOM     32  C   UNL     1       2.214   3.782  18.104  0.00  0.00    +0.000 A 
ENDBRANCH  26  32
ENDBRANCH  22  26
ENDBRANCH   1  22
TORSDOF 6
ENDMDL
MODEL 6
REMARK VINA RESULT:      -8.1      1.792     10.332
REMARK  Name = 
REMARK  8 active torsions:
REMARK  status: ('A' for Active; 'I' for Inactive)
REMARK    1  A    between atoms: C_1  and  N_2
REMARK    2  A    between atoms: C_6  and  C_7
REMARK    3  A    between atoms: C_7  and  C_8
REMARK    4  A    between atoms: C_8  and  C_9
REMARK    5  A    between atoms: C_13  and  N_14
REMARK    6  A    between atoms: C_17  and  C_18
REMARK    7  A    between atoms: N_20  and  C_21
REMARK    8  A    between atoms: C_21  and  C_22
REMARK                            x       y       z     vdW  Elec       q    Type
REMARK                         _______ _______ _______ _____ _____    ______ ____
ROOT
ATOM      1  C   UNL     1      -1.055  11.522  21.996  0.00  0.00    +0.000 A 
ATOM      2  C   UNL     1      -0.905  10.854  23.223  0.00  0.00    +0.000 A 
ATOM      3  C   UNL     1      -0.248   9.632  23.309  0.00  0.00    +0.000 A 
ATOM      4  C   UNL     1       0.309   9.055  22.167  0.00  0.00    +0.000 A 
ATOM      5  C   UNL     1       0.264   9.697  20.925  0.00  0.00    +0.000 A 
ATOM      6  C   UNL     1      -0.449  10.911  20.875  0.00  0.00    +0.000 A 
ENDROOT
BRANCH   5   7
ATOM      7  N   UNL     1       0.871   9.176  19.801  0.00  0.00    +0.000 N 
ATOM      8  C   UNL     1       1.250  10.022  18.669  0.00  0.00    +0.000 C 
ATOM      9  C   UNL     1       2.178   9.147  17.894  0.00  0.00    +0.000 C 
ATOM     10  C   UNL     1       2.359   7.970  18.508  0.00  0.00    +0.000 C 
ATOM     11  C   UNL     1       1.575   7.889  19.779  0.00  0.00    +0.000 C 
BRANCH  10  12
ATOM     12  C   UNL     1       3.190   6.805  18.140  0.00  0.00    +0.000 C 
ATOM     13  O   UNL     1       4.010   6.904  17.236  0.00  0.00    +0.000 OA
ATOM     14  N   UNL     1       2.973   5.659  18.864  0.00  0.00    +0.000 N 
ATOM     15  H   UNL     1       2.266   5.666  19.587  0.00  0.00    +0.000 HD
BRANCH  14  16
ATOM     16  C   UNL     1       3.756   4.437  18.689  0.00  0.00    +0.000 C 
ATOM     17  C   UNL     1       5.264   4.739  18.734  0.00  0.00    +0.000 C 
ATOM     18  C   UNL     1       3.391   3.399  19.766  0.00  0.00    +0.000 C 
ATOM     19  C   UNL     1       3.808   2.051  19.179  0.00  0.00    +0.000 C 
ATOM     20  C   UNL     1       3.820   2.239  17.661  0.00  0.00    +0.000 C 
ATOM     21  C   UNL     1       3.355   3.672  17.417  0.00  0.00    +0.000 C 
ENDBRANCH  14  16
ENDBRANCH  10  12
ENDBRANCH   5   7
BRANCH   1  22
ATOM     22  C   UNL     1      -1.878  12.896  21.870  0.00  0.00    +0.000 C 
ATOM     23  C   UNL     1      -1.315  14.007  20.937  0.00  0.00    +0.000 C 
ATOM     24  O   UNL     1      -2.476  13.969  20.082  0.00  0.00    +0.000 OA
ATOM     25  C   UNL     1      -3.041  12.879  20.833  0.00  0.00    +0.000 C 
BRANCH  22  26
ATOM     26  C   UNL     1      -2.357  13.382  23.249  0.00  0.00    +0.000 C 
BRANCH  26  32
ATOM     27  C   UNL     1      -4.896  15.271  22.884  0.00  0.00    +0.000 C 
ATOM     28  N   UNL     1      -4.860  13.944  23.441  0.00  0.00    +0.000 N 
ATOM     29  C   UNL     1      -5.926  13.297  23.986  0.00  0.00    +0.000 A 
ATOM     30  N   UNL     1      -5.561  12.106  24.390  0.00  0.00    +0.000 NA
ATOM     31  N   UNL     1      -4.220  11.972  24.127  0.00  0.00    +0.000 NA
ATOM     32  C   UNL     1      -3.787  13.091  23.571  0.00  0.00    +0.000 A 
ENDBRANCH  26  32
ENDBRANCH  22  26
ENDBRANCH   1  22
TORSDOF 6
ENDMDL
MODEL 7
REMARK VINA RESULT:      -8.1      1.553      2.023
REMARK  Name = 
REMARK  8 active torsions:
REMARK  status: ('A' for Active; 'I' for Inactive)
REMARK    1  A    between atoms: C_1  and  N_2
REMARK    2  A    between atoms: C_6  and  C_7
REMARK    3  A    between atoms: C_7  and  C_8
REMARK    4  A    between atoms: C_8  and  C_9
REMARK    5  A    between atoms: C_13  and  N_14
REMARK    6  A    between atoms: C_17  and  C_18
REMARK    7  A    between atoms: N_20  and  C_21
REMARK    8  A    between atoms: C_21  and  C_22
REMARK                            x       y       z     vdW  Elec       q    Type
REMARK                         _______ _______ _______ _____ _____    ______ ____
ROOT
ATOM      1  C   UNL     1       2.489   7.439  18.976  0.00  0.00    +0.000 A 
ATOM      2  C   UNL     1       2.685   8.327  17.905  0.00  0.00    +0.000 A 
ATOM      3  C   UNL     1       2.029   9.552  17.847  0.00  0.00    +0.000 A 
ATOM      4  C   UNL     1       1.177   9.938  18.882  0.00  0.00    +0.000 A 
ATOM      5  C   UNL     1       0.989   9.139  20.015  0.00  0.00    +0.000 A 
ATOM      6  C   UNL     1       1.639   7.889  20.012  0.00  0.00    +0.000 A 
ENDROOT
BRANCH   5   7
ATOM      7  N   UNL     1       0.207   9.536  21.080  0.00  0.00    +0.000 N 
ATOM      8  C   UNL     1       0.469   9.072  22.442  0.00  0.00    +0.000 C 
ATOM      9  C   UNL     1      -0.334  10.015  23.276  0.00  0.00    +0.000 C 
ATOM     10  C   UNL     1      -0.943  10.935  22.515  0.00  0.00    +0.000 C 
ATOM     11  C   UNL     1      -0.637  10.737  21.065  0.00  0.00    +0.000 C 
BRANCH  10  12
ATOM     12  C   UNL     1      -1.816  12.069  22.883  0.00  0.00    +0.000 C 
ATOM     13  O   UNL     1      -3.017  11.888  23.035  0.00  0.00    +0.000 OA
ATOM     14  N   UNL     1      -1.193  13.284  23.030  0.00  0.00    +0.000 N 
ATOM     15  H   UNL     1      -0.196  13.342  22.874  0.00  0.00    +0.000 HD
BRANCH  14  16
ATOM     16  C   UNL     1      -1.885  14.495  23.466  0.00  0.00    +0.000 C 
ATOM     17  C   UNL     1      -2.708  15.102  22.316  0.00  0.00    +0.000 C 
ATOM     18  C   UNL     1      -2.797  14.197  24.671  0.00  0.00    +0.000 C 
ATOM     19  C   UNL     1      -3.003  15.545  25.360  0.00  0.00    +0.000 C 
ATOM     20  C   UNL     1      -1.807  16.410  24.956  0.00  0.00    +0.000 C 
ATOM     21  C   UNL     1      -0.922  15.516  24.093  0.00  0.00    +0.000 C 
ENDBRANCH  14  16
ENDBRANCH  10  12
ENDBRANCH   5   7
BRANCH   1  22
ATOM     22  C   UNL     1       3.181   5.989  19.017  0.00  0.00    +0.000 C 
ATOM     23  C   UNL     1       3.404   5.244  17.669  0.00  0.00    +0.000 C 
ATOM     24  O   UNL     1       4.837   5.234  17.836  0.00  0.00    +0.000 OA
ATOM     25  C   UNL     1       4.739   5.999  19.051  0.00  0.00    +0.000 C 
BRANCH  22  26
ATOM     26  C   UNL     1       2.596   5.129  20.151  0.00  0.00    +0.000 C 
BRANCH  26  32
ATOM     27  C   UNL     1       4.119   2.342  19.922  0.00  0.00    +0.000 C 
ATOM     28  N   UNL     1       2.744   2.621  19.603  0.00  0.00    +0.000 N 
ATOM     29  C   UNL     1       1.870   1.727  19.065  0.00  0.00    +0.000 A 
ATOM     30  N   UNL     1       0.699   2.292  18.908  0.00  0.00    +0.000 NA
ATOM     31  N   UNL     1       0.808   3.593  19.331  0.00  0.00    +0.000 NA
ATOM     32  C   UNL     1       2.050   3.802  19.733  0.00  0.00    +0.000 A 
ENDBRANCH  26  32
ENDBRANCH  22  26
ENDBRANCH   1  22
TORSDOF 6
ENDMDL
MODEL 8
REMARK VINA RESULT:      -8.0      0.959      1.533
REMARK  Name = 
REMARK  8 active torsions:
REMARK  status: ('A' for Active; 'I' for Inactive)
REMARK    1  A    between atoms: C_1  and  N_2
REMARK    2  A    between atoms: C_6  and  C_7
REMARK    3  A    between atoms: C_7  and  C_8
REMARK    4  A    between atoms: C_8  and  C_9
REMARK    5  A    between atoms: C_13  and  N_14
REMARK    6  A    between atoms: C_17  and  C_18
REMARK    7  A    between atoms: N_20  and  C_21
REMARK    8  A    between atoms: C_21  and  C_22
REMARK                            x       y       z     vdW  Elec       q    Type
REMARK                         _______ _______ _______ _____ _____    ______ ____
ROOT
ATOM      1  C   UNL     1       2.372   7.284  18.698  0.00  0.00    +0.000 A 
ATOM      2  C   UNL     1       2.687   8.208  17.688  0.00  0.00    +0.000 A 
ATOM      3  C   UNL     1       2.166   9.497  17.693  0.00  0.00    +0.000 A 
ATOM      4  C   UNL     1       1.333   9.910  18.734  0.00  0.00    +0.000 A 
ATOM      5  C   UNL     1       1.033   9.069  19.811  0.00  0.00    +0.000 A 
ATOM      6  C   UNL     1       1.547   7.760  19.743  0.00  0.00    +0.000 A 
ENDROOT
BRANCH   5   7
ATOM      7  N   UNL     1       0.270   9.484  20.883  0.00  0.00    +0.000 N 
ATOM      8  C   UNL     1       0.505   8.980  22.236  0.00  0.00    +0.000 C 
ATOM      9  C   UNL     1      -0.251   9.945  23.088  0.00  0.00    +0.000 C 
ATOM     10  C   UNL     1      -0.811  10.910  22.346  0.00  0.00    +0.000 C 
ATOM     11  C   UNL     1      -0.513  10.726  20.892  0.00  0.00    +0.000 C 
BRANCH  10  12
ATOM     12  C   UNL     1      -1.626  12.078  22.736  0.00  0.00    +0.000 C 
ATOM     13  O   UNL     1      -1.251  13.207  22.445  0.00  0.00    +0.000 OA
ATOM     14  N   UNL     1      -2.784  11.802  23.420  0.00  0.00    +0.000 N 
ATOM     15  H   UNL     1      -3.009  10.838  23.627  0.00  0.00    +0.000 HD
BRANCH  14  16
ATOM     16  C   UNL     1      -3.748  12.826  23.816  0.00  0.00    +0.000 C 
ATOM     17  C   UNL     1      -4.791  12.253  24.791  0.00  0.00    +0.000 C 
ATOM     18  C   UNL     1      -3.032  14.031  24.454  0.00  0.00    +0.000 C 
ATOM     19  C   UNL     1      -4.005  15.200  24.303  0.00  0.00    +0.000 C 
ATOM     20  C   UNL     1      -4.914  14.842  23.125  0.00  0.00    +0.000 C 
ATOM     21  C   UNL     1      -4.402  13.503  22.600  0.00  0.00    +0.000 C 
ENDBRANCH  14  16
ENDBRANCH  10  12
ENDBRANCH   5   7
BRANCH   1  22
ATOM     22  C   UNL     1       2.905   5.769  18.662  0.00  0.00    +0.000 C 
ATOM     23  C   UNL     1       1.981   4.680  18.044  0.00  0.00    +0.000 C 
ATOM     24  O   UNL     1       2.931   4.371  17.003  0.00  0.00    +0.000 OA
ATOM     25  C   UNL     1       3.816   5.415  17.449  0.00  0.00    +0.000 C 
BRANCH  22  26
ATOM     26  C   UNL     1       3.566   5.384  19.997  0.00  0.00    +0.000 C 
BRANCH  26  32
ATOM     27  C   UNL     1       4.416   2.323  19.765  0.00  0.00    +0.000 C 
ATOM     28  N   UNL     1       3.335   2.880  20.537  0.00  0.00    +0.000 N 
ATOM     29  C   UNL     1       2.431   2.155  21.250  0.00  0.00    +0.000 A 
ATOM     30  N   UNL     1       1.587   2.962  21.844  0.00  0.00    +0.000 NA
ATOM     31  N   UNL     1       1.928   4.246  21.497  0.00  0.00    +0.000 NA
ATOM     32  C   UNL     1       2.974   4.199  20.689  0.00  0.00    +0.000 A 
ENDBRANCH  26  32
ENDBRANCH  22  26
ENDBRANCH   1  22
TORSDOF 6
ENDMDL
MODEL 9
REMARK VINA RESULT:      -7.9      3.623      5.285
REMARK  Name = 
REMARK  8 active torsions:
REMARK  status: ('A' for Active; 'I' for Inactive)
REMARK    1  A    between atoms: C_1  and  N_2
REMARK    2  A    between atoms: C_6  and  C_7
REMARK    3  A    between atoms: C_7  and  C_8
REMARK    4  A    between atoms: C_8  and  C_9
REMARK    5  A    between atoms: C_13  and  N_14
REMARK    6  A    between atoms: C_17  and  C_18
REMARK    7  A    between atoms: N_20  and  C_21
REMARK    8  A    between atoms: C_21  and  C_22
REMARK                            x       y       z     vdW  Elec       q    Type
REMARK                         _______ _______ _______ _____ _____    ______ ____
ROOT
ATOM      1  C   UNL     1       4.617   5.117  17.334  0.00  0.00    +0.000 A 
ATOM      2  C   UNL     1       3.723   4.037  17.421  0.00  0.00    +0.000 A 
ATOM      3  C   UNL     1       2.441   4.194  17.935  0.00  0.00    +0.000 A 
ATOM      4  C   UNL     1       2.003   5.452  18.351  0.00  0.00    +0.000 A 
ATOM      5  C   UNL     1       2.811   6.588  18.227  0.00  0.00    +0.000 A 
ATOM      6  C   UNL     1       4.116   6.375  17.742  0.00  0.00    +0.000 A 
ENDROOT
BRANCH   5   7
ATOM      7  N   UNL     1       2.370   7.850  18.565  0.00  0.00    +0.000 N 
ATOM      8  C   UNL     1       2.441   8.968  17.625  0.00  0.00    +0.000 C 
ATOM      9  C   UNL     1       1.540   9.984  18.245  0.00  0.00    +0.000 C 
ATOM     10  C   UNL     1       0.979   9.513  19.367  0.00  0.00    +0.000 C 
ATOM     11  C   UNL     1       1.427   8.116  19.658  0.00  0.00    +0.000 C 
BRANCH  10  12
ATOM     12  C   UNL     1       0.019  10.134  20.302  0.00  0.00    +0.000 C 
ATOM     13  O   UNL     1      -0.866   9.455  20.806  0.00  0.00    +0.000 OA
ATOM     14  N   UNL     1       0.197  11.474  20.543  0.00  0.00    +0.000 N 
ATOM     15  H   UNL     1       0.950  11.958  20.073  0.00  0.00    +0.000 HD
BRANCH  14  16
ATOM     16  C   UNL     1      -0.608  12.233  21.498  0.00  0.00    +0.000 C 
ATOM     17  C   UNL     1       0.045  13.591  21.811  0.00  0.00    +0.000 C 
ATOM     18  C   UNL     1      -2.036  12.443  20.960  0.00  0.00    +0.000 C 
ATOM     19  C   UNL     1      -2.893  12.715  22.195  0.00  0.00    +0.000 C 
ATOM     20  C   UNL     1      -2.144  12.087  23.373  0.00  0.00    +0.000 C 
ATOM     21  C   UNL     1      -0.907  11.426  22.771  0.00  0.00    +0.000 C 
ENDBRANCH  14  16
ENDBRANCH  10  12
ENDBRANCH   5   7
BRANCH   1  22
ATOM     22  C   UNL     1       6.126   4.934  16.815  0.00  0.00    +0.000 C 
ATOM     23  C   UNL     1       7.040   6.193  16.756  0.00  0.00    +0.000 C 
ATOM     24  O   UNL     1       7.972   5.641  17.710  0.00  0.00    +0.000 OA
ATOM     25  C   UNL     1       7.149   4.475  17.897  0.00  0.00    +0.000 C 
BRANCH  22  26
ATOM     26  C   UNL     1       6.177   4.031  15.570  0.00  0.00    +0.000 C 
BRANCH  26  32
ATOM     27  C   UNL     1       5.762   3.322  12.492  0.00  0.00    +0.000 C 
ATOM     28  N   UNL     1       6.694   4.261  13.061  0.00  0.00    +0.000 N 
ATOM     29  C   UNL     1       7.625   4.959  12.357  0.00  0.00    +0.000 A 
ATOM     30  N   UNL     1       8.305   5.732  13.168  0.00  0.00    +0.000 NA
ATOM     31  N   UNL     1       7.825   5.523  14.437  0.00  0.00    +0.000 NA
ATOM     32  C   UNL     1       6.864   4.617  14.379  0.00  0.00    +0.000 A 
ENDBRANCH  26  32
ENDBRANCH  22  26
ENDBRANCH   1  22
TORSDOF 6
ENDMDL
