MODEL 1
REMARK VINA RESULT:      -8.5      0.000      0.000
REMARK  Name = 
REMARK  5 active torsions:
REMARK  status: ('A' for Active; 'I' for Inactive)
REMARK    1  A    between atoms: C_1  and  C_2
REMARK    2  A    between atoms: C_4  and  C_5
REMARK    3  A    between atoms: N_7  and  C_8
REMARK    4  A    between atoms: N_11  and  C_12
REMARK    5  A    between atoms: C_18  and  C_19
REMARK                            x       y       z     vdW  Elec       q    Type
REMARK                         _______ _______ _______ _____ _____    ______ ____
ROOT
ATOM      1  C   UNL     1       2.527   7.261  18.558  0.00  0.00    +0.000 C 
ATOM      2  O   UNL     1       2.247   7.603  17.415  0.00  0.00    +0.000 OA
ATOM      3  N   UNL     1       2.126   7.924  19.704  0.00  0.00    +0.000 N 
ATOM      4  H   UNL     1       2.408   7.584  20.613  0.00  0.00    +0.000 HD
ENDROOT
BRANCH   1   8
ATOM      5  C   UNL     1       6.784   4.715  17.891  0.00  0.00    +0.000 C 
ATOM      6  C   UNL     1       5.412   4.859  18.476  0.00  0.00    +0.000 A 
ATOM      7  C   UNL     1       4.633   5.974  18.223  0.00  0.00    +0.000 A 
ATOM      8  C   UNL     1       3.343   6.023  18.766  0.00  0.00    +0.000 A 
ATOM      9  C   UNL     1       2.860   4.955  19.568  0.00  0.00    +0.000 A 
ATOM     10  C   UNL     1       1.558   4.865  20.134  0.00  0.00    +0.000 A 
ATOM     11  C   UNL     1       1.189   3.789  20.934  0.00  0.00    +0.000 A 
ATOM     12  C   UNL     1       2.114   2.790  21.181  0.00  0.00    +0.000 A 
ATOM     13  F   UNL     1       1.780   1.755  21.961  0.00  0.00    +0.000 F 
ATOM     14  C   UNL     1       3.382   2.842  20.620  0.00  0.00    +0.000 A 
ATOM     15  C   UNL     1       3.763   3.896  19.804  0.00  0.00    +0.000 A 
ATOM     16  N   UNL     1       4.991   3.849  19.265  0.00  0.00    +0.000 NA
ENDBRANCH   1   8
BRANCH   3  17
ATOM     17  C   UNL     1       1.351   9.074  19.689  0.00  0.00    +0.000 A 
ATOM     18  C   UNL     1       1.326  10.154  18.790  0.00  0.00    +0.000 A 
ATOM     19  N   UNL     1       0.382  11.044  19.088  0.00  0.00    +0.000 NA
ATOM     20  N   UNL     1      -0.118  10.626  20.279  0.00  0.00    +0.000 N 
ATOM     21  C   UNL     1       0.352   9.357  20.607  0.00  0.00    +0.000 A 
ATOM     22  C   UNL     1      -0.222   8.481  21.661  0.00  0.00    +0.000 C 
BRANCH  20  23
ATOM     23  C   UNL     1      -0.977  11.493  21.006  0.00  0.00    +0.000 A 
ATOM     24  C   UNL     1      -2.045  12.115  20.341  0.00  0.00    +0.000 A 
ATOM     25  C   UNL     1      -2.887  12.991  21.030  0.00  0.00    +0.000 A 
ATOM     26  C   UNL     1      -2.648  13.274  22.374  0.00  0.00    +0.000 A 
ATOM     27  C   UNL     1      -1.571  12.681  23.031  0.00  0.00    +0.000 A 
ATOM     28  C   UNL     1      -0.735  11.791  22.353  0.00  0.00    +0.000 A 
ENDBRANCH  20  23
ENDBRANCH   3  17
TORSDOF 3
ENDMDL
MODEL 2
REMARK VINA RESULT:      -8.4      1.433      1.535
REMARK  Name = 
REMARK  5 active torsions:
REMARK  status: ('A' for Active; 'I' for Inactive)
REMARK    1  A    between atoms: C_1  and  C_2
REMARK    2  A    between atoms: C_4  and  C_5
REMARK    3  A    between atoms: N_7  and  C_8
REMARK    4  A    between atoms: N_11  and  C_12
REMARK    5  A    between atoms: C_18  and  C_19
REMARK                            x       y       z     vdW  Elec       q    Type
REMARK                         _______ _______ _______ _____ _____    ______ ____
ROOT
ATOM      1  C   UNL     1       2.869   7.641  18.033  0.00  0.00    +0.000 C 
ATOM      2  O   UNL     1       2.837   8.374  17.051  0.00  0.00    +0.000 OA
ATOM      3  N   UNL     1       2.179   7.862  19.211  0.00  0.00    +0.000 N 
ATOM      4  H   UNL     1       2.266   7.214  19.981  0.00  0.00    +0.000 HD
ENDROOT
BRANCH   1   8
ATOM      5  C   UNL     1       7.303   5.389  17.458  0.00  0.00    +0.000 C 
ATOM      6  C   UNL     1       5.834   5.353  17.754  0.00  0.00    +0.000 A 
ATOM      7  C   UNL     1       5.065   6.502  17.735  0.00  0.00    +0.000 A 
ATOM      8  C   UNL     1       3.691   6.390  17.978  0.00  0.00    +0.000 A 
ATOM      9  C   UNL     1       3.111   5.122  18.251  0.00  0.00    +0.000 A 
ATOM     10  C   UNL     1       1.728   4.871  18.465  0.00  0.00    +0.000 A 
ATOM     11  C   UNL     1       1.260   3.595  18.757  0.00  0.00    +0.000 A 
ATOM     12  C   UNL     1       2.167   2.553  18.841  0.00  0.00    +0.000 A 
ATOM     13  F   UNL     1       1.735   1.320  19.135  0.00  0.00    +0.000 F 
ATOM     14  C   UNL     1       3.518   2.767  18.611  0.00  0.00    +0.000 A 
ATOM     15  C   UNL     1       4.002   4.028  18.299  0.00  0.00    +0.000 A 
ATOM     16  N   UNL     1       5.314   4.143  18.047  0.00  0.00    +0.000 NA
ENDBRANCH   1   8
BRANCH   3  17
ATOM     17  C   UNL     1       1.359   8.962  19.420  0.00  0.00    +0.000 A 
ATOM     18  C   UNL     1       0.662   9.774  18.509  0.00  0.00    +0.000 A 
ATOM     19  N   UNL     1      -0.078  10.700  19.116  0.00  0.00    +0.000 NA
ATOM     20  N   UNL     1       0.253  10.596  20.428  0.00  0.00    +0.000 N 
ATOM     21  C   UNL     1       1.020   9.459  20.668  0.00  0.00    +0.000 A 
ATOM     22  C   UNL     1       1.287   8.877  22.009  0.00  0.00    +0.000 C 
BRANCH  20  23
ATOM     23  C   UNL     1      -0.172  11.612  21.327  0.00  0.00    +0.000 A 
ATOM     24  C   UNL     1      -1.216  11.339  22.225  0.00  0.00    +0.000 A 
ATOM     25  C   UNL     1      -1.667  12.330  23.099  0.00  0.00    +0.000 A 
ATOM     26  C   UNL     1      -1.102  13.603  23.060  0.00  0.00    +0.000 A 
ATOM     27  C   UNL     1      -0.085  13.888  22.151  0.00  0.00    +0.000 A 
ATOM     28  C   UNL     1       0.383  12.896  21.284  0.00  0.00    +0.000 A 
ENDBRANCH  20  23
ENDBRANCH   3  17
TORSDOF 3
ENDMDL
MODEL 3
REMARK VINA RESULT:      -8.4      3.201      8.641
REMARK  Name = 
REMARK  5 active torsions:
REMARK  status: ('A' for Active; 'I' for Inactive)
REMARK    1  A    between atoms: C_1  and  C_2
REMARK    2  A    between atoms: C_4  and  C_5
REMARK    3  A    between atoms: N_7  and  C_8
REMARK    4  A    between atoms: N_11  and  C_12
REMARK    5  A    between atoms: C_18  and  C_19
REMARK                            x       y       z     vdW  Elec       q    Type
REMARK                         _______ _______ _______ _____ _____    ______ ____
ROOT
ATOM      1  C   UNL     1       1.462   9.880  18.539  0.00  0.00    +0.000 C 
ATOM      2  O   UNL     1       2.034  10.135  17.485  0.00  0.00    +0.000 OA
ATOM      3  N   UNL     1       1.569   8.688  19.231  0.00  0.00    +0.000 N 
ATOM      4  H   UNL     1       1.056   8.551  20.090  0.00  0.00    +0.000 HD
ENDROOT
BRANCH   1   8
ATOM      5  C   UNL     1       0.951  13.914  21.459  0.00  0.00    +0.000 C 
ATOM      6  C   UNL     1       0.395  12.886  20.521  0.00  0.00    +0.000 A 
ATOM      7  C   UNL     1       1.187  11.879  20.001  0.00  0.00    +0.000 A 
ATOM      8  C   UNL     1       0.592  10.927  19.164  0.00  0.00    +0.000 A 
ATOM      9  C   UNL     1      -0.791  11.011  18.850  0.00  0.00    +0.000 A 
ATOM     10  C   UNL     1      -1.519  10.083  18.055  0.00  0.00    +0.000 A 
ATOM     11  C   UNL     1      -2.869  10.270  17.778  0.00  0.00    +0.000 A 
ATOM     12  C   UNL     1      -3.509  11.385  18.290  0.00  0.00    +0.000 A 
ATOM     13  F   UNL     1      -4.805  11.587  18.021  0.00  0.00    +0.000 F 
ATOM     14  C   UNL     1      -2.828  12.291  19.089  0.00  0.00    +0.000 A 
ATOM     15  C   UNL     1      -1.486  12.113  19.393  0.00  0.00    +0.000 A 
ATOM     16  N   UNL     1      -0.912  13.009  20.208  0.00  0.00    +0.000 NA
ENDBRANCH   1   8
BRANCH   3  17
ATOM     17  C   UNL     1       2.348   7.623  18.802  0.00  0.00    +0.000 A 
ATOM     18  C   UNL     1       3.327   7.548  17.796  0.00  0.00    +0.000 A 
ATOM     19  N   UNL     1       3.901   6.349  17.733  0.00  0.00    +0.000 NA
ATOM     20  N   UNL     1       3.191   5.583  18.599  0.00  0.00    +0.000 N 
ATOM     21  C   UNL     1       2.327   6.359  19.368  0.00  0.00    +0.000 A 
ATOM     22  C   UNL     1       1.643   5.902  20.606  0.00  0.00    +0.000 C 
BRANCH  20  23
ATOM     23  C   UNL     1       3.384   4.176  18.591  0.00  0.00    +0.000 A 
ATOM     24  C   UNL     1       2.588   3.380  17.752  0.00  0.00    +0.000 A 
ATOM     25  C   UNL     1       2.743   1.992  17.747  0.00  0.00    +0.000 A 
ATOM     26  C   UNL     1       3.669   1.391  18.598  0.00  0.00    +0.000 A 
ATOM     27  C   UNL     1       4.442   2.175  19.453  0.00  0.00    +0.000 A 
ATOM     28  C   UNL     1       4.304   3.565  19.452  0.00  0.00    +0.000 A 
ENDBRANCH  20  23
ENDBRANCH   3  17
TORSDOF 3
ENDMDL
MODEL 4
REMARK VINA RESULT:      -8.3      0.843      1.067
REMARK  Name = 
REMARK  5 active torsions:
REMARK  status: ('A' for Active; 'I' for Inactive)
REMARK    1  A    between atoms: C_1  and  C_2
REMARK    2  A    between atoms: C_4  and  C_5
REMARK    3  A    between atoms: N_7  and  C_8
REMARK    4  A    between atoms: N_11  and  C_12
REMARK    5  A    between atoms: C_18  and  C_19
REMARK                            x       y       z     vdW  Elec       q    Type
REMARK                         _______ _______ _______ _____ _____    ______ ____
ROOT
ATOM      1  C   UNL     1       2.515   7.463  18.564  0.00  0.00    +0.000 C 
ATOM      2  O   UNL     1       2.360   7.986  17.466  0.00  0.00    +0.000 OA
ATOM      3  N   UNL     1       1.998   7.946  19.752  0.00  0.00    +0.000 N 
ATOM      4  H   UNL     1       2.179   7.461  20.620  0.00  0.00    +0.000 HD
ENDROOT
BRANCH   1   8
ATOM      5  C   UNL     1       6.609   4.803  17.462  0.00  0.00    +0.000 C 
ATOM      6  C   UNL     1       5.293   4.970  18.158  0.00  0.00    +0.000 A 
ATOM      7  C   UNL     1       4.539   6.120  18.012  0.00  0.00    +0.000 A 
ATOM      8  C   UNL     1       3.298   6.190  18.657  0.00  0.00    +0.000 A 
ATOM      9  C   UNL     1       2.838   5.105  19.450  0.00  0.00    +0.000 A 
ATOM     10  C   UNL     1       1.582   5.036  20.113  0.00  0.00    +0.000 A 
ATOM     11  C   UNL     1       1.235   3.940  20.895  0.00  0.00    +0.000 A 
ATOM     12  C   UNL     1       2.138   2.900  21.028  0.00  0.00    +0.000 A 
ATOM     13  F   UNL     1       1.826   1.844  21.789  0.00  0.00    +0.000 F 
ATOM     14  C   UNL     1       3.360   2.932  20.372  0.00  0.00    +0.000 A 
ATOM     15  C   UNL     1       3.717   4.007  19.571  0.00  0.00    +0.000 A 
ATOM     16  N   UNL     1       4.896   3.941  18.936  0.00  0.00    +0.000 NA
ENDBRANCH   1   8
BRANCH   3  17
ATOM     17  C   UNL     1       1.234   9.101  19.839  0.00  0.00    +0.000 A 
ATOM     18  C   UNL     1       0.646   9.891  18.836  0.00  0.00    +0.000 A 
ATOM     19  N   UNL     1      -0.072  10.895  19.335  0.00  0.00    +0.000 NA
ATOM     20  N   UNL     1       0.168  10.858  20.670  0.00  0.00    +0.000 N 
ATOM     21  C   UNL     1       0.848   9.697  21.029  0.00  0.00    +0.000 A 
ATOM     22  C   UNL     1       0.995   9.189  22.418  0.00  0.00    +0.000 C 
BRANCH  20  23
ATOM     23  C   UNL     1      -0.250  11.952  21.475  0.00  0.00    +0.000 A 
ATOM     24  C   UNL     1       0.440  13.170  21.387  0.00  0.00    +0.000 A 
ATOM     25  C   UNL     1       0.062  14.251  22.187  0.00  0.00    +0.000 A 
ATOM     26  C   UNL     1      -0.983  14.111  23.098  0.00  0.00    +0.000 A 
ATOM     27  C   UNL     1      -1.653  12.893  23.210  0.00  0.00    +0.000 A 
ATOM     28  C   UNL     1      -1.291  11.813  22.401  0.00  0.00    +0.000 A 
ENDBRANCH  20  23
ENDBRANCH   3  17
TORSDOF 3
ENDMDL
MODEL 5
REMARK VINA RESULT:      -8.2      1.016      1.205
REMARK  Name = 
REMARK  5 active torsions:
REMARK  status: ('A' for Active; 'I' for Inactive)
REMARK    1  A    between atoms: C_1  and  C_2
REMARK    2  A    between atoms: C_4  and  C_5
REMARK    3  A    between atoms: N_7  and  C_8
REMARK    4  A    between atoms: N_11  and  C_12
REMARK    5  A    between atoms: C_18  and  C_19
REMARK                            x       y       z     vdW  Elec       q    Type
REMARK                         _______ _______ _______ _____ _____    ______ ____
ROOT
ATOM      1  C   UNL     1       2.530   7.768  18.336  0.00  0.00    +0.000 C 
ATOM      2  O   UNL     1       2.474   8.445  17.316  0.00  0.00    +0.000 OA
ATOM      3  N   UNL     1       1.904   8.080  19.530  0.00  0.00    +0.000 N 
ATOM      4  H   UNL     1       2.007   7.474  20.331  0.00  0.00    +0.000 HD
ENDROOT
BRANCH   1   8
ATOM      5  C   UNL     1       6.369   5.055  16.618  0.00  0.00    +0.000 C 
ATOM      6  C   UNL     1       5.183   5.242  17.515  0.00  0.00    +0.000 A 
ATOM      7  C   UNL     1       4.427   6.398  17.480  0.00  0.00    +0.000 A 
ATOM      8  C   UNL     1       3.306   6.488  18.316  0.00  0.00    +0.000 A 
ATOM      9  C   UNL     1       2.972   5.416  19.186  0.00  0.00    +0.000 A 
ATOM     10  C   UNL     1       1.838   5.367  20.043  0.00  0.00    +0.000 A 
ATOM     11  C   UNL     1       1.613   4.282  20.884  0.00  0.00    +0.000 A 
ATOM     12  C   UNL     1       2.516   3.234  20.881  0.00  0.00    +0.000 A 
ATOM     13  F   UNL     1       2.322   2.188  21.694  0.00  0.00    +0.000 F 
ATOM     14  C   UNL     1       3.616   3.247  20.036  0.00  0.00    +0.000 A 
ATOM     15  C   UNL     1       3.848   4.310  19.176  0.00  0.00    +0.000 A 
ATOM     16  N   UNL     1       4.908   4.225  18.359  0.00  0.00    +0.000 NA
ENDBRANCH   1   8
BRANCH   3  17
ATOM     17  C   UNL     1       1.131   9.218  19.712  0.00  0.00    +0.000 A 
ATOM     18  C   UNL     1       0.475  10.041  18.781  0.00  0.00    +0.000 A 
ATOM     19  N   UNL     1      -0.227  11.010  19.364  0.00  0.00    +0.000 NA
ATOM     20  N   UNL     1       0.091  10.918  20.680  0.00  0.00    +0.000 N 
ATOM     21  C   UNL     1       0.807   9.754  20.947  0.00  0.00    +0.000 A 
ATOM     22  C   UNL     1       1.040   9.188  22.301  0.00  0.00    +0.000 C 
BRANCH  20  23
ATOM     23  C   UNL     1      -0.295  11.969  21.556  0.00  0.00    +0.000 A 
ATOM     24  C   UNL     1      -1.360  11.761  22.447  0.00  0.00    +0.000 A 
ATOM     25  C   UNL     1      -1.773  12.788  23.299  0.00  0.00    +0.000 A 
ATOM     26  C   UNL     1      -1.148  14.032  23.243  0.00  0.00    +0.000 A 
ATOM     27  C   UNL     1      -0.109  14.252  22.340  0.00  0.00    +0.000 A 
ATOM     28  C   UNL     1       0.320  13.225  21.496  0.00  0.00    +0.000 A 
ENDBRANCH  20  23
ENDBRANCH   3  17
TORSDOF 3
ENDMDL
MODEL 6
REMARK VINA RESULT:      -8.1      1.779      3.067
REMARK  Name = 
REMARK  5 active torsions:
REMARK  status: ('A' for Active; 'I' for Inactive)
REMARK    1  A    between atoms: C_1  and  C_2
REMARK    2  A    between atoms: C_4  and  C_5
REMARK    3  A    between atoms: N_7  and  C_8
REMARK    4  A    between atoms: N_11  and  C_12
REMARK    5  A    between atoms: C_18  and  C_19
REMARK                            x       y       z     vdW  Elec       q    Type
REMARK                         _______ _______ _______ _____ _____    ______ ____
ROOT
ATOM      1  C   UNL     1       2.202   7.358  18.853  0.00  0.00    +0.000 C 
ATOM      2  O   UNL     1       1.953   7.690  17.699  0.00  0.00    +0.000 OA
ATOM      3  N   UNL     1       1.826   8.067  19.980  0.00  0.00    +0.000 N 
ATOM      4  H   UNL     1       2.079   7.731  20.899  0.00  0.00    +0.000 HD
ENDROOT
BRANCH   1   8
ATOM      5  C   UNL     1       2.583   2.938  21.172  0.00  0.00    +0.000 C 
ATOM      6  C   UNL     1       3.066   3.954  20.181  0.00  0.00    +0.000 A 
ATOM      7  C   UNL     1       2.415   5.162  20.009  0.00  0.00    +0.000 A 
ATOM      8  C   UNL     1       2.946   6.082  19.097  0.00  0.00    +0.000 A 
ATOM      9  C   UNL     1       4.118   5.767  18.359  0.00  0.00    +0.000 A 
ATOM     10  C   UNL     1       4.779   6.631  17.443  0.00  0.00    +0.000 A 
ATOM     11  C   UNL     1       5.907   6.217  16.742  0.00  0.00    +0.000 A 
ATOM     12  C   UNL     1       6.389   4.937  16.946  0.00  0.00    +0.000 A 
ATOM     13  F   UNL     1       7.466   4.518  16.270  0.00  0.00    +0.000 F 
ATOM     14  C   UNL     1       5.778   4.083  17.853  0.00  0.00    +0.000 A 
ATOM     15  C   UNL     1       4.663   4.483  18.575  0.00  0.00    +0.000 A 
ATOM     16  N   UNL     1       4.159   3.615  19.465  0.00  0.00    +0.000 NA
ENDBRANCH   1   8
BRANCH   3  17
ATOM     17  C   UNL     1       1.116   9.257  19.932  0.00  0.00    +0.000 A 
ATOM     18  C   UNL     1       1.183  10.331  19.028  0.00  0.00    +0.000 A 
ATOM     19  N   UNL     1       0.279  11.273  19.288  0.00  0.00    +0.000 NA
ATOM     20  N   UNL     1      -0.285  10.890  20.461  0.00  0.00    +0.000 N 
ATOM     21  C   UNL     1       0.102   9.600  20.812  0.00  0.00    +0.000 A 
ATOM     22  C   UNL     1      -0.557   8.763  21.848  0.00  0.00    +0.000 C 
BRANCH  20  23
ATOM     23  C   UNL     1      -1.121  11.808  21.154  0.00  0.00    +0.000 A 
ATOM     24  C   UNL     1      -2.260  12.317  20.510  0.00  0.00    +0.000 A 
ATOM     25  C   UNL     1      -3.082  13.239  21.162  0.00  0.00    +0.000 A 
ATOM     26  C   UNL     1      -2.755  13.680  22.443  0.00  0.00    +0.000 A 
ATOM     27  C   UNL     1      -1.609  13.199  23.075  0.00  0.00    +0.000 A 
ATOM     28  C   UNL     1      -0.791  12.264  22.435  0.00  0.00    +0.000 A 
ENDBRANCH  20  23
ENDBRANCH   3  17
TORSDOF 3
ENDMDL
MODEL 7
REMARK VINA RESULT:      -8.1      1.758      2.177
REMARK  Name = 
REMARK  5 active torsions:
REMARK  status: ('A' for Active; 'I' for Inactive)
REMARK    1  A    between atoms: C_1  and  C_2
REMARK    2  A    between atoms: C_4  and  C_5
REMARK    3  A    between atoms: N_7  and  C_8
REMARK    4  A    between atoms: N_11  and  C_12
REMARK    5  A    between atoms: C_18  and  C_19
REMARK                            x       y       z     vdW  Elec       q    Type
REMARK                         _______ _______ _______ _____ _____    ______ ____
ROOT
ATOM      1  C   UNL     1       1.809   7.890  19.903  0.00  0.00    +0.000 C 
ATOM      2  O   UNL     1       1.678   7.631  21.094  0.00  0.00    +0.000 OA
ATOM      3  N   UNL     1       1.429   9.076  19.302  0.00  0.00    +0.000 N 
ATOM      4  H   UNL     1       1.562   9.209  18.310  0.00  0.00    +0.000 HD
ENDROOT
BRANCH   1   8
ATOM      5  C   UNL     1       5.005   6.760  16.219  0.00  0.00    +0.000 C 
ATOM      6  C   UNL     1       4.024   6.365  17.281  0.00  0.00    +0.000 A 
ATOM      7  C   UNL     1       3.384   7.311  18.061  0.00  0.00    +0.000 A 
ATOM      8  C   UNL     1       2.447   6.874  19.006  0.00  0.00    +0.000 A 
ATOM      9  C   UNL     1       2.179   5.489  19.163  0.00  0.00    +0.000 A 
ATOM     10  C   UNL     1       1.220   4.925  20.049  0.00  0.00    +0.000 A 
ATOM     11  C   UNL     1       1.052   3.548  20.153  0.00  0.00    +0.000 A 
ATOM     12  C   UNL     1       1.838   2.717  19.376  0.00  0.00    +0.000 A 
ATOM     13  F   UNL     1       1.699   1.389  19.474  0.00  0.00    +0.000 F 
ATOM     14  C   UNL     1       2.763   3.243  18.485  0.00  0.00    +0.000 A 
ATOM     15  C   UNL     1       2.932   4.613  18.352  0.00  0.00    +0.000 A 
ATOM     16  N   UNL     1       3.814   5.041  17.437  0.00  0.00    +0.000 NA
ENDBRANCH   1   8
BRANCH   3  17
ATOM     17  C   UNL     1       0.842  10.127  19.992  0.00  0.00    +0.000 A 
ATOM     18  C   UNL     1       1.380  11.022  20.933  0.00  0.00    +0.000 A 
ATOM     19  N   UNL     1       0.500  11.943  21.321  0.00  0.00    +0.000 NA
ATOM     20  N   UNL     1      -0.670  11.560  20.749  0.00  0.00    +0.000 N 
ATOM     21  C   UNL     1      -0.470  10.539  19.823  0.00  0.00    +0.000 A 
ATOM     22  C   UNL     1      -1.461  10.104  18.805  0.00  0.00    +0.000 C 
BRANCH  20  23
ATOM     23  C   UNL     1      -1.876  12.188  21.162  0.00  0.00    +0.000 A 
ATOM     24  C   UNL     1      -2.310  12.031  22.488  0.00  0.00    +0.000 A 
ATOM     25  C   UNL     1      -3.505  12.618  22.909  0.00  0.00    +0.000 A 
ATOM     26  C   UNL     1      -4.285  13.336  22.005  0.00  0.00    +0.000 A 
ATOM     27  C   UNL     1      -3.873  13.471  20.680  0.00  0.00    +0.000 A 
ATOM     28  C   UNL     1      -2.670  12.900  20.255  0.00  0.00    +0.000 A 
ENDBRANCH  20  23
ENDBRANCH   3  17
TORSDOF 3
ENDMDL
MODEL 8
REMARK VINA RESULT:      -8.1      2.276      3.421
REMARK  Name = 
REMARK  5 active torsions:
REMARK  status: ('A' for Active; 'I' for Inactive)
REMARK    1  A    between atoms: C_1  and  C_2
REMARK    2  A    between atoms: C_4  and  C_5
REMARK    3  A    between atoms: N_7  and  C_8
REMARK    4  A    between atoms: N_11  and  C_12
REMARK    5  A    between atoms: C_18  and  C_19
REMARK                            x       y       z     vdW  Elec       q    Type
REMARK                         _______ _______ _______ _____ _____    ______ ____
ROOT
ATOM      1  C   UNL     1       2.345   7.670  18.115  0.00  0.00    +0.000 C 
ATOM      2  O   UNL     1       2.543   8.408  17.156  0.00  0.00    +0.000 OA
ATOM      3  N   UNL     1       1.732   8.052  19.295  0.00  0.00    +0.000 N 
ATOM      4  H   UNL     1       1.614   7.386  20.045  0.00  0.00    +0.000 HD
ENDROOT
BRANCH   1   8
ATOM      5  C   UNL     1       1.244   2.803  18.503  0.00  0.00    +0.000 C 
ATOM      6  C   UNL     1       2.186   3.919  18.167  0.00  0.00    +0.000 A 
ATOM      7  C   UNL     1       1.818   5.244  18.318  0.00  0.00    +0.000 A 
ATOM      8  C   UNL     1       2.763   6.235  18.026  0.00  0.00    +0.000 A 
ATOM      9  C   UNL     1       4.061   5.879  17.573  0.00  0.00    +0.000 A 
ATOM     10  C   UNL     1       5.120   6.787  17.292  0.00  0.00    +0.000 A 
ATOM     11  C   UNL     1       6.350   6.341  16.821  0.00  0.00    +0.000 A 
ATOM     12  C   UNL     1       6.539   4.985  16.624  0.00  0.00    +0.000 A 
ATOM     13  F   UNL     1       7.713   4.540  16.158  0.00  0.00    +0.000 F 
ATOM     14  C   UNL     1       5.532   4.077  16.915  0.00  0.00    +0.000 A 
ATOM     15  C   UNL     1       4.305   4.499  17.404  0.00  0.00    +0.000 A 
ATOM     16  N   UNL     1       3.400   3.556  17.703  0.00  0.00    +0.000 NA
ENDBRANCH   1   8
BRANCH   3  17
ATOM     17  C   UNL     1       1.268   9.338  19.533  0.00  0.00    +0.000 A 
ATOM     18  C   UNL     1       1.383  10.512  18.770  0.00  0.00    +0.000 A 
ATOM     19  N   UNL     1       0.737  11.540  19.316  0.00  0.00    +0.000 NA
ATOM     20  N   UNL     1       0.321  11.080  20.523  0.00  0.00    +0.000 N 
ATOM     21  C   UNL     1       0.507   9.704  20.632  0.00  0.00    +0.000 A 
ATOM     22  C   UNL     1      -0.111   8.839  21.669  0.00  0.00    +0.000 C 
BRANCH  20  23
ATOM     23  C   UNL     1      -0.189  12.005  21.473  0.00  0.00    +0.000 A 
ATOM     24  C   UNL     1      -1.250  11.618  22.306  0.00  0.00    +0.000 A 
ATOM     25  C   UNL     1      -1.784  12.519  23.229  0.00  0.00    +0.000 A 
ATOM     26  C   UNL     1      -1.284  13.818  23.303  0.00  0.00    +0.000 A 
ATOM     27  C   UNL     1      -0.249  14.217  22.459  0.00  0.00    +0.000 A 
ATOM     28  C   UNL     1       0.301  13.315  21.544  0.00  0.00    +0.000 A 
ENDBRANCH  20  23
ENDBRANCH   3  17
TORSDOF 3
ENDMDL
MODEL 9
REMARK VINA RESULT:      -8.1      1.978      3.185
REMARK  Name = 
REMARK  5 active torsions:
REMARK  status: ('A' for Active; 'I' for Inactive)
REMARK    1  A    between atoms: C_1  and  C_2
REMARK    2  A    between atoms: C_4  and  C_5
REMARK    3  A    between atoms: N_7  and  C_8
REMARK    4  A    between atoms: N_11  and  C_12
REMARK    5  A    between atoms: C_18  and  C_19
REMARK                            x       y       z     vdW  Elec       q    Type
REMARK                         _______ _______ _______ _____ _____    ______ ____
ROOT
ATOM      1  C   UNL     1       1.932   7.761  19.317  0.00  0.00    +0.000 C 
ATOM      2  O   UNL     1       1.930   8.302  18.217  0.00  0.00    +0.000 OA
ATOM      3  N   UNL     1       1.391   8.303  20.468  0.00  0.00    +0.000 N 
ATOM      4  H   UNL     1       1.442   7.797  21.341  0.00  0.00    +0.000 HD
ENDROOT
BRANCH   1   8
ATOM      5  C   UNL     1       2.131   3.315  21.610  0.00  0.00    +0.000 C 
ATOM      6  C   UNL     1       2.567   4.266  20.536  0.00  0.00    +0.000 A 
ATOM      7  C   UNL     1       2.055   5.548  20.456  0.00  0.00    +0.000 A 
ATOM      8  C   UNL     1       2.539   6.398  19.454  0.00  0.00    +0.000 A 
ATOM      9  C   UNL     1       3.522   5.940  18.537  0.00  0.00    +0.000 A 
ATOM     10  C   UNL     1       4.126   6.718  17.511  0.00  0.00    +0.000 A 
ATOM     11  C   UNL     1       5.060   6.168  16.640  0.00  0.00    +0.000 A 
ATOM     12  C   UNL     1       5.403   4.835  16.782  0.00  0.00    +0.000 A 
ATOM     13  F   UNL     1       6.291   4.286  15.943  0.00  0.00    +0.000 F 
ATOM     14  C   UNL     1       4.848   4.062  17.790  0.00  0.00    +0.000 A 
ATOM     15  C   UNL     1       3.929   4.596  18.681  0.00  0.00    +0.000 A 
ATOM     16  N   UNL     1       3.474   3.795  19.655  0.00  0.00    +0.000 NA
ENDBRANCH   1   8
BRANCH   3  17
ATOM     17  C   UNL     1       0.775   9.545  20.511  0.00  0.00    +0.000 A 
ATOM     18  C   UNL     1       0.595  10.516  19.511  0.00  0.00    +0.000 A 
ATOM     19  N   UNL     1      -0.113  11.560  19.936  0.00  0.00    +0.000 NA
ATOM     20  N   UNL     1      -0.271  11.347  21.267  0.00  0.00    +0.000 N 
ATOM     21  C   UNL     1       0.137  10.065  21.626  0.00  0.00    +0.000 A 
ATOM     22  C   UNL     1      -0.181   9.398  22.915  0.00  0.00    +0.000 C 
BRANCH  20  23
ATOM     23  C   UNL     1      -0.772  12.401  22.077  0.00  0.00    +0.000 A 
ATOM     24  C   UNL     1      -2.014  12.247  22.712  0.00  0.00    +0.000 A 
ATOM     25  C   UNL     1      -2.537  13.280  23.492  0.00  0.00    +0.000 A 
ATOM     26  C   UNL     1      -1.840  14.480  23.617  0.00  0.00    +0.000 A 
ATOM     27  C   UNL     1      -0.619  14.649  22.965  0.00  0.00    +0.000 A 
ATOM     28  C   UNL     1      -0.081  13.613  22.197  0.00  0.00    +0.000 A 
ENDBRANCH  20  23
ENDBRANCH   3  17
TORSDOF 3
ENDMDL
