MODEL 1
REMARK VINA RESULT:      -8.7      0.000      0.000
REMARK  Name = 
REMARK  5 active torsions:
REMARK  status: ('A' for Active; 'I' for Inactive)
REMARK    1  A    between atoms: C_2  and  C_16
REMARK    2  A    between atoms: N_3  and  C_4
REMARK    3  A    between atoms: N_7  and  C_8
REMARK    4  A    between atoms: C_8  and  C_9
REMARK    5  A    between atoms: C_19  and  N_20
REMARK                            x       y       z     vdW  Elec       q    Type
REMARK                         _______ _______ _______ _____ _____    ______ ____
ROOT
ATOM      1  O   UNL     1       7.648   9.384  17.423  0.00  0.00    +0.000 OA
ATOM      2  C   UNL     1       8.487   9.168  18.288  0.00  0.00    +0.000 C 
ATOM      3  N   UNL     1       8.705   7.958  18.923  0.00  0.00    +0.000 N 
ATOM      4  H   UNL     1       9.366   7.903  19.686  0.00  0.00    +0.000 HD
ENDROOT
BRANCH   2   5
ATOM      5  C   UNL     1       9.326  10.298  18.762  0.00  0.00    +0.000 A 
ATOM      6  C   UNL     1      10.002  11.053  17.800  0.00  0.00    +0.000 A 
ATOM      7  C   UNL     1      10.781  12.143  18.188  0.00  0.00    +0.000 A 
ATOM      8  C   UNL     1      10.889  12.501  19.537  0.00  0.00    +0.000 A 
ATOM      9  C   UNL     1      10.264  11.698  20.499  0.00  0.00    +0.000 A 
ATOM     10  C   UNL     1       9.470  10.610  20.118  0.00  0.00    +0.000 A 
BRANCH   8  11
ATOM     11  N   UNL     1      11.674  13.587  19.959  0.00  0.00    +0.000 N 
ATOM     12  C   UNL     1      11.319  14.935  19.849  0.00  0.00    +0.000 A 
ATOM     13  N   UNL     1      10.020  15.284  19.857  0.00  0.00    +0.000 NA
ATOM     14  C   UNL     1       9.722  16.589  19.766  0.00  0.00    +0.000 A 
ATOM     15  C   UNL     1      10.678  17.568  19.672  0.00  0.00    +0.000 A 
ATOM     16  C   UNL     1      11.976  17.123  19.673  0.00  0.00    +0.000 A 
ATOM     17  N   UNL     1      12.322  15.822  19.756  0.00  0.00    +0.000 NA
ATOM     18  H   UNL     1      12.652  13.514  19.700  0.00  0.00    +0.000 HD
ENDBRANCH   8  11
ENDBRANCH   2   5
BRANCH   3  19
ATOM     19  C   UNL     1       7.941   6.831  18.684  0.00  0.00    +0.000 A 
ATOM     20  C   UNL     1       7.876   5.592  19.359  0.00  0.00    +0.000 A 
ATOM     21  N   UNL     1       7.054   4.726  18.757  0.00  0.00    +0.000 NA
ATOM     22  N   UNL     1       6.572   5.425  17.706  0.00  0.00    +0.000 N 
ATOM     23  C   UNL     1       7.059   6.704  17.639  0.00  0.00    +0.000 A 
BRANCH  22  24
ATOM     24  C   UNL     1       5.750   4.753  16.707  0.00  0.00    +0.000 C 
BRANCH  24  25
ATOM     25  C   UNL     1       4.340   4.506  17.183  0.00  0.00    +0.000 A 
ATOM     26  C   UNL     1       3.518   5.579  17.558  0.00  0.00    +0.000 A 
ATOM     27  C   UNL     1       2.204   5.352  17.974  0.00  0.00    +0.000 A 
ATOM     28  C   UNL     1       1.697   4.055  18.012  0.00  0.00    +0.000 A 
ATOM     29  C   UNL     1       2.497   2.983  17.628  0.00  0.00    +0.000 A 
ATOM     30  C   UNL     1       3.810   3.207  17.211  0.00  0.00    +0.000 A 
ENDBRANCH  24  25
ENDBRANCH  22  24
ENDBRANCH   3  19
TORSDOF 5
ENDMDL
MODEL 2
REMARK VINA RESULT:      -8.6      7.471     10.063
REMARK  Name = 
REMARK  5 active torsions:
REMARK  status: ('A' for Active; 'I' for Inactive)
REMARK    1  A    between atoms: C_2  and  C_16
REMARK    2  A    between atoms: N_3  and  C_4
REMARK    3  A    between atoms: N_7  and  C_8
REMARK    4  A    between atoms: C_8  and  C_9
REMARK    5  A    between atoms: C_19  and  N_20
REMARK                            x       y       z     vdW  Elec       q    Type
REMARK                         _______ _______ _______ _____ _____    ______ ____
ROOT
ATOM      1  O   UNL     1       1.304   9.106  19.141  0.00  0.00    +0.000 OA
ATOM      2  C   UNL     1       1.113   8.802  20.311  0.00  0.00    +0.000 C 
ATOM      3  N   UNL     1       1.458   7.600  20.904  0.00  0.00    +0.000 N 
ATOM      4  H   UNL     1       1.181   7.413  21.858  0.00  0.00    +0.000 HD
ENDROOT
BRANCH   2   5
ATOM      5  C   UNL     1       0.400   9.766  21.189  0.00  0.00    +0.000 A 
ATOM      6  C   UNL     1       0.328  11.096  20.768  0.00  0.00    +0.000 A 
ATOM      7  C   UNL     1      -0.355  12.036  21.541  0.00  0.00    +0.000 A 
ATOM      8  C   UNL     1      -0.981  11.662  22.736  0.00  0.00    +0.000 A 
ATOM      9  C   UNL     1      -0.845  10.341  23.183  0.00  0.00    +0.000 A 
ATOM     10  C   UNL     1      -0.172   9.389  22.408  0.00  0.00    +0.000 A 
BRANCH   8  11
ATOM     11  N   UNL     1      -1.667  12.588  23.539  0.00  0.00    +0.000 N 
ATOM     12  C   UNL     1      -2.939  13.106  23.274  0.00  0.00    +0.000 A 
ATOM     13  N   UNL     1      -3.821  12.376  22.570  0.00  0.00    +0.000 NA
ATOM     14  C   UNL     1      -5.036  12.902  22.352  0.00  0.00    +0.000 A 
ATOM     15  C   UNL     1      -5.409  14.137  22.818  0.00  0.00    +0.000 A 
ATOM     16  C   UNL     1      -4.447  14.811  23.528  0.00  0.00    +0.000 A 
ATOM     17  N   UNL     1      -3.212  14.324  23.765  0.00  0.00    +0.000 NA
ATOM     18  H   UNL     1      -1.092  13.358  23.862  0.00  0.00    +0.000 HD
ENDBRANCH   8  11
ENDBRANCH   2   5
BRANCH   3  19
ATOM     19  C   UNL     1       2.028   6.551  20.208  0.00  0.00    +0.000 A 
ATOM     20  C   UNL     1       2.004   5.158  20.442  0.00  0.00    +0.000 A 
ATOM     21  N   UNL     1       2.755   4.481  19.567  0.00  0.00    +0.000 NA
ATOM     22  N   UNL     1       3.241   5.444  18.754  0.00  0.00    +0.000 N 
ATOM     23  C   UNL     1       2.808   6.701  19.087  0.00  0.00    +0.000 A 
BRANCH  22  24
ATOM     24  C   UNL     1       4.245   5.107  17.752  0.00  0.00    +0.000 C 
BRANCH  24  25
ATOM     25  C   UNL     1       5.579   5.754  18.023  0.00  0.00    +0.000 A 
ATOM     26  C   UNL     1       6.402   5.282  19.057  0.00  0.00    +0.000 A 
ATOM     27  C   UNL     1       7.649   5.865  19.292  0.00  0.00    +0.000 A 
ATOM     28  C   UNL     1       8.091   6.918  18.494  0.00  0.00    +0.000 A 
ATOM     29  C   UNL     1       7.290   7.386  17.455  0.00  0.00    +0.000 A 
ATOM     30  C   UNL     1       6.045   6.805  17.217  0.00  0.00    +0.000 A 
ENDBRANCH  24  25
ENDBRANCH  22  24
ENDBRANCH   3  19
TORSDOF 5
ENDMDL
MODEL 3
REMARK VINA RESULT:      -8.5      7.494     10.097
REMARK  Name = 
REMARK  5 active torsions:
REMARK  status: ('A' for Active; 'I' for Inactive)
REMARK    1  A    between atoms: C_2  and  C_16
REMARK    2  A    between atoms: N_3  and  C_4
REMARK    3  A    between atoms: N_7  and  C_8
REMARK    4  A    between atoms: C_8  and  C_9
REMARK    5  A    between atoms: C_19  and  N_20
REMARK                            x       y       z     vdW  Elec       q    Type
REMARK                         _______ _______ _______ _____ _____    ______ ____
ROOT
ATOM      1  O   UNL     1       1.301   9.110  19.106  0.00  0.00    +0.000 OA
ATOM      2  C   UNL     1       1.091   8.852  20.285  0.00  0.00    +0.000 C 
ATOM      3  N   UNL     1       1.437   7.680  20.933  0.00  0.00    +0.000 N 
ATOM      4  H   UNL     1       1.144   7.530  21.889  0.00  0.00    +0.000 HD
ENDROOT
BRANCH   2   5
ATOM      5  C   UNL     1       0.352   9.843  21.107  0.00  0.00    +0.000 A 
ATOM      6  C   UNL     1      -0.200   9.405  22.314  0.00  0.00    +0.000 A 
ATOM      7  C   UNL     1      -0.880  10.302  23.138  0.00  0.00    +0.000 A 
ATOM      8  C   UNL     1      -1.011  11.648  22.776  0.00  0.00    +0.000 A 
ATOM      9  C   UNL     1      -0.514  12.063  21.534  0.00  0.00    +0.000 A 
ATOM     10  C   UNL     1       0.181  11.173  20.707  0.00  0.00    +0.000 A 
BRANCH   8  11
ATOM     11  N   UNL     1      -1.698  12.572  23.581  0.00  0.00    +0.000 N 
ATOM     12  C   UNL     1      -2.968  13.094  23.311  0.00  0.00    +0.000 A 
ATOM     13  N   UNL     1      -3.848  12.370  22.598  0.00  0.00    +0.000 NA
ATOM     14  C   UNL     1      -5.060  12.900  22.376  0.00  0.00    +0.000 A 
ATOM     15  C   UNL     1      -5.433  14.133  22.847  0.00  0.00    +0.000 A 
ATOM     16  C   UNL     1      -4.474  14.802  23.565  0.00  0.00    +0.000 A 
ATOM     17  N   UNL     1      -3.241  14.310  23.807  0.00  0.00    +0.000 NA
ATOM     18  H   UNL     1      -1.124  13.339  23.911  0.00  0.00    +0.000 HD
ENDBRANCH   8  11
ENDBRANCH   2   5
BRANCH   3  19
ATOM     19  C   UNL     1       2.031   6.609  20.293  0.00  0.00    +0.000 A 
ATOM     20  C   UNL     1       2.129   5.247  20.654  0.00  0.00    +0.000 A 
ATOM     21  N   UNL     1       2.862   4.541  19.787  0.00  0.00    +0.000 NA
ATOM     22  N   UNL     1       3.212   5.451  18.852  0.00  0.00    +0.000 N 
ATOM     23  C   UNL     1       2.712   6.702  19.103  0.00  0.00    +0.000 A 
BRANCH  22  24
ATOM     24  C   UNL     1       4.162   5.087  17.808  0.00  0.00    +0.000 C 
BRANCH  24  25
ATOM     25  C   UNL     1       5.524   5.699  18.018  0.00  0.00    +0.000 A 
ATOM     26  C   UNL     1       5.956   6.766  17.215  0.00  0.00    +0.000 A 
ATOM     27  C   UNL     1       7.206   7.349  17.427  0.00  0.00    +0.000 A 
ATOM     28  C   UNL     1       8.034   6.881  18.446  0.00  0.00    +0.000 A 
ATOM     29  C   UNL     1       7.611   5.833  19.259  0.00  0.00    +0.000 A 
ATOM     30  C   UNL     1       6.361   5.248  19.050  0.00  0.00    +0.000 A 
ENDBRANCH  24  25
ENDBRANCH  22  24
ENDBRANCH   3  19
TORSDOF 5
ENDMDL
MODEL 4
REMARK VINA RESULT:      -8.5      8.620     11.339
REMARK  Name = 
REMARK  5 active torsions:
REMARK  status: ('A' for Active; 'I' for Inactive)
REMARK    1  A    between atoms: C_2  and  C_16
REMARK    2  A    between atoms: N_3  and  C_4
REMARK    3  A    between atoms: N_7  and  C_8
REMARK    4  A    between atoms: C_8  and  C_9
REMARK    5  A    between atoms: C_19  and  N_20
REMARK                            x       y       z     vdW  Elec       q    Type
REMARK                         _______ _______ _______ _____ _____    ______ ____
ROOT
ATOM      1  O   UNL     1       1.317  10.123  21.911  0.00  0.00    +0.000 OA
ATOM      2  C   UNL     1       0.358  10.277  21.166  0.00  0.00    +0.000 C 
ATOM      3  N   UNL     1       0.237   9.776  19.883  0.00  0.00    +0.000 N 
ATOM      4  H   UNL     1      -0.562  10.030  19.317  0.00  0.00    +0.000 HD
ENDROOT
BRANCH   2   5
ATOM      5  C   UNL     1      -0.774  11.120  21.632  0.00  0.00    +0.000 A 
ATOM      6  C   UNL     1      -1.357  11.993  20.710  0.00  0.00    +0.000 A 
ATOM      7  C   UNL     1      -2.441  12.785  21.088  0.00  0.00    +0.000 A 
ATOM      8  C   UNL     1      -2.964  12.712  22.385  0.00  0.00    +0.000 A 
ATOM      9  C   UNL     1      -2.330  11.885  23.320  0.00  0.00    +0.000 A 
ATOM     10  C   UNL     1      -1.250  11.077  22.947  0.00  0.00    +0.000 A 
BRANCH   8  11
ATOM     11  N   UNL     1      -4.048  13.505  22.796  0.00  0.00    +0.000 N 
ATOM     12  C   UNL     1      -5.355  13.409  22.307  0.00  0.00    +0.000 A 
ATOM     13  N   UNL     1      -5.805  12.231  21.841  0.00  0.00    +0.000 NA
ATOM     14  C   UNL     1      -7.070  12.177  21.397  0.00  0.00    +0.000 A 
ATOM     15  C   UNL     1      -7.912  13.260  21.405  0.00  0.00    +0.000 A 
ATOM     16  C   UNL     1      -7.369  14.420  21.899  0.00  0.00    +0.000 A 
ATOM     17  N   UNL     1      -6.102  14.522  22.350  0.00  0.00    +0.000 NA
ATOM     18  H   UNL     1      -3.830  14.492  22.874  0.00  0.00    +0.000 HD
ENDBRANCH   8  11
ENDBRANCH   2   5
BRANCH   3  19
ATOM     19  C   UNL     1       1.240   9.064  19.252  0.00  0.00    +0.000 A 
ATOM     20  C   UNL     1       1.907   9.285  18.027  0.00  0.00    +0.000 A 
ATOM     21  N   UNL     1       2.774   8.309  17.736  0.00  0.00    +0.000 NA
ATOM     22  N   UNL     1       2.679   7.474  18.793  0.00  0.00    +0.000 N 
ATOM     23  C   UNL     1       1.787   7.903  19.741  0.00  0.00    +0.000 A 
BRANCH  22  24
ATOM     24  C   UNL     1       3.370   6.190  18.766  0.00  0.00    +0.000 C 
BRANCH  24  25
ATOM     25  C   UNL     1       2.501   5.051  19.237  0.00  0.00    +0.000 A 
ATOM     26  C   UNL     1       1.774   4.282  18.315  0.00  0.00    +0.000 A 
ATOM     27  C   UNL     1       0.991   3.211  18.748  0.00  0.00    +0.000 A 
ATOM     28  C   UNL     1       0.930   2.892  20.102  0.00  0.00    +0.000 A 
ATOM     29  C   UNL     1       1.658   3.637  21.026  0.00  0.00    +0.000 A 
ATOM     30  C   UNL     1       2.443   4.707  20.596  0.00  0.00    +0.000 A 
ENDBRANCH  24  25
ENDBRANCH  22  24
ENDBRANCH   3  19
TORSDOF 5
ENDMDL
MODEL 5
REMARK VINA RESULT:      -8.4      7.289      9.876
REMARK  Name = 
REMARK  5 active torsions:
REMARK  status: ('A' for Active; 'I' for Inactive)
REMARK    1  A    between atoms: C_2  and  C_16
REMARK    2  A    between atoms: N_3  and  C_4
REMARK    3  A    between atoms: N_7  and  C_8
REMARK    4  A    between atoms: C_8  and  C_9
REMARK    5  A    between atoms: C_19  and  N_20
REMARK                            x       y       z     vdW  Elec       q    Type
REMARK                         _______ _______ _______ _____ _____    ______ ____
ROOT
ATOM      1  O   UNL     1       1.464   8.601  19.221  0.00  0.00    +0.000 OA
ATOM      2  C   UNL     1       1.224   8.372  20.400  0.00  0.00    +0.000 C 
ATOM      3  N   UNL     1       1.482   7.187  21.065  0.00  0.00    +0.000 N 
ATOM      4  H   UNL     1       1.169   7.069  22.019  0.00  0.00    +0.000 HD
ENDROOT
BRANCH   2   5
ATOM      5  C   UNL     1       0.543   9.421  21.202  0.00  0.00    +0.000 A 
ATOM      6  C   UNL     1       0.564  10.729  20.714  0.00  0.00    +0.000 A 
ATOM      7  C   UNL     1      -0.084  11.747  21.414  0.00  0.00    +0.000 A 
ATOM      8  C   UNL     1      -0.769  11.473  22.604  0.00  0.00    +0.000 A 
ATOM      9  C   UNL     1      -0.727  10.172  23.121  0.00  0.00    +0.000 A 
ATOM     10  C   UNL     1      -0.089   9.142  22.419  0.00  0.00    +0.000 A 
BRANCH   8  11
ATOM     11  N   UNL     1      -1.422  12.479  23.336  0.00  0.00    +0.000 N 
ATOM     12  C   UNL     1      -2.670  13.028  23.023  0.00  0.00    +0.000 A 
ATOM     13  N   UNL     1      -3.576  12.287  22.361  0.00  0.00    +0.000 NA
ATOM     14  C   UNL     1      -4.767  12.846  22.096  0.00  0.00    +0.000 A 
ATOM     15  C   UNL     1      -5.093  14.123  22.474  0.00  0.00    +0.000 A 
ATOM     16  C   UNL     1      -4.110  14.805  23.145  0.00  0.00    +0.000 A 
ATOM     17  N   UNL     1      -2.897  14.287  23.428  0.00  0.00    +0.000 NA
ATOM     18  H   UNL     1      -0.819  13.246  23.611  0.00  0.00    +0.000 HD
ENDBRANCH   8  11
ENDBRANCH   2   5
BRANCH   3  19
ATOM     19  C   UNL     1       2.011   6.072  20.444  0.00  0.00    +0.000 A 
ATOM     20  C   UNL     1       1.471   4.784  20.229  0.00  0.00    +0.000 A 
ATOM     21  N   UNL     1       2.344   3.955  19.648  0.00  0.00    +0.000 NA
ATOM     22  N   UNL     1       3.440   4.725  19.466  0.00  0.00    +0.000 N 
ATOM     23  C   UNL     1       3.273   6.012  19.907  0.00  0.00    +0.000 A 
BRANCH  22  24
ATOM     24  C   UNL     1       4.679   4.121  18.993  0.00  0.00    +0.000 C 
BRANCH  24  25
ATOM     25  C   UNL     1       5.663   5.139  18.475  0.00  0.00    +0.000 A 
ATOM     26  C   UNL     1       5.386   5.868  17.309  0.00  0.00    +0.000 A 
ATOM     27  C   UNL     1       6.286   6.829  16.845  0.00  0.00    +0.000 A 
ATOM     28  C   UNL     1       7.466   7.078  17.542  0.00  0.00    +0.000 A 
ATOM     29  C   UNL     1       7.746   6.372  18.709  0.00  0.00    +0.000 A 
ATOM     30  C   UNL     1       6.849   5.412  19.176  0.00  0.00    +0.000 A 
ENDBRANCH  24  25
ENDBRANCH  22  24
ENDBRANCH   3  19
TORSDOF 5
ENDMDL
MODEL 6
REMARK VINA RESULT:      -8.3      7.390      9.571
REMARK  Name = 
REMARK  5 active torsions:
REMARK  status: ('A' for Active; 'I' for Inactive)
REMARK    1  A    between atoms: C_2  and  C_16
REMARK    2  A    between atoms: N_3  and  C_4
REMARK    3  A    between atoms: N_7  and  C_8
REMARK    4  A    between atoms: C_8  and  C_9
REMARK    5  A    between atoms: C_19  and  N_20
REMARK                            x       y       z     vdW  Elec       q    Type
REMARK                         _______ _______ _______ _____ _____    ______ ____
ROOT
ATOM      1  O   UNL     1       1.811   8.334  19.003  0.00  0.00    +0.000 OA
ATOM      2  C   UNL     1       1.463   8.149  20.162  0.00  0.00    +0.000 C 
ATOM      3  N   UNL     1       1.592   6.967  20.870  0.00  0.00    +0.000 N 
ATOM      4  H   UNL     1       1.196   6.892  21.797  0.00  0.00    +0.000 HD
ENDROOT
BRANCH   2   5
ATOM      5  C   UNL     1       0.788   9.257  20.886  0.00  0.00    +0.000 A 
ATOM      6  C   UNL     1       0.124   8.947  22.076  0.00  0.00    +0.000 A 
ATOM      7  C   UNL     1      -0.502   9.955  22.809  0.00  0.00    +0.000 A 
ATOM      8  C   UNL     1      -0.467  11.285  22.373  0.00  0.00    +0.000 A 
ATOM      9  C   UNL     1       0.142  11.575  21.146  0.00  0.00    +0.000 A 
ATOM     10  C   UNL     1       0.783  10.572  20.409  0.00  0.00    +0.000 A 
BRANCH   8  11
ATOM     11  N   UNL     1      -1.097  12.319  23.085  0.00  0.00    +0.000 N 
ATOM     12  C   UNL     1      -2.289  12.949  22.714  0.00  0.00    +0.000 A 
ATOM     13  N   UNL     1      -3.201  12.275  21.992  0.00  0.00    +0.000 NA
ATOM     14  C   UNL     1      -4.339  12.910  21.671  0.00  0.00    +0.000 A 
ATOM     15  C   UNL     1      -4.606  14.200  22.052  0.00  0.00    +0.000 A 
ATOM     16  C   UNL     1      -3.622  14.811  22.788  0.00  0.00    +0.000 A 
ATOM     17  N   UNL     1      -2.461  14.214  23.128  0.00  0.00    +0.000 NA
ATOM     18  H   UNL     1      -0.464  13.043  23.406  0.00  0.00    +0.000 HD
ENDBRANCH   8  11
ENDBRANCH   2   5
BRANCH   3  19
ATOM     19  C   UNL     1       2.096   5.806  20.316  0.00  0.00    +0.000 A 
ATOM     20  C   UNL     1       1.487   4.558  20.057  0.00  0.00    +0.000 A 
ATOM     21  N   UNL     1       2.352   3.659  19.576  0.00  0.00    +0.000 NA
ATOM     22  N   UNL     1       3.514   4.344  19.503  0.00  0.00    +0.000 N 
ATOM     23  C   UNL     1       3.400   5.646  19.913  0.00  0.00    +0.000 A 
BRANCH  22  24
ATOM     24  C   UNL     1       4.747   3.643  19.165  0.00  0.00    +0.000 C 
BRANCH  24  25
ATOM     25  C   UNL     1       5.371   4.145  17.887  0.00  0.00    +0.000 A 
ATOM     26  C   UNL     1       6.641   4.743  17.903  0.00  0.00    +0.000 A 
ATOM     27  C   UNL     1       7.230   5.184  16.717  0.00  0.00    +0.000 A 
ATOM     28  C   UNL     1       6.563   5.027  15.503  0.00  0.00    +0.000 A 
ATOM     29  C   UNL     1       5.309   4.422  15.472  0.00  0.00    +0.000 A 
ATOM     30  C   UNL     1       4.719   3.979  16.656  0.00  0.00    +0.000 A 
ENDBRANCH  24  25
ENDBRANCH  22  24
ENDBRANCH   3  19
TORSDOF 5
ENDMDL
MODEL 7
REMARK VINA RESULT:      -8.3      0.774      1.306
REMARK  Name = 
REMARK  5 active torsions:
REMARK  status: ('A' for Active; 'I' for Inactive)
REMARK    1  A    between atoms: C_2  and  C_16
REMARK    2  A    between atoms: N_3  and  C_4
REMARK    3  A    between atoms: N_7  and  C_8
REMARK    4  A    between atoms: C_8  and  C_9
REMARK    5  A    between atoms: C_19  and  N_20
REMARK                            x       y       z     vdW  Elec       q    Type
REMARK                         _______ _______ _______ _____ _____    ______ ____
ROOT
ATOM      1  O   UNL     1       7.391   9.317  17.366  0.00  0.00    +0.000 OA
ATOM      2  C   UNL     1       8.262   9.042  18.181  0.00  0.00    +0.000 C 
ATOM      3  N   UNL     1       8.507   7.790  18.717  0.00  0.00    +0.000 N 
ATOM      4  H   UNL     1       9.197   7.683  19.448  0.00  0.00    +0.000 HD
ENDROOT
BRANCH   2   5
ATOM      5  C   UNL     1       9.117  10.139  18.704  0.00  0.00    +0.000 A 
ATOM      6  C   UNL     1       9.741  10.975  17.775  0.00  0.00    +0.000 A 
ATOM      7  C   UNL     1      10.530  12.039  18.213  0.00  0.00    +0.000 A 
ATOM      8  C   UNL     1      10.701  12.288  19.580  0.00  0.00    +0.000 A 
ATOM      9  C   UNL     1      10.128  11.404  20.502  0.00  0.00    +0.000 A 
ATOM     10  C   UNL     1       9.323  10.342  20.072  0.00  0.00    +0.000 A 
BRANCH   8  11
ATOM     11  N   UNL     1      11.499  13.344  20.050  0.00  0.00    +0.000 N 
ATOM     12  C   UNL     1      11.263  14.703  19.818  0.00  0.00    +0.000 A 
ATOM     13  N   UNL     1      10.006  15.137  19.622  0.00  0.00    +0.000 NA
ATOM     14  C   UNL     1       9.821  16.450  19.420  0.00  0.00    +0.000 A 
ATOM     15  C   UNL     1      10.851  17.356  19.411  0.00  0.00    +0.000 A 
ATOM     16  C   UNL     1      12.099  16.827  19.621  0.00  0.00    +0.000 A 
ATOM     17  N   UNL     1      12.333  15.514  19.822  0.00  0.00    +0.000 NA
ATOM     18  H   UNL     1      12.495  13.191  19.938  0.00  0.00    +0.000 HD
ENDBRANCH   8  11
ENDBRANCH   2   5
BRANCH   3  19
ATOM     19  C   UNL     1       7.738   6.680  18.425  0.00  0.00    +0.000 A 
ATOM     20  C   UNL     1       7.289   6.158  17.191  0.00  0.00    +0.000 A 
ATOM     21  N   UNL     1       6.492   5.095  17.346  0.00  0.00    +0.000 NA
ATOM     22  N   UNL     1       6.452   4.922  18.686  0.00  0.00    +0.000 N 
ATOM     23  C   UNL     1       7.209   5.837  19.371  0.00  0.00    +0.000 A 
BRANCH  22  24
ATOM     24  C   UNL     1       5.543   3.939  19.261  0.00  0.00    +0.000 C 
BRANCH  24  25
ATOM     25  C   UNL     1       4.144   4.045  18.709  0.00  0.00    +0.000 A 
ATOM     26  C   UNL     1       3.762   3.291  17.589  0.00  0.00    +0.000 A 
ATOM     27  C   UNL     1       2.459   3.370  17.093  0.00  0.00    +0.000 A 
ATOM     28  C   UNL     1       1.523   4.196  17.713  0.00  0.00    +0.000 A 
ATOM     29  C   UNL     1       1.885   4.938  18.834  0.00  0.00    +0.000 A 
ATOM     30  C   UNL     1       3.186   4.860  19.332  0.00  0.00    +0.000 A 
ENDBRANCH  24  25
ENDBRANCH  22  24
ENDBRANCH   3  19
TORSDOF 5
ENDMDL
MODEL 8
REMARK VINA RESULT:      -8.3      8.903     11.393
REMARK  Name = 
REMARK  5 active torsions:
REMARK  status: ('A' for Active; 'I' for Inactive)
REMARK    1  A    between atoms: C_2  and  C_16
REMARK    2  A    between atoms: N_3  and  C_4
REMARK    3  A    between atoms: N_7  and  C_8
REMARK    4  A    between atoms: C_8  and  C_9
REMARK    5  A    between atoms: C_19  and  N_20
REMARK                            x       y       z     vdW  Elec       q    Type
REMARK                         _______ _______ _______ _____ _____    ______ ____
ROOT
ATOM      1  O   UNL     1       1.327  12.011  20.371  0.00  0.00    +0.000 OA
ATOM      2  C   UNL     1       0.368  11.302  20.650  0.00  0.00    +0.000 C 
ATOM      3  N   UNL     1       0.176   9.997  20.234  0.00  0.00    +0.000 N 
ATOM      4  H   UNL     1      -0.692   9.524  20.449  0.00  0.00    +0.000 HD
ENDROOT
BRANCH   2   5
ATOM      5  C   UNL     1      -0.733  11.883  21.461  0.00  0.00    +0.000 A 
ATOM      6  C   UNL     1      -1.299  13.083  21.023  0.00  0.00    +0.000 A 
ATOM      7  C   UNL     1      -2.355  13.656  21.731  0.00  0.00    +0.000 A 
ATOM      8  C   UNL     1      -2.866  13.039  22.879  0.00  0.00    +0.000 A 
ATOM      9  C   UNL     1      -2.247  11.873  23.349  0.00  0.00    +0.000 A 
ATOM     10  C   UNL     1      -1.195  11.284  22.637  0.00  0.00    +0.000 A 
BRANCH   8  11
ATOM     11  N   UNL     1      -3.921  13.598  23.619  0.00  0.00    +0.000 N 
ATOM     12  C   UNL     1      -5.274  13.544  23.269  0.00  0.00    +0.000 A 
ATOM     13  N   UNL     1      -5.731  12.515  22.534  0.00  0.00    +0.000 NA
ATOM     14  C   UNL     1      -7.038  12.492  22.234  0.00  0.00    +0.000 A 
ATOM     15  C   UNL     1      -7.916  13.461  22.647  0.00  0.00    +0.000 A 
ATOM     16  C   UNL     1      -7.365  14.472  23.394  0.00  0.00    +0.000 A 
ATOM     17  N   UNL     1      -6.056  14.539  23.713  0.00  0.00    +0.000 NA
ATOM     18  H   UNL     1      -3.737  14.537  23.955  0.00  0.00    +0.000 HD
ENDBRANCH   8  11
ENDBRANCH   2   5
BRANCH   3  19
ATOM     19  C   UNL     1       1.046   9.339  19.386  0.00  0.00    +0.000 A 
ATOM     20  C   UNL     1       1.380   9.571  18.033  0.00  0.00    +0.000 A 
ATOM     21  N   UNL     1       2.219   8.649  17.549  0.00  0.00    +0.000 NA
ATOM     22  N   UNL     1       2.442   7.837  18.606  0.00  0.00    +0.000 N 
ATOM     23  C   UNL     1       1.777   8.230  19.738  0.00  0.00    +0.000 A 
BRANCH  22  24
ATOM     24  C   UNL     1       3.196   6.603  18.424  0.00  0.00    +0.000 C 
BRANCH  24  25
ATOM     25  C   UNL     1       2.431   5.382  18.867  0.00  0.00    +0.000 A 
ATOM     26  C   UNL     1       2.230   5.124  20.232  0.00  0.00    +0.000 A 
ATOM     27  C   UNL     1       1.499   4.008  20.641  0.00  0.00    +0.000 A 
ATOM     28  C   UNL     1       0.956   3.141  19.694  0.00  0.00    +0.000 A 
ATOM     29  C   UNL     1       1.136   3.393  18.337  0.00  0.00    +0.000 A 
ATOM     30  C   UNL     1       1.864   4.509  17.925  0.00  0.00    +0.000 A 
ENDBRANCH  24  25
ENDBRANCH  22  24
ENDBRANCH   3  19
TORSDOF 5
ENDMDL
MODEL 9
REMARK VINA RESULT:      -8.2      8.947     11.486
REMARK  Name = 
REMARK  5 active torsions:
REMARK  status: ('A' for Active; 'I' for Inactive)
REMARK    1  A    between atoms: C_2  and  C_16
REMARK    2  A    between atoms: N_3  and  C_4
REMARK    3  A    between atoms: N_7  and  C_8
REMARK    4  A    between atoms: C_8  and  C_9
REMARK    5  A    between atoms: C_19  and  N_20
REMARK                            x       y       z     vdW  Elec       q    Type
REMARK                         _______ _______ _______ _____ _____    ______ ____
ROOT
ATOM      1  O   UNL     1      -1.415  10.090  18.583  0.00  0.00    +0.000 OA
ATOM      2  C   UNL     1      -0.830  10.562  19.549  0.00  0.00    +0.000 C 
ATOM      3  N   UNL     1       0.469  10.276  19.931  0.00  0.00    +0.000 N 
ATOM      4  H   UNL     1       0.833  10.655  20.795  0.00  0.00    +0.000 HD
ENDROOT
BRANCH   2   5
ATOM      5  C   UNL     1      -1.570  11.487  20.444  0.00  0.00    +0.000 A 
ATOM      6  C   UNL     1      -2.567  12.284  19.875  0.00  0.00    +0.000 A 
ATOM      7  C   UNL     1      -3.313  13.149  20.677  0.00  0.00    +0.000 A 
ATOM      8  C   UNL     1      -3.081  13.225  22.055  0.00  0.00    +0.000 A 
ATOM      9  C   UNL     1      -2.035  12.474  22.605  0.00  0.00    +0.000 A 
ATOM     10  C   UNL     1      -1.290  11.594  21.811  0.00  0.00    +0.000 A 
BRANCH   8  11
ATOM     11  N   UNL     1      -3.808  14.095  22.885  0.00  0.00    +0.000 N 
ATOM     12  C   UNL     1      -5.129  13.901  23.303  0.00  0.00    +0.000 A 
ATOM     13  N   UNL     1      -5.614  12.652  23.417  0.00  0.00    +0.000 NA
ATOM     14  C   UNL     1      -6.881  12.509  23.837  0.00  0.00    +0.000 A 
ATOM     15  C   UNL     1      -7.686  13.572  24.155  0.00  0.00    +0.000 A 
ATOM     16  C   UNL     1      -7.110  14.809  24.011  0.00  0.00    +0.000 A 
ATOM     17  N   UNL     1      -5.844  15.001  23.586  0.00  0.00    +0.000 NA
ATOM     18  H   UNL     1      -3.714  15.074  22.640  0.00  0.00    +0.000 HD
ENDBRANCH   8  11
ENDBRANCH   2   5
BRANCH   3  19
ATOM     19  C   UNL     1       1.263   9.355  19.276  0.00  0.00    +0.000 A 
ATOM     20  C   UNL     1       1.507   9.150  17.900  0.00  0.00    +0.000 A 
ATOM     21  N   UNL     1       2.291   8.090  17.673  0.00  0.00    +0.000 NA
ATOM     22  N   UNL     1       2.570   7.631  18.913  0.00  0.00    +0.000 N 
ATOM     23  C   UNL     1       1.994   8.378  19.907  0.00  0.00    +0.000 A 
BRANCH  22  24
ATOM     24  C   UNL     1       3.284   6.370  19.074  0.00  0.00    +0.000 C 
BRANCH  24  25
ATOM     25  C   UNL     1       2.357   5.191  19.226  0.00  0.00    +0.000 A 
ATOM     26  C   UNL     1       1.981   4.433  18.106  0.00  0.00    +0.000 A 
ATOM     27  C   UNL     1       1.144   3.325  18.249  0.00  0.00    +0.000 A 
ATOM     28  C   UNL     1       0.679   2.958  19.511  0.00  0.00    +0.000 A 
ATOM     29  C   UNL     1       1.056   3.693  20.632  0.00  0.00    +0.000 A 
ATOM     30  C   UNL     1       1.894   4.799  20.491  0.00  0.00    +0.000 A 
ENDBRANCH  24  25
ENDBRANCH  22  24
ENDBRANCH   3  19
TORSDOF 5
ENDMDL
