MODEL 1
REMARK VINA RESULT:      -9.0      0.000      0.000
REMARK  Name = 
REMARK  5 active torsions:
REMARK  status: ('A' for Active; 'I' for Inactive)
REMARK    1  A    between atoms: S_2  and  N_4
REMARK    2  A    between atoms: S_2  and  C_16
REMARK    3  A    between atoms: N_4  and  C_5
REMARK    4  A    between atoms: C_7  and  C_8
REMARK    5  A    between atoms: C_20  and  C_21
REMARK                            x       y       z     vdW  Elec       q    Type
REMARK                         _______ _______ _______ _____ _____    ______ ____
ROOT
ATOM      1  O   UNL     1       7.854   5.894  19.413  0.00  0.00    +0.000 OA
ATOM      2  S   UNL     1       7.432   6.080  18.040  0.00  0.00    +0.000 S 
ATOM      3  O   UNL     1       7.954   7.171  17.239  0.00  0.00    +0.000 OA
ENDROOT
BRANCH   2   4
ATOM      4  C   UNL     1       5.658   6.284  18.088  0.00  0.00    +0.000 A 
ATOM      5  C   UNL     1       5.063   7.204  17.221  0.00  0.00    +0.000 A 
ATOM      6  C   UNL     1       3.678   7.324  17.215  0.00  0.00    +0.000 A 
ATOM      7  C   UNL     1       2.892   6.515  18.045  0.00  0.00    +0.000 A 
ATOM      8  C   UNL     1       3.468   5.547  18.894  0.00  0.00    +0.000 A 
ATOM      9  C   UNL     1       4.876   5.470  18.920  0.00  0.00    +0.000 A 
BRANCH   8  10
ATOM     10  C   UNL     1       2.619   4.591  19.651  0.00  0.00    +0.000 A 
ATOM     11  C   UNL     1       1.604   3.853  19.006  0.00  0.00    +0.000 A 
ATOM     12  C   UNL     1       0.843   2.896  19.684  0.00  0.00    +0.000 A 
ATOM     13  C   UNL     1       1.087   2.644  21.028  0.00  0.00    +0.000 A 
ATOM     14  C   UNL     1       2.072   3.362  21.696  0.00  0.00    +0.000 A 
ATOM     15  C   UNL     1       2.823   4.331  21.019  0.00  0.00    +0.000 A 
ENDBRANCH   8  10
ENDBRANCH   2   4
BRANCH   2  16
ATOM     16  N   UNL     1       7.617   4.678  17.198  0.00  0.00    +0.000 N 
ATOM     17  H   UNL     1       7.406   3.850  17.740  0.00  0.00    +0.000 HD
BRANCH  16  18
ATOM     18  C   UNL     1       7.281   4.654  15.856  0.00  0.00    +0.000 A 
ATOM     19  C   UNL     1       6.493   3.722  15.228  0.00  0.00    +0.000 A 
ATOM     20  C   UNL     1       6.482   4.093  13.848  0.00  0.00    +0.000 A 
ATOM     21  N   UNL     1       7.235   5.192  13.663  0.00  0.00    +0.000 NA
ATOM     22  N   UNL     1       7.662   5.535  14.887  0.00  0.00    +0.000 N 
ATOM     23  H   UNL     1       8.255   6.355  14.975  0.00  0.00    +0.000 HD
BRANCH  20  24
ATOM     24  C   UNL     1       5.792   3.436  12.733  0.00  0.00    +0.000 A 
ATOM     25  C   UNL     1       4.585   3.928  12.218  0.00  0.00    +0.000 A 
ATOM     26  C   UNL     1       3.946   3.266  11.167  0.00  0.00    +0.000 A 
ATOM     27  C   UNL     1       4.534   2.124  10.653  0.00  0.00    +0.000 A 
ATOM     28  N   UNL     1       5.699   1.619  11.110  0.00  0.00    +0.000 NA
ATOM     29  C   UNL     1       6.293   2.283  12.133  0.00  0.00    +0.000 A 
ENDBRANCH  20  24
ENDBRANCH  16  18
ENDBRANCH   2  16
TORSDOF 5
ENDMDL
MODEL 2
REMARK VINA RESULT:      -8.7      4.323      7.277
REMARK  Name = 
REMARK  5 active torsions:
REMARK  status: ('A' for Active; 'I' for Inactive)
REMARK    1  A    between atoms: S_2  and  N_4
REMARK    2  A    between atoms: S_2  and  C_16
REMARK    3  A    between atoms: N_4  and  C_5
REMARK    4  A    between atoms: C_7  and  C_8
REMARK    5  A    between atoms: C_20  and  C_21
REMARK                            x       y       z     vdW  Elec       q    Type
REMARK                         _______ _______ _______ _____ _____    ______ ____
ROOT
ATOM      1  O   UNL     1       7.525   5.990  16.044  0.00  0.00    +0.000 OA
ATOM      2  S   UNL     1       7.259   5.353  17.317  0.00  0.00    +0.000 S 
ATOM      3  O   UNL     1       7.818   4.053  17.634  0.00  0.00    +0.000 OA
ENDROOT
BRANCH   2   4
ATOM      4  C   UNL     1       5.485   5.188  17.430  0.00  0.00    +0.000 A 
ATOM      5  C   UNL     1       4.909   3.936  17.203  0.00  0.00    +0.000 A 
ATOM      6  C   UNL     1       3.534   3.790  17.347  0.00  0.00    +0.000 A 
ATOM      7  C   UNL     1       2.743   4.878  17.740  0.00  0.00    +0.000 A 
ATOM      8  C   UNL     1       3.308   6.139  18.020  0.00  0.00    +0.000 A 
ATOM      9  C   UNL     1       4.698   6.280  17.826  0.00  0.00    +0.000 A 
BRANCH   8  10
ATOM     10  C   UNL     1       2.483   7.238  18.584  0.00  0.00    +0.000 A 
ATOM     11  C   UNL     1       2.109   7.240  19.945  0.00  0.00    +0.000 A 
ATOM     12  C   UNL     1       1.395   8.300  20.513  0.00  0.00    +0.000 A 
ATOM     13  C   UNL     1       1.045   9.395  19.733  0.00  0.00    +0.000 A 
ATOM     14  C   UNL     1       1.388   9.419  18.386  0.00  0.00    +0.000 A 
ATOM     15  C   UNL     1       2.090   8.349  17.816  0.00  0.00    +0.000 A 
ENDBRANCH   8  10
ENDBRANCH   2   4
BRANCH   2  16
ATOM     16  N   UNL     1       7.610   6.387  18.549  0.00  0.00    +0.000 N 
ATOM     17  H   UNL     1       8.135   5.958  19.300  0.00  0.00    +0.000 HD
BRANCH  16  18
ATOM     18  C   UNL     1       7.901   7.707  18.252  0.00  0.00    +0.000 A 
ATOM     19  C   UNL     1       8.781   8.519  18.921  0.00  0.00    +0.000 A 
ATOM     20  C   UNL     1       8.697   9.793  18.278  0.00  0.00    +0.000 A 
ATOM     21  N   UNL     1       7.802   9.741  17.275  0.00  0.00    +0.000 NA
ATOM     22  N   UNL     1       7.376   8.469  17.251  0.00  0.00    +0.000 N 
ATOM     23  H   UNL     1       6.684   8.210  16.554  0.00  0.00    +0.000 HD
BRANCH  20  24
ATOM     24  C   UNL     1       9.428  11.024  18.594  0.00  0.00    +0.000 A 
ATOM     25  C   UNL     1      10.399  11.069  19.603  0.00  0.00    +0.000 A 
ATOM     26  C   UNL     1      11.063  12.264  19.889  0.00  0.00    +0.000 A 
ATOM     27  C   UNL     1      10.740  13.390  19.153  0.00  0.00    +0.000 A 
ATOM     28  N   UNL     1       9.818  13.393  18.166  0.00  0.00    +0.000 NA
ATOM     29  C   UNL     1       9.189  12.217  17.916  0.00  0.00    +0.000 A 
ENDBRANCH  20  24
ENDBRANCH  16  18
ENDBRANCH   2  16
TORSDOF 5
ENDMDL
MODEL 3
REMARK VINA RESULT:      -8.7      4.100      5.125
REMARK  Name = 
REMARK  5 active torsions:
REMARK  status: ('A' for Active; 'I' for Inactive)
REMARK    1  A    between atoms: S_2  and  N_4
REMARK    2  A    between atoms: S_2  and  C_16
REMARK    3  A    between atoms: N_4  and  C_5
REMARK    4  A    between atoms: C_7  and  C_8
REMARK    5  A    between atoms: C_20  and  C_21
REMARK                            x       y       z     vdW  Elec       q    Type
REMARK                         _______ _______ _______ _____ _____    ______ ____
ROOT
ATOM      1  O   UNL     1       1.936   4.375  18.837  0.00  0.00    +0.000 OA
ATOM      2  S   UNL     1       2.673   5.186  19.783  0.00  0.00    +0.000 S 
ATOM      3  O   UNL     1       2.505   5.007  21.212  0.00  0.00    +0.000 OA
ENDROOT
BRANCH   2   4
ATOM      4  C   UNL     1       2.241   6.882  19.426  0.00  0.00    +0.000 A 
ATOM      5  C   UNL     1       2.491   7.385  18.146  0.00  0.00    +0.000 A 
ATOM      6  C   UNL     1       2.103   8.686  17.847  0.00  0.00    +0.000 A 
ATOM      7  C   UNL     1       1.448   9.469  18.806  0.00  0.00    +0.000 A 
ATOM      8  C   UNL     1       1.144   8.967  20.088  0.00  0.00    +0.000 A 
ATOM      9  C   UNL     1       1.584   7.661  20.389  0.00  0.00    +0.000 A 
BRANCH   8  10
ATOM     10  C   UNL     1       0.314   9.750  21.038  0.00  0.00    +0.000 A 
ATOM     11  C   UNL     1      -0.017   9.236  22.309  0.00  0.00    +0.000 A 
ATOM     12  C   UNL     1      -0.735   9.985  23.246  0.00  0.00    +0.000 A 
ATOM     13  C   UNL     1      -1.132  11.280  22.938  0.00  0.00    +0.000 A 
ATOM     14  C   UNL     1      -0.833  11.813  21.690  0.00  0.00    +0.000 A 
ATOM     15  C   UNL     1      -0.126  11.055  20.747  0.00  0.00    +0.000 A 
ENDBRANCH   8  10
ENDBRANCH   2   4
BRANCH   2  16
ATOM     16  N   UNL     1       4.281   5.137  19.435  0.00  0.00    +0.000 N 
ATOM     17  H   UNL     1       4.865   4.968  20.245  0.00  0.00    +0.000 HD
BRANCH  16  18
ATOM     18  C   UNL     1       4.690   4.579  18.237  0.00  0.00    +0.000 A 
ATOM     19  C   UNL     1       5.373   5.215  17.231  0.00  0.00    +0.000 A 
ATOM     20  C   UNL     1       5.519   4.246  16.191  0.00  0.00    +0.000 A 
ATOM     21  N   UNL     1       4.943   3.088  16.560  0.00  0.00    +0.000 NA
ATOM     22  N   UNL     1       4.496   3.299  17.807  0.00  0.00    +0.000 N 
ATOM     23  H   UNL     1       4.021   2.537  18.281  0.00  0.00    +0.000 HD
BRANCH  20  24
ATOM     24  C   UNL     1       6.174   4.399  14.888  0.00  0.00    +0.000 A 
ATOM     25  C   UNL     1       5.750   3.685  13.759  0.00  0.00    +0.000 A 
ATOM     26  C   UNL     1       6.409   3.841  12.538  0.00  0.00    +0.000 A 
ATOM     27  C   UNL     1       7.481   4.714  12.474  0.00  0.00    +0.000 A 
ATOM     28  N   UNL     1       7.920   5.429  13.532  0.00  0.00    +0.000 NA
ATOM     29  C   UNL     1       7.260   5.252  14.704  0.00  0.00    +0.000 A 
ENDBRANCH  20  24
ENDBRANCH  16  18
ENDBRANCH   2  16
TORSDOF 5
ENDMDL
MODEL 4
REMARK VINA RESULT:      -8.6      0.562      1.309
REMARK  Name = 
REMARK  5 active torsions:
REMARK  status: ('A' for Active; 'I' for Inactive)
REMARK    1  A    between atoms: S_2  and  N_4
REMARK    2  A    between atoms: S_2  and  C_16
REMARK    3  A    between atoms: N_4  and  C_5
REMARK    4  A    between atoms: C_7  and  C_8
REMARK    5  A    between atoms: C_20  and  C_21
REMARK                            x       y       z     vdW  Elec       q    Type
REMARK                         _______ _______ _______ _____ _____    ______ ____
ROOT
ATOM      1  O   UNL     1       7.837   6.190  19.248  0.00  0.00    +0.000 OA
ATOM      2  S   UNL     1       7.341   6.269  17.890  0.00  0.00    +0.000 S 
ATOM      3  O   UNL     1       7.763   7.334  17.001  0.00  0.00    +0.000 OA
ENDROOT
BRANCH   2   4
ATOM      4  C   UNL     1       5.563   6.383  18.016  0.00  0.00    +0.000 A 
ATOM      5  C   UNL     1       4.892   7.333  17.241  0.00  0.00    +0.000 A 
ATOM      6  C   UNL     1       3.504   7.386  17.293  0.00  0.00    +0.000 A 
ATOM      7  C   UNL     1       2.789   6.482  18.090  0.00  0.00    +0.000 A 
ATOM      8  C   UNL     1       3.442   5.485  18.844  0.00  0.00    +0.000 A 
ATOM      9  C   UNL     1       4.852   5.475  18.814  0.00  0.00    +0.000 A 
BRANCH   8  10
ATOM     10  C   UNL     1       2.668   4.438  19.559  0.00  0.00    +0.000 A 
ATOM     11  C   UNL     1       2.675   4.364  20.968  0.00  0.00    +0.000 A 
ATOM     12  C   UNL     1       1.896   3.434  21.663  0.00  0.00    +0.000 A 
ATOM     13  C   UNL     1       1.078   2.557  20.963  0.00  0.00    +0.000 A 
ATOM     14  C   UNL     1       1.056   2.595  19.573  0.00  0.00    +0.000 A 
ATOM     15  C   UNL     1       1.849   3.518  18.879  0.00  0.00    +0.000 A 
ENDBRANCH   8  10
ENDBRANCH   2   4
BRANCH   2  16
ATOM     16  N   UNL     1       7.562   4.830  17.124  0.00  0.00    +0.000 N 
ATOM     17  H   UNL     1       7.343   4.027  17.700  0.00  0.00    +0.000 HD
BRANCH  16  18
ATOM     18  C   UNL     1       7.265   4.737  15.775  0.00  0.00    +0.000 A 
ATOM     19  C   UNL     1       6.465   3.795  15.180  0.00  0.00    +0.000 A 
ATOM     20  C   UNL     1       6.507   4.082  13.780  0.00  0.00    +0.000 A 
ATOM     21  N   UNL     1       7.302   5.144  13.555  0.00  0.00    +0.000 NA
ATOM     22  N   UNL     1       7.705   5.545  14.770  0.00  0.00    +0.000 N 
ATOM     23  H   UNL     1       8.323   6.349  14.828  0.00  0.00    +0.000 HD
BRANCH  20  24
ATOM     24  C   UNL     1       5.828   3.383  12.685  0.00  0.00    +0.000 A 
ATOM     25  C   UNL     1       6.411   2.288  12.033  0.00  0.00    +0.000 A 
ATOM     26  C   UNL     1       5.744   1.657  10.981  0.00  0.00    +0.000 A 
ATOM     27  C   UNL     1       4.502   2.138  10.605  0.00  0.00    +0.000 A 
ATOM     28  N   UNL     1       3.897   3.184  11.209  0.00  0.00    +0.000 NA
ATOM     29  C   UNL     1       4.573   3.776  12.225  0.00  0.00    +0.000 A 
ENDBRANCH  20  24
ENDBRANCH  16  18
ENDBRANCH   2  16
TORSDOF 5
ENDMDL
MODEL 5
REMARK VINA RESULT:      -8.5      4.282      7.314
REMARK  Name = 
REMARK  5 active torsions:
REMARK  status: ('A' for Active; 'I' for Inactive)
REMARK    1  A    between atoms: S_2  and  N_4
REMARK    2  A    between atoms: S_2  and  C_16
REMARK    3  A    between atoms: N_4  and  C_5
REMARK    4  A    between atoms: C_7  and  C_8
REMARK    5  A    between atoms: C_20  and  C_21
REMARK                            x       y       z     vdW  Elec       q    Type
REMARK                         _______ _______ _______ _____ _____    ______ ____
ROOT
ATOM      1  O   UNL     1       7.744   4.346  16.665  0.00  0.00    +0.000 OA
ATOM      2  S   UNL     1       7.271   5.370  17.574  0.00  0.00    +0.000 S 
ATOM      3  O   UNL     1       7.715   5.407  18.954  0.00  0.00    +0.000 OA
ENDROOT
BRANCH   2   4
ATOM      4  C   UNL     1       5.492   5.218  17.612  0.00  0.00    +0.000 A 
ATOM      5  C   UNL     1       4.918   3.964  17.387  0.00  0.00    +0.000 A 
ATOM      6  C   UNL     1       3.538   3.830  17.473  0.00  0.00    +0.000 A 
ATOM      7  C   UNL     1       2.738   4.931  17.808  0.00  0.00    +0.000 A 
ATOM      8  C   UNL     1       3.299   6.194  18.086  0.00  0.00    +0.000 A 
ATOM      9  C   UNL     1       4.697   6.322  17.950  0.00  0.00    +0.000 A 
BRANCH   8  10
ATOM     10  C   UNL     1       2.457   7.309  18.591  0.00  0.00    +0.000 A 
ATOM     11  C   UNL     1       2.028   7.345  19.934  0.00  0.00    +0.000 A 
ATOM     12  C   UNL     1       1.298   8.421  20.449  0.00  0.00    +0.000 A 
ATOM     13  C   UNL     1       0.986   9.499  19.630  0.00  0.00    +0.000 A 
ATOM     14  C   UNL     1       1.384   9.490  18.298  0.00  0.00    +0.000 A 
ATOM     15  C   UNL     1       2.102   8.404  17.781  0.00  0.00    +0.000 A 
ENDBRANCH   8  10
ENDBRANCH   2   4
BRANCH   2  16
ATOM     16  N   UNL     1       7.497   6.859  16.912  0.00  0.00    +0.000 N 
ATOM     17  H   UNL     1       6.777   7.123  16.252  0.00  0.00    +0.000 HD
BRANCH  16  18
ATOM     18  C   UNL     1       8.030   7.867  17.697  0.00  0.00    +0.000 A 
ATOM     19  C   UNL     1       8.130   9.194  17.365  0.00  0.00    +0.000 A 
ATOM     20  C   UNL     1       8.790   9.820  18.467  0.00  0.00    +0.000 A 
ATOM     21  N   UNL     1       9.075   8.903  19.411  0.00  0.00    +0.000 NA
ATOM     22  N   UNL     1       8.567   7.752  18.945  0.00  0.00    +0.000 N 
ATOM     23  H   UNL     1       8.673   6.918  19.514  0.00  0.00    +0.000 HD
BRANCH  20  24
ATOM     24  C   UNL     1       9.148  11.232  18.634  0.00  0.00    +0.000 A 
ATOM     25  C   UNL     1       9.970  11.668  19.683  0.00  0.00    +0.000 A 
ATOM     26  C   UNL     1      10.275  13.023  19.822  0.00  0.00    +0.000 A 
ATOM     27  C   UNL     1       9.750  13.915  18.903  0.00  0.00    +0.000 A 
ATOM     28  N   UNL     1       8.963  13.541  17.872  0.00  0.00    +0.000 NA
ATOM     29  C   UNL     1       8.682  12.218  17.767  0.00  0.00    +0.000 A 
ENDBRANCH  20  24
ENDBRANCH  16  18
ENDBRANCH   2  16
TORSDOF 5
ENDMDL
MODEL 6
REMARK VINA RESULT:      -8.4      4.332      8.675
REMARK  Name = 
REMARK  5 active torsions:
REMARK  status: ('A' for Active; 'I' for Inactive)
REMARK    1  A    between atoms: S_2  and  N_4
REMARK    2  A    between atoms: S_2  and  C_16
REMARK    3  A    between atoms: N_4  and  C_5
REMARK    4  A    between atoms: C_7  and  C_8
REMARK    5  A    between atoms: C_20  and  C_21
REMARK                            x       y       z     vdW  Elec       q    Type
REMARK                         _______ _______ _______ _____ _____    ______ ____
ROOT
ATOM      1  O   UNL     1       3.100   2.050  18.531  0.00  0.00    +0.000 OA
ATOM      2  S   UNL     1       2.985   3.474  18.294  0.00  0.00    +0.000 S 
ATOM      3  O   UNL     1       2.019   3.998  17.348  0.00  0.00    +0.000 OA
ENDROOT
BRANCH   2   4
ATOM      4  C   UNL     1       4.592   4.017  17.738  0.00  0.00    +0.000 A 
ATOM      5  C   UNL     1       5.579   4.286  18.691  0.00  0.00    +0.000 A 
ATOM      6  C   UNL     1       6.849   4.653  18.260  0.00  0.00    +0.000 A 
ATOM      7  C   UNL     1       7.140   4.725  16.891  0.00  0.00    +0.000 A 
ATOM      8  C   UNL     1       6.174   4.412  15.913  0.00  0.00    +0.000 A 
ATOM      9  C   UNL     1       4.880   4.085  16.367  0.00  0.00    +0.000 A 
BRANCH   8  10
ATOM     10  C   UNL     1       6.539   4.341  14.474  0.00  0.00    +0.000 A 
ATOM     11  C   UNL     1       5.874   3.457  13.599  0.00  0.00    +0.000 A 
ATOM     12  C   UNL     1       6.150   3.426  12.229  0.00  0.00    +0.000 A 
ATOM     13  C   UNL     1       7.097   4.291  11.695  0.00  0.00    +0.000 A 
ATOM     14  C   UNL     1       7.779   5.167  12.532  0.00  0.00    +0.000 A 
ATOM     15  C   UNL     1       7.510   5.186  13.907  0.00  0.00    +0.000 A 
ENDBRANCH   8  10
ENDBRANCH   2   4
BRANCH   2  16
ATOM     16  N   UNL     1       2.803   4.270  19.723  0.00  0.00    +0.000 N 
ATOM     17  H   UNL     1       3.451   3.969  20.439  0.00  0.00    +0.000 HD
BRANCH  16  18
ATOM     18  C   UNL     1       2.466   5.613  19.702  0.00  0.00    +0.000 A 
ATOM     19  C   UNL     1       1.783   6.297  20.675  0.00  0.00    +0.000 A 
ATOM     20  C   UNL     1       1.636   7.629  20.179  0.00  0.00    +0.000 A 
ATOM     21  N   UNL     1       2.203   7.730  18.963  0.00  0.00    +0.000 NA
ATOM     22  N   UNL     1       2.734   6.522  18.722  0.00  0.00    +0.000 N 
ATOM     23  H   UNL     1       3.218   6.379  17.841  0.00  0.00    +0.000 HD
BRANCH  20  24
ATOM     24  C   UNL     1       0.983   8.775  20.820  0.00  0.00    +0.000 A 
ATOM     25  C   UNL     1       0.494   8.708  22.132  0.00  0.00    +0.000 A 
ATOM     26  C   UNL     1      -0.140   9.813  22.705  0.00  0.00    +0.000 A 
ATOM     27  C   UNL     1      -0.268  10.965  21.949  0.00  0.00    +0.000 A 
ATOM     28  N   UNL     1       0.195  11.079  20.685  0.00  0.00    +0.000 NA
ATOM     29  C   UNL     1       0.802   9.987  20.157  0.00  0.00    +0.000 A 
ENDBRANCH  20  24
ENDBRANCH  16  18
ENDBRANCH   2  16
TORSDOF 5
ENDMDL
MODEL 7
REMARK VINA RESULT:      -8.4      4.856      9.036
REMARK  Name = 
REMARK  5 active torsions:
REMARK  status: ('A' for Active; 'I' for Inactive)
REMARK    1  A    between atoms: S_2  and  N_4
REMARK    2  A    between atoms: S_2  and  C_16
REMARK    3  A    between atoms: N_4  and  C_5
REMARK    4  A    between atoms: C_7  and  C_8
REMARK    5  A    between atoms: C_20  and  C_21
REMARK                            x       y       z     vdW  Elec       q    Type
REMARK                         _______ _______ _______ _____ _____    ______ ____
ROOT
ATOM      1  O   UNL     1       2.875   3.500  19.139  0.00  0.00    +0.000 OA
ATOM      2  S   UNL     1       2.971   4.886  18.733  0.00  0.00    +0.000 S 
ATOM      3  O   UNL     1       2.055   5.443  17.756  0.00  0.00    +0.000 OA
ENDROOT
BRANCH   2   4
ATOM      4  C   UNL     1       4.615   5.099  18.071  0.00  0.00    +0.000 A 
ATOM      5  C   UNL     1       5.669   5.352  18.954  0.00  0.00    +0.000 A 
ATOM      6  C   UNL     1       6.959   5.461  18.448  0.00  0.00    +0.000 A 
ATOM      7  C   UNL     1       7.201   5.291  17.079  0.00  0.00    +0.000 A 
ATOM      8  C   UNL     1       6.161   4.989  16.177  0.00  0.00    +0.000 A 
ATOM      9  C   UNL     1       4.853   4.926  16.700  0.00  0.00    +0.000 A 
BRANCH   8  10
ATOM     10  C   UNL     1       6.452   4.658  14.758  0.00  0.00    +0.000 A 
ATOM     11  C   UNL     1       5.643   3.750  14.043  0.00  0.00    +0.000 A 
ATOM     12  C   UNL     1       5.855   3.481  12.687  0.00  0.00    +0.000 A 
ATOM     13  C   UNL     1       6.880   4.125  12.006  0.00  0.00    +0.000 A 
ATOM     14  C   UNL     1       7.704   5.016  12.685  0.00  0.00    +0.000 A 
ATOM     15  C   UNL     1       7.499   5.274  14.046  0.00  0.00    +0.000 A 
ENDBRANCH   8  10
ENDBRANCH   2   4
BRANCH   2  16
ATOM     16  N   UNL     1       2.980   5.863  20.057  0.00  0.00    +0.000 N 
ATOM     17  H   UNL     1       3.846   5.829  20.580  0.00  0.00    +0.000 HD
BRANCH  16  18
ATOM     18  C   UNL     1       2.332   7.085  19.993  0.00  0.00    +0.000 A 
ATOM     19  C   UNL     1       1.575   7.660  20.982  0.00  0.00    +0.000 A 
ATOM     20  C   UNL     1       1.080   8.881  20.428  0.00  0.00    +0.000 A 
ATOM     21  N   UNL     1       1.519   9.022  19.165  0.00  0.00    +0.000 NA
ATOM     22  N   UNL     1       2.305   7.957  18.945  0.00  0.00    +0.000 N 
ATOM     23  H   UNL     1       2.746   7.867  18.035  0.00  0.00    +0.000 HD
BRANCH  20  24
ATOM     24  C   UNL     1       0.219   9.886  21.060  0.00  0.00    +0.000 A 
ATOM     25  C   UNL     1      -0.513  10.812  20.305  0.00  0.00    +0.000 A 
ATOM     26  C   UNL     1      -1.309  11.768  20.941  0.00  0.00    +0.000 A 
ATOM     27  C   UNL     1      -1.355  11.772  22.324  0.00  0.00    +0.000 A 
ATOM     28  N   UNL     1      -0.676  10.894  23.092  0.00  0.00    +0.000 NA
ATOM     29  C   UNL     1       0.090   9.981  22.444  0.00  0.00    +0.000 A 
ENDBRANCH  20  24
ENDBRANCH  16  18
ENDBRANCH   2  16
TORSDOF 5
ENDMDL
MODEL 8
REMARK VINA RESULT:      -8.3      1.777      3.175
REMARK  Name = 
REMARK  5 active torsions:
REMARK  status: ('A' for Active; 'I' for Inactive)
REMARK    1  A    between atoms: S_2  and  N_4
REMARK    2  A    between atoms: S_2  and  C_16
REMARK    3  A    between atoms: N_4  and  C_5
REMARK    4  A    between atoms: C_7  and  C_8
REMARK    5  A    between atoms: C_20  and  C_21
REMARK                            x       y       z     vdW  Elec       q    Type
REMARK                         _______ _______ _______ _____ _____    ______ ____
ROOT
ATOM      1  O   UNL     1       7.435   5.382  20.035  0.00  0.00    +0.000 OA
ATOM      2  S   UNL     1       6.979   5.629  18.683  0.00  0.00    +0.000 S 
ATOM      3  O   UNL     1       7.264   6.884  18.016  0.00  0.00    +0.000 OA
ENDROOT
BRANCH   2   4
ATOM      4  C   UNL     1       5.202   5.460  18.720  0.00  0.00    +0.000 A 
ATOM      5  C   UNL     1       4.649   4.185  18.863  0.00  0.00    +0.000 A 
ATOM      6  C   UNL     1       3.268   4.055  18.950  0.00  0.00    +0.000 A 
ATOM      7  C   UNL     1       2.446   5.190  18.922  0.00  0.00    +0.000 A 
ATOM      8  C   UNL     1       2.984   6.490  18.826  0.00  0.00    +0.000 A 
ATOM      9  C   UNL     1       4.384   6.599  18.694  0.00  0.00    +0.000 A 
BRANCH   8  10
ATOM     10  C   UNL     1       2.115   7.688  18.955  0.00  0.00    +0.000 A 
ATOM     11  C   UNL     1       1.581   8.067  20.204  0.00  0.00    +0.000 A 
ATOM     12  C   UNL     1       0.822   9.231  20.361  0.00  0.00    +0.000 A 
ATOM     13  C   UNL     1       0.586  10.055  19.268  0.00  0.00    +0.000 A 
ATOM     14  C   UNL     1       1.088   9.704  18.019  0.00  0.00    +0.000 A 
ATOM     15  C   UNL     1       1.835   8.530  17.862  0.00  0.00    +0.000 A 
ENDBRANCH   8  10
ENDBRANCH   2   4
BRANCH   2  16
ATOM     16  N   UNL     1       7.444   4.396  17.697  0.00  0.00    +0.000 N 
ATOM     17  H   UNL     1       7.364   3.483  18.126  0.00  0.00    +0.000 HD
BRANCH  16  18
ATOM     18  C   UNL     1       7.168   4.482  16.344  0.00  0.00    +0.000 A 
ATOM     19  C   UNL     1       6.421   3.599  15.605  0.00  0.00    +0.000 A 
ATOM     20  C   UNL     1       6.468   4.083  14.262  0.00  0.00    +0.000 A 
ATOM     21  N   UNL     1       7.215   5.201  14.203  0.00  0.00    +0.000 NA
ATOM     22  N   UNL     1       7.582   5.444  15.471  0.00  0.00    +0.000 N 
ATOM     23  H   UNL     1       8.161   6.258  15.654  0.00  0.00    +0.000 HD
BRANCH  20  24
ATOM     24  C   UNL     1       5.837   3.517  13.065  0.00  0.00    +0.000 A 
ATOM     25  C   UNL     1       6.464   2.526  12.297  0.00  0.00    +0.000 A 
ATOM     26  C   UNL     1       5.842   2.023  11.153  0.00  0.00    +0.000 A 
ATOM     27  C   UNL     1       4.599   2.523  10.804  0.00  0.00    +0.000 A 
ATOM     28  N   UNL     1       3.953   3.469  11.518  0.00  0.00    +0.000 NA
ATOM     29  C   UNL     1       4.586   3.940  12.621  0.00  0.00    +0.000 A 
ENDBRANCH  20  24
ENDBRANCH  16  18
ENDBRANCH   2  16
TORSDOF 5
ENDMDL
MODEL 9
REMARK VINA RESULT:      -8.3      3.855      4.734
REMARK  Name = 
REMARK  5 active torsions:
REMARK  status: ('A' for Active; 'I' for Inactive)
REMARK    1  A    between atoms: S_2  and  N_4
REMARK    2  A    between atoms: S_2  and  C_16
REMARK    3  A    between atoms: N_4  and  C_5
REMARK    4  A    between atoms: C_7  and  C_8
REMARK    5  A    between atoms: C_20  and  C_21
REMARK                            x       y       z     vdW  Elec       q    Type
REMARK                         _______ _______ _______ _____ _____    ______ ____
ROOT
ATOM      1  O   UNL     1       2.249   4.579  20.711  0.00  0.00    +0.000 OA
ATOM      2  S   UNL     1       3.168   5.161  19.755  0.00  0.00    +0.000 S 
ATOM      3  O   UNL     1       4.572   5.332  20.077  0.00  0.00    +0.000 OA
ENDROOT
BRANCH   2   4
ATOM      4  C   UNL     1       2.528   6.784  19.375  0.00  0.00    +0.000 A 
ATOM      5  C   UNL     1       2.582   7.236  18.053  0.00  0.00    +0.000 A 
ATOM      6  C   UNL     1       2.033   8.474  17.743  0.00  0.00    +0.000 A 
ATOM      7  C   UNL     1       1.412   9.244  18.736  0.00  0.00    +0.000 A 
ATOM      8  C   UNL     1       1.305   8.787  20.065  0.00  0.00    +0.000 A 
ATOM      9  C   UNL     1       1.906   7.549  20.372  0.00  0.00    +0.000 A 
BRANCH   8  10
ATOM     10  C   UNL     1       0.509   9.539  21.070  0.00  0.00    +0.000 A 
ATOM     11  C   UNL     1      -0.246  10.672  20.699  0.00  0.00    +0.000 A 
ATOM     12  C   UNL     1      -1.058  11.350  21.612  0.00  0.00    +0.000 A 
ATOM     13  C   UNL     1      -1.146  10.903  22.925  0.00  0.00    +0.000 A 
ATOM     14  C   UNL     1      -0.405   9.797  23.326  0.00  0.00    +0.000 A 
ATOM     15  C   UNL     1       0.420   9.128  22.413  0.00  0.00    +0.000 A 
ENDBRANCH   8  10
ENDBRANCH   2   4
BRANCH   2  16
ATOM     16  N   UNL     1       3.055   4.375  18.314  0.00  0.00    +0.000 N 
ATOM     17  H   UNL     1       2.169   4.515  17.845  0.00  0.00    +0.000 HD
BRANCH  16  18
ATOM     18  C   UNL     1       4.181   4.277  17.514  0.00  0.00    +0.000 A 
ATOM     19  C   UNL     1       4.244   4.503  16.162  0.00  0.00    +0.000 A 
ATOM     20  C   UNL     1       5.595   4.228  15.788  0.00  0.00    +0.000 A 
ATOM     21  N   UNL     1       6.302   3.850  16.868  0.00  0.00    +0.000 NA
ATOM     22  N   UNL     1       5.444   3.934  17.896  0.00  0.00    +0.000 N 
ATOM     23  H   UNL     1       5.781   3.689  18.822  0.00  0.00    +0.000 HD
BRANCH  20  24
ATOM     24  C   UNL     1       6.208   4.311  14.458  0.00  0.00    +0.000 A 
ATOM     25  C   UNL     1       5.767   3.520  13.390  0.00  0.00    +0.000 A 
ATOM     26  C   UNL     1       6.387   3.612  12.141  0.00  0.00    +0.000 A 
ATOM     27  C   UNL     1       7.437   4.501  11.991  0.00  0.00    +0.000 A 
ATOM     28  N   UNL     1       7.890   5.290  12.988  0.00  0.00    +0.000 NA
ATOM     29  C   UNL     1       7.269   5.173  14.189  0.00  0.00    +0.000 A 
ENDBRANCH  20  24
ENDBRANCH  16  18
ENDBRANCH   2  16
TORSDOF 5
ENDMDL
