MODEL 1
REMARK VINA RESULT:      -8.0      0.000      0.000
REMARK  Name = 
REMARK  7 active torsions:
REMARK  status: ('A' for Active; 'I' for Inactive)
REMARK    1  A    between atoms: C_2  and  N_3
REMARK    2  A    between atoms: C_7  and  C_8
REMARK    3  A    between atoms: C_8  and  C_9
REMARK    4  A    between atoms: C_8  and  C_10
REMARK    5  A    between atoms: C_14  and  N_15
REMARK    6  A    between atoms: C_16  and  C_18
REMARK    7  A    between atoms: C_20  and  C_21
REMARK                            x       y       z     vdW  Elec       q    Type
REMARK                         _______ _______ _______ _____ _____    ______ ____
ROOT
ATOM      1  C   UNL     1       3.149   4.638  18.731  0.00  0.00    +0.000 A 
ATOM      2  C   UNL     1       2.774   3.791  19.788  0.00  0.00    +0.000 A 
ATOM      3  C   UNL     1       1.989   4.261  20.834  0.00  0.00    +0.000 A 
ATOM      4  C   UNL     1       1.613   5.600  20.875  0.00  0.00    +0.000 A 
ATOM      5  C   UNL     1       2.041   6.501  19.897  0.00  0.00    +0.000 A 
ATOM      6  C   UNL     1       2.770   6.001  18.796  0.00  0.00    +0.000 A 
ENDROOT
BRANCH   5   7
ATOM      7  N   UNL     1       1.794   7.894  20.012  0.00  0.00    +0.000 N 
ATOM      8  C   UNL     1       1.584   8.775  18.950  0.00  0.00    +0.000 C 
ATOM      9  O   UNL     1       1.621   8.498  17.754  0.00  0.00    +0.000 OA
ATOM     10  H   UNL     1       1.617   8.282  20.935  0.00  0.00    +0.000 HD
BRANCH   8  11
ATOM     11  C   UNL     1       1.229  10.181  19.334  0.00  0.00    +0.000 A 
ATOM     12  C   UNL     1       0.448  10.402  20.471  0.00  0.00    +0.000 A 
ATOM     13  C   UNL     1       0.157  11.713  20.839  0.00  0.00    +0.000 A 
ATOM     14  C   UNL     1       0.651  12.749  20.048  0.00  0.00    +0.000 A 
ATOM     15  C   UNL     1       1.414  12.435  18.931  0.00  0.00    +0.000 A 
ATOM     16  N   UNL     1       1.728  11.174  18.549  0.00  0.00    +0.000 NA
BRANCH  13  17
ATOM     17  C   UNL     1      -0.619  11.993  21.999  0.00  0.00    +0.000 C 
ATOM     18  C   UNL     1      -1.314  11.595  23.028  0.00  0.00    +0.000 C 
ATOM     19  C   UNL     1      -1.194  13.013  22.832  0.00  0.00    +0.000 C 
ENDBRANCH  13  17
ENDBRANCH   8  11
ENDBRANCH   5   7
BRANCH   1  20
ATOM     20  C   UNL     1       4.003   4.038  17.615  0.00  0.00    +0.000 C 
ATOM     21  C   UNL     1       3.823   2.516  17.513  0.00  0.00    +0.000 C 
BRANCH  20  26
ATOM     22  N   UNL     1       6.268   4.741  16.596  0.00  0.00    +0.000 N 
ATOM     23  C   UNL     1       7.538   4.761  17.132  0.00  0.00    +0.000 A 
ATOM     24  N   UNL     1       7.518   4.495  18.414  0.00  0.00    +0.000 NA
ATOM     25  N   UNL     1       6.218   4.278  18.763  0.00  0.00    +0.000 NA
ATOM     26  C   UNL     1       5.465   4.391  17.682  0.00  0.00    +0.000 A 
BRANCH  22  28
ATOM     27  C   UNL     1       5.864   4.100  14.267  0.00  0.00    +0.000 C 
ATOM     28  C   UNL     1       5.910   4.996  15.267  0.00  0.00    +0.000 C 
ENDBRANCH  22  28
ENDBRANCH  20  26
ENDBRANCH   1  20
TORSDOF 6
ENDMDL
MODEL 2
REMARK VINA RESULT:      -7.9      2.546      4.203
REMARK  Name = 
REMARK  7 active torsions:
REMARK  status: ('A' for Active; 'I' for Inactive)
REMARK    1  A    between atoms: C_2  and  N_3
REMARK    2  A    between atoms: C_7  and  C_8
REMARK    3  A    between atoms: C_8  and  C_9
REMARK    4  A    between atoms: C_8  and  C_10
REMARK    5  A    between atoms: C_14  and  N_15
REMARK    6  A    between atoms: C_16  and  C_18
REMARK    7  A    between atoms: C_20  and  C_21
REMARK                            x       y       z     vdW  Elec       q    Type
REMARK                         _______ _______ _______ _____ _____    ______ ____
ROOT
ATOM      1  C   UNL     1       4.096   4.618  17.674  0.00  0.00    +0.000 A 
ATOM      2  C   UNL     1       5.369   4.987  17.207  0.00  0.00    +0.000 A 
ATOM      3  C   UNL     1       5.714   6.325  17.058  0.00  0.00    +0.000 A 
ATOM      4  C   UNL     1       4.775   7.318  17.317  0.00  0.00    +0.000 A 
ATOM      5  C   UNL     1       3.468   6.997  17.692  0.00  0.00    +0.000 A 
ATOM      6  C   UNL     1       3.148   5.641  17.918  0.00  0.00    +0.000 A 
ENDROOT
BRANCH   5   7
ATOM      7  N   UNL     1       2.464   7.994  17.807  0.00  0.00    +0.000 N 
ATOM      8  C   UNL     1       1.847   8.396  18.992  0.00  0.00    +0.000 C 
ATOM      9  O   UNL     1       2.041   7.928  20.112  0.00  0.00    +0.000 OA
ATOM     10  H   UNL     1       2.254   8.570  16.996  0.00  0.00    +0.000 HD
BRANCH   8  11
ATOM     11  C   UNL     1       0.895   9.550  18.870  0.00  0.00    +0.000 A 
ATOM     12  C   UNL     1      -0.184   9.454  17.989  0.00  0.00    +0.000 A 
ATOM     13  C   UNL     1      -1.082  10.515  17.912  0.00  0.00    +0.000 A 
ATOM     14  C   UNL     1      -0.857  11.633  18.713  0.00  0.00    +0.000 A 
ATOM     15  C   UNL     1       0.247  11.644  19.556  0.00  0.00    +0.000 A 
ATOM     16  N   UNL     1       1.135  10.626  19.667  0.00  0.00    +0.000 NA
BRANCH  13  17
ATOM     17  C   UNL     1      -2.209  10.460  17.045  0.00  0.00    +0.000 C 
ATOM     18  C   UNL     1      -3.499  10.489  16.848  0.00  0.00    +0.000 C 
ATOM     19  C   UNL     1      -2.667  10.295  15.693  0.00  0.00    +0.000 C 
ENDBRANCH  13  17
ENDBRANCH   8  11
ENDBRANCH   5   7
BRANCH   1  20
ATOM     20  C   UNL     1       3.803   3.125  17.819  0.00  0.00    +0.000 C 
ATOM     21  C   UNL     1       2.474   2.737  17.154  0.00  0.00    +0.000 C 
BRANCH  20  26
ATOM     22  N   UNL     1       2.809   2.665  20.157  0.00  0.00    +0.000 N 
ATOM     23  C   UNL     1       3.405   2.270  21.336  0.00  0.00    +0.000 A 
ATOM     24  N   UNL     1       4.664   1.962  21.153  0.00  0.00    +0.000 NA
ATOM     25  N   UNL     1       4.943   2.159  19.832  0.00  0.00    +0.000 NA
ATOM     26  C   UNL     1       3.853   2.609  19.233  0.00  0.00    +0.000 A 
BRANCH  22  28
ATOM     27  C   UNL     1       0.892   4.163  20.445  0.00  0.00    +0.000 C 
ATOM     28  C   UNL     1       1.475   3.048  19.974  0.00  0.00    +0.000 C 
ENDBRANCH  22  28
ENDBRANCH  20  26
ENDBRANCH   1  20
TORSDOF 6
ENDMDL
MODEL 3
REMARK VINA RESULT:      -7.9      0.924      1.037
REMARK  Name = 
REMARK  7 active torsions:
REMARK  status: ('A' for Active; 'I' for Inactive)
REMARK    1  A    between atoms: C_2  and  N_3
REMARK    2  A    between atoms: C_7  and  C_8
REMARK    3  A    between atoms: C_8  and  C_9
REMARK    4  A    between atoms: C_8  and  C_10
REMARK    5  A    between atoms: C_14  and  N_15
REMARK    6  A    between atoms: C_16  and  C_18
REMARK    7  A    between atoms: C_20  and  C_21
REMARK                            x       y       z     vdW  Elec       q    Type
REMARK                         _______ _______ _______ _____ _____    ______ ____
ROOT
ATOM      1  C   UNL     1       3.177   4.884  18.837  0.00  0.00    +0.000 A 
ATOM      2  C   UNL     1       2.684   4.167  19.941  0.00  0.00    +0.000 A 
ATOM      3  C   UNL     1       1.832   4.769  20.859  0.00  0.00    +0.000 A 
ATOM      4  C   UNL     1       1.503   6.115  20.724  0.00  0.00    +0.000 A 
ATOM      5  C   UNL     1       2.044   6.892  19.698  0.00  0.00    +0.000 A 
ATOM      6  C   UNL     1       2.844   6.256  18.724  0.00  0.00    +0.000 A 
ENDROOT
BRANCH   5   7
ATOM      7  N   UNL     1       1.839   8.296  19.643  0.00  0.00    +0.000 N 
ATOM      8  C   UNL     1       1.757   9.062  18.480  0.00  0.00    +0.000 C 
ATOM      9  O   UNL     1       1.889   8.657  17.328  0.00  0.00    +0.000 OA
ATOM     10  H   UNL     1       1.595   8.786  20.500  0.00  0.00    +0.000 HD
BRANCH   8  11
ATOM     11  C   UNL     1       1.420  10.511  18.680  0.00  0.00    +0.000 A 
ATOM     12  C   UNL     1       0.255  10.853  19.370  0.00  0.00    +0.000 A 
ATOM     13  C   UNL     1      -0.027  12.199  19.583  0.00  0.00    +0.000 A 
ATOM     14  C   UNL     1       0.864  13.149  19.087  0.00  0.00    +0.000 A 
ATOM     15  C   UNL     1       1.995  12.718  18.406  0.00  0.00    +0.000 A 
ATOM     16  N   UNL     1       2.309  11.417  18.191  0.00  0.00    +0.000 NA
BRANCH  13  17
ATOM     17  C   UNL     1      -1.191  12.600  20.297  0.00  0.00    +0.000 C 
ATOM     18  C   UNL     1      -1.787  12.942  21.406  0.00  0.00    +0.000 C 
ATOM     19  C   UNL     1      -2.598  12.886  20.222  0.00  0.00    +0.000 C 
ENDBRANCH  13  17
ENDBRANCH   8  11
ENDBRANCH   5   7
BRANCH   1  20
ATOM     20  C   UNL     1       4.100   4.144  17.869  0.00  0.00    +0.000 C 
ATOM     21  C   UNL     1       3.895   2.623  17.935  0.00  0.00    +0.000 C 
BRANCH  20  26
ATOM     22  N   UNL     1       6.504   4.448  16.981  0.00  0.00    +0.000 N 
ATOM     23  C   UNL     1       7.701   4.629  17.642  0.00  0.00    +0.000 A 
ATOM     24  N   UNL     1       7.514   4.801  18.927  0.00  0.00    +0.000 NA
ATOM     25  N   UNL     1       6.171   4.725  19.155  0.00  0.00    +0.000 NA
ATOM     26  C   UNL     1       5.560   4.484  18.008  0.00  0.00    +0.000 A 
BRANCH  22  28
ATOM     27  C   UNL     1       5.594   5.025  14.782  0.00  0.00    +0.000 C 
ATOM     28  C   UNL     1       6.321   4.254  15.607  0.00  0.00    +0.000 C 
ENDBRANCH  22  28
ENDBRANCH  20  26
ENDBRANCH   1  20
TORSDOF 6
ENDMDL
MODEL 4
REMARK VINA RESULT:      -7.9      7.045     10.884
REMARK  Name = 
REMARK  7 active torsions:
REMARK  status: ('A' for Active; 'I' for Inactive)
REMARK    1  A    between atoms: C_2  and  N_3
REMARK    2  A    between atoms: C_7  and  C_8
REMARK    3  A    between atoms: C_8  and  C_9
REMARK    4  A    between atoms: C_8  and  C_10
REMARK    5  A    between atoms: C_14  and  N_15
REMARK    6  A    between atoms: C_16  and  C_18
REMARK    7  A    between atoms: C_20  and  C_21
REMARK                            x       y       z     vdW  Elec       q    Type
REMARK                         _______ _______ _______ _____ _____    ______ ____
ROOT
ATOM      1  C   UNL     1      10.276  12.671  18.543  0.00  0.00    +0.000 A 
ATOM      2  C   UNL     1      10.180  13.183  19.849  0.00  0.00    +0.000 A 
ATOM      3  C   UNL     1       9.829  12.362  20.914  0.00  0.00    +0.000 A 
ATOM      4  C   UNL     1       9.509  11.027  20.686  0.00  0.00    +0.000 A 
ATOM      5  C   UNL     1       9.497  10.497  19.395  0.00  0.00    +0.000 A 
ATOM      6  C   UNL     1       9.932  11.313  18.328  0.00  0.00    +0.000 A 
ENDROOT
BRANCH   5   7
ATOM      7  N   UNL     1       9.024   9.183  19.136  0.00  0.00    +0.000 N 
ATOM      8  C   UNL     1       8.075   8.834  18.175  0.00  0.00    +0.000 C 
ATOM      9  O   UNL     1       7.471   9.603  17.432  0.00  0.00    +0.000 OA
ATOM     10  H   UNL     1       9.496   8.400  19.581  0.00  0.00    +0.000 HD
BRANCH   8  11
ATOM     11  C   UNL     1       7.824   7.363  18.015  0.00  0.00    +0.000 A 
ATOM     12  C   UNL     1       7.259   6.891  16.828  0.00  0.00    +0.000 A 
ATOM     13  C   UNL     1       7.066   5.521  16.676  0.00  0.00    +0.000 A 
ATOM     14  C   UNL     1       7.437   4.679  17.723  0.00  0.00    +0.000 A 
ATOM     15  C   UNL     1       7.987   5.237  18.870  0.00  0.00    +0.000 A 
ATOM     16  N   UNL     1       8.201   6.563  19.049  0.00  0.00    +0.000 NA
BRANCH  13  17
ATOM     17  C   UNL     1       6.512   4.988  15.478  0.00  0.00    +0.000 C 
ATOM     18  C   UNL     1       5.485   4.704  14.724  0.00  0.00    +0.000 C 
ATOM     19  C   UNL     1       6.781   4.339  14.224  0.00  0.00    +0.000 C 
ENDBRANCH  13  17
ENDBRANCH   8  11
ENDBRANCH   5   7
BRANCH   1  20
ATOM     20  C   UNL     1      10.679  13.639  17.433  0.00  0.00    +0.000 C 
ATOM     21  C   UNL     1      11.877  13.116  16.626  0.00  0.00    +0.000 C 
BRANCH  20  26
ATOM     22  N   UNL     1       9.974  16.066  17.958  0.00  0.00    +0.000 N 
ATOM     23  C   UNL     1      10.723  17.193  18.222  0.00  0.00    +0.000 A 
ATOM     24  N   UNL     1      11.994  16.901  18.346  0.00  0.00    +0.000 NA
ATOM     25  N   UNL     1      12.123  15.558  18.153  0.00  0.00    +0.000 NA
ATOM     26  C   UNL     1      10.930  15.052  17.889  0.00  0.00    +0.000 A 
BRANCH  22  28
ATOM     27  C   UNL     1       7.653  16.509  18.603  0.00  0.00    +0.000 C 
ATOM     28  C   UNL     1       8.587  15.998  17.784  0.00  0.00    +0.000 C 
ENDBRANCH  22  28
ENDBRANCH  20  26
ENDBRANCH   1  20
TORSDOF 6
ENDMDL
MODEL 5
REMARK VINA RESULT:      -7.9      1.614      2.593
REMARK  Name = 
REMARK  7 active torsions:
REMARK  status: ('A' for Active; 'I' for Inactive)
REMARK    1  A    between atoms: C_2  and  N_3
REMARK    2  A    between atoms: C_7  and  C_8
REMARK    3  A    between atoms: C_8  and  C_9
REMARK    4  A    between atoms: C_8  and  C_10
REMARK    5  A    between atoms: C_14  and  N_15
REMARK    6  A    between atoms: C_16  and  C_18
REMARK    7  A    between atoms: C_20  and  C_21
REMARK                            x       y       z     vdW  Elec       q    Type
REMARK                         _______ _______ _______ _____ _____    ______ ____
ROOT
ATOM      1  C   UNL     1       3.010   5.425  18.554  0.00  0.00    +0.000 A 
ATOM      2  C   UNL     1       2.711   4.717  19.730  0.00  0.00    +0.000 A 
ATOM      3  C   UNL     1       1.978   5.308  20.753  0.00  0.00    +0.000 A 
ATOM      4  C   UNL     1       1.580   6.638  20.644  0.00  0.00    +0.000 A 
ATOM      5  C   UNL     1       1.936   7.410  19.537  0.00  0.00    +0.000 A 
ATOM      6  C   UNL     1       2.611   6.782  18.467  0.00  0.00    +0.000 A 
ENDROOT
BRANCH   5   7
ATOM      7  N   UNL     1       1.670   8.804  19.488  0.00  0.00    +0.000 N 
ATOM      8  C   UNL     1       1.747   9.609  18.351  0.00  0.00    +0.000 C 
ATOM      9  O   UNL     1       2.094   9.253  17.227  0.00  0.00    +0.000 OA
ATOM     10  H   UNL     1       1.259   9.250  20.305  0.00  0.00    +0.000 HD
BRANCH   8  11
ATOM     11  C   UNL     1       1.307  11.032  18.532  0.00  0.00    +0.000 A 
ATOM     12  C   UNL     1       2.236  12.061  18.361  0.00  0.00    +0.000 A 
ATOM     13  C   UNL     1       1.807  13.379  18.494  0.00  0.00    +0.000 A 
ATOM     14  C   UNL     1       0.469  13.613  18.803  0.00  0.00    +0.000 A 
ATOM     15  C   UNL     1      -0.384  12.527  18.961  0.00  0.00    +0.000 A 
ATOM     16  N   UNL     1      -0.006  11.233  18.828  0.00  0.00    +0.000 NA
BRANCH  13  17
ATOM     17  C   UNL     1       2.710  14.464  18.310  0.00  0.00    +0.000 C 
ATOM     18  C   UNL     1       3.548  15.137  17.571  0.00  0.00    +0.000 C 
ATOM     19  C   UNL     1       3.338  15.608  18.912  0.00  0.00    +0.000 C 
ENDBRANCH  13  17
ENDBRANCH   8  11
ENDBRANCH   5   7
BRANCH   1  20
ATOM     20  C   UNL     1       3.810   4.697  17.475  0.00  0.00    +0.000 C 
ATOM     21  C   UNL     1       3.338   3.247  17.294  0.00  0.00    +0.000 C 
BRANCH  20  26
ATOM     22  N   UNL     1       6.249   4.805  16.637  0.00  0.00    +0.000 N 
ATOM     23  C   UNL     1       7.446   4.615  17.295  0.00  0.00    +0.000 A 
ATOM     24  N   UNL     1       7.264   4.492  18.586  0.00  0.00    +0.000 NA
ATOM     25  N   UNL     1       5.924   4.588  18.819  0.00  0.00    +0.000 NA
ATOM     26  C   UNL     1       5.304   4.743  17.661  0.00  0.00    +0.000 A 
BRANCH  22  28
ATOM     27  C   UNL     1       6.194   4.057  14.305  0.00  0.00    +0.000 C 
ATOM     28  C   UNL     1       6.064   4.991  15.262  0.00  0.00    +0.000 C 
ENDBRANCH  22  28
ENDBRANCH  20  26
ENDBRANCH   1  20
TORSDOF 6
ENDMDL
MODEL 6
REMARK VINA RESULT:      -7.8      2.772      9.122
REMARK  Name = 
REMARK  7 active torsions:
REMARK  status: ('A' for Active; 'I' for Inactive)
REMARK    1  A    between atoms: C_2  and  N_3
REMARK    2  A    between atoms: C_7  and  C_8
REMARK    3  A    between atoms: C_8  and  C_9
REMARK    4  A    between atoms: C_8  and  C_10
REMARK    5  A    between atoms: C_14  and  N_15
REMARK    6  A    between atoms: C_16  and  C_18
REMARK    7  A    between atoms: C_20  and  C_21
REMARK                            x       y       z     vdW  Elec       q    Type
REMARK                         _______ _______ _______ _____ _____    ______ ____
ROOT
ATOM      1  C   UNL     1      -0.006  10.725  19.873  0.00  0.00    +0.000 A 
ATOM      2  C   UNL     1      -0.194  10.826  21.263  0.00  0.00    +0.000 A 
ATOM      3  C   UNL     1       0.399   9.917  22.131  0.00  0.00    +0.000 A 
ATOM      4  C   UNL     1       1.142   8.855  21.625  0.00  0.00    +0.000 A 
ATOM      5  C   UNL     1       1.277   8.658  20.249  0.00  0.00    +0.000 A 
ATOM      6  C   UNL     1       0.741   9.629  19.375  0.00  0.00    +0.000 A 
ENDROOT
BRANCH   5   7
ATOM      7  N   UNL     1       1.900   7.496  19.723  0.00  0.00    +0.000 N 
ATOM      8  C   UNL     1       2.632   7.429  18.537  0.00  0.00    +0.000 C 
ATOM      9  O   UNL     1       2.819   8.347  17.742  0.00  0.00    +0.000 OA
ATOM     10  H   UNL     1       1.945   6.662  20.304  0.00  0.00    +0.000 HD
BRANCH   8  11
ATOM     11  C   UNL     1       3.289   6.111  18.252  0.00  0.00    +0.000 A 
ATOM     12  C   UNL     1       4.172   6.006  17.175  0.00  0.00    +0.000 A 
ATOM     13  C   UNL     1       4.805   4.788  16.944  0.00  0.00    +0.000 A 
ATOM     14  C   UNL     1       4.521   3.721  17.795  0.00  0.00    +0.000 A 
ATOM     15  C   UNL     1       3.623   3.914  18.837  0.00  0.00    +0.000 A 
ATOM     16  N   UNL     1       2.998   5.087  19.101  0.00  0.00    +0.000 NA
BRANCH  13  17
ATOM     17  C   UNL     1       5.729   4.634  15.872  0.00  0.00    +0.000 C 
ATOM     18  C   UNL     1       6.892   4.864  15.328  0.00  0.00    +0.000 C 
ATOM     19  C   UNL     1       5.960   4.081  14.566  0.00  0.00    +0.000 C 
ENDBRANCH  13  17
ENDBRANCH   8  11
ENDBRANCH   5   7
BRANCH   1  20
ATOM     20  C   UNL     1      -0.684  11.772  18.991  0.00  0.00    +0.000 C 
ATOM     21  C   UNL     1      -0.305  13.201  19.407  0.00  0.00    +0.000 C 
BRANCH  20  26
ATOM     22  N   UNL     1      -2.863  10.898  17.920  0.00  0.00    +0.000 N 
ATOM     23  C   UNL     1      -4.181  11.253  18.119  0.00  0.00    +0.000 A 
ATOM     24  N   UNL     1      -4.302  12.082  19.126  0.00  0.00    +0.000 NA
ATOM     25  N   UNL     1      -3.051  12.310  19.618  0.00  0.00    +0.000 NA
ATOM     26  C   UNL     1      -2.180  11.634  18.887  0.00  0.00    +0.000 A 
BRANCH  22  28
ATOM     27  C   UNL     1      -2.782   9.916  15.677  0.00  0.00    +0.000 C 
ATOM     28  C   UNL     1      -2.365  10.020  16.950  0.00  0.00    +0.000 C 
ENDBRANCH  22  28
ENDBRANCH  20  26
ENDBRANCH   1  20
TORSDOF 6
ENDMDL
MODEL 7
REMARK VINA RESULT:      -7.8      2.924      8.983
REMARK  Name = 
REMARK  7 active torsions:
REMARK  status: ('A' for Active; 'I' for Inactive)
REMARK    1  A    between atoms: C_2  and  N_3
REMARK    2  A    between atoms: C_7  and  C_8
REMARK    3  A    between atoms: C_8  and  C_9
REMARK    4  A    between atoms: C_8  and  C_10
REMARK    5  A    between atoms: C_14  and  N_15
REMARK    6  A    between atoms: C_16  and  C_18
REMARK    7  A    between atoms: C_20  and  C_21
REMARK                            x       y       z     vdW  Elec       q    Type
REMARK                         _______ _______ _______ _____ _____    ______ ____
ROOT
ATOM      1  C   UNL     1      -0.334  10.923  19.775  0.00  0.00    +0.000 A 
ATOM      2  C   UNL     1      -0.524  10.892  21.168  0.00  0.00    +0.000 A 
ATOM      3  C   UNL     1       0.156   9.975  21.961  0.00  0.00    +0.000 A 
ATOM      4  C   UNL     1       0.994   9.033  21.371  0.00  0.00    +0.000 A 
ATOM      5  C   UNL     1       1.140   8.964  19.984  0.00  0.00    +0.000 A 
ATOM      6  C   UNL     1       0.511   9.947  19.192  0.00  0.00    +0.000 A 
ENDROOT
BRANCH   5   7
ATOM      7  N   UNL     1       1.868   7.912  19.367  0.00  0.00    +0.000 N 
ATOM      8  C   UNL     1       2.472   7.967  18.111  0.00  0.00    +0.000 C 
ATOM      9  O   UNL     1       2.437   8.911  17.325  0.00  0.00    +0.000 OA
ATOM     10  H   UNL     1       2.096   7.089  19.919  0.00  0.00    +0.000 HD
BRANCH   8  11
ATOM     11  C   UNL     1       3.282   6.764  17.726  0.00  0.00    +0.000 A 
ATOM     12  C   UNL     1       2.804   5.490  18.042  0.00  0.00    +0.000 A 
ATOM     13  C   UNL     1       3.544   4.380  17.646  0.00  0.00    +0.000 A 
ATOM     14  C   UNL     1       4.739   4.590  16.959  0.00  0.00    +0.000 A 
ATOM     15  C   UNL     1       5.140   5.893  16.694  0.00  0.00    +0.000 A 
ATOM     16  N   UNL     1       4.440   6.997  17.052  0.00  0.00    +0.000 NA
BRANCH  13  17
ATOM     17  C   UNL     1       3.091   3.060  17.925  0.00  0.00    +0.000 C 
ATOM     18  C   UNL     1       2.132   2.181  18.028  0.00  0.00    +0.000 C 
ATOM     19  C   UNL     1       3.461   1.733  18.337  0.00  0.00    +0.000 C 
ENDBRANCH  13  17
ENDBRANCH   8  11
ENDBRANCH   5   7
BRANCH   1  20
ATOM     20  C   UNL     1      -1.111  11.971  18.980  0.00  0.00    +0.000 C 
ATOM     21  C   UNL     1      -0.782  13.398  19.440  0.00  0.00    +0.000 C 
BRANCH  20  26
ATOM     22  N   UNL     1      -3.291  10.954  18.043  0.00  0.00    +0.000 N 
ATOM     23  C   UNL     1      -4.614  11.255  18.290  0.00  0.00    +0.000 A 
ATOM     24  N   UNL     1      -4.730  12.118  19.268  0.00  0.00    +0.000 NA
ATOM     25  N   UNL     1      -3.471  12.423  19.694  0.00  0.00    +0.000 NA
ATOM     26  C   UNL     1      -2.601  11.759  18.950  0.00  0.00    +0.000 A 
BRANCH  22  28
ATOM     27  C   UNL     1      -2.602  10.317  15.780  0.00  0.00    +0.000 C 
ATOM     28  C   UNL     1      -2.794  10.062  17.085  0.00  0.00    +0.000 C 
ENDBRANCH  22  28
ENDBRANCH  20  26
ENDBRANCH   1  20
TORSDOF 6
ENDMDL
MODEL 8
REMARK VINA RESULT:      -7.8      2.783      9.037
REMARK  Name = 
REMARK  7 active torsions:
REMARK  status: ('A' for Active; 'I' for Inactive)
REMARK    1  A    between atoms: C_2  and  N_3
REMARK    2  A    between atoms: C_7  and  C_8
REMARK    3  A    between atoms: C_8  and  C_9
REMARK    4  A    between atoms: C_8  and  C_10
REMARK    5  A    between atoms: C_14  and  N_15
REMARK    6  A    between atoms: C_16  and  C_18
REMARK    7  A    between atoms: C_20  and  C_21
REMARK                            x       y       z     vdW  Elec       q    Type
REMARK                         _______ _______ _______ _____ _____    ______ ____
ROOT
ATOM      1  C   UNL     1       0.155  10.037  19.364  0.00  0.00    +0.000 A 
ATOM      2  C   UNL     1      -0.585   9.673  20.503  0.00  0.00    +0.000 A 
ATOM      3  C   UNL     1      -0.141   8.664  21.349  0.00  0.00    +0.000 A 
ATOM      4  C   UNL     1       1.020   7.960  21.043  0.00  0.00    +0.000 A 
ATOM      5  C   UNL     1       1.737   8.222  19.874  0.00  0.00    +0.000 A 
ATOM      6  C   UNL     1       1.326   9.300  19.060  0.00  0.00    +0.000 A 
ENDROOT
BRANCH   5   7
ATOM      7  N   UNL     1       2.830   7.409  19.476  0.00  0.00    +0.000 N 
ATOM      8  C   UNL     1       2.746   6.255  18.696  0.00  0.00    +0.000 C 
ATOM      9  O   UNL     1       1.718   5.737  18.266  0.00  0.00    +0.000 OA
ATOM     10  H   UNL     1       3.775   7.745  19.646  0.00  0.00    +0.000 HD
BRANCH   8  11
ATOM     11  C   UNL     1       4.057   5.632  18.314  0.00  0.00    +0.000 A 
ATOM     12  C   UNL     1       4.338   5.407  16.964  0.00  0.00    +0.000 A 
ATOM     13  C   UNL     1       5.573   4.865  16.618  0.00  0.00    +0.000 A 
ATOM     14  C   UNL     1       6.472   4.560  17.639  0.00  0.00    +0.000 A 
ATOM     15  C   UNL     1       6.104   4.812  18.955  0.00  0.00    +0.000 A 
ATOM     16  N   UNL     1       4.918   5.350  19.328  0.00  0.00    +0.000 NA
BRANCH  13  17
ATOM     17  C   UNL     1       5.916   4.634  15.256  0.00  0.00    +0.000 C 
ATOM     18  C   UNL     1       5.636   4.154  14.076  0.00  0.00    +0.000 C 
ATOM     19  C   UNL     1       6.913   4.792  14.234  0.00  0.00    +0.000 C 
ENDBRANCH  13  17
ENDBRANCH   8  11
ENDBRANCH   5   7
BRANCH   1  20
ATOM     20  C   UNL     1      -0.399  11.164  18.494  0.00  0.00    +0.000 C 
ATOM     21  C   UNL     1       0.233  12.520  18.844  0.00  0.00    +0.000 C 
BRANCH  20  26
ATOM     22  N   UNL     1      -2.747  10.751  17.504  0.00  0.00    +0.000 N 
ATOM     23  C   UNL     1      -3.976  11.285  17.827  0.00  0.00    +0.000 A 
ATOM     24  N   UNL     1      -3.906  12.018  18.911  0.00  0.00    +0.000 NA
ATOM     25  N   UNL     1      -2.610  11.998  19.332  0.00  0.00    +0.000 NA
ATOM     26  C   UNL     1      -1.901  11.272  18.484  0.00  0.00    +0.000 A 
BRANCH  22  28
ATOM     27  C   UNL     1      -2.924  10.019  15.173  0.00  0.00    +0.000 C 
ATOM     28  C   UNL     1      -2.451   9.909  16.426  0.00  0.00    +0.000 C 
ENDBRANCH  22  28
ENDBRANCH  20  26
ENDBRANCH   1  20
TORSDOF 6
ENDMDL
MODEL 9
REMARK VINA RESULT:      -7.8      1.524      2.115
REMARK  Name = 
REMARK  7 active torsions:
REMARK  status: ('A' for Active; 'I' for Inactive)
REMARK    1  A    between atoms: C_2  and  N_3
REMARK    2  A    between atoms: C_7  and  C_8
REMARK    3  A    between atoms: C_8  and  C_9
REMARK    4  A    between atoms: C_8  and  C_10
REMARK    5  A    between atoms: C_14  and  N_15
REMARK    6  A    between atoms: C_16  and  C_18
REMARK    7  A    between atoms: C_20  and  C_21
REMARK                            x       y       z     vdW  Elec       q    Type
REMARK                         _______ _______ _______ _____ _____    ______ ____
ROOT
ATOM      1  C   UNL     1       3.340   3.829  19.100  0.00  0.00    +0.000 A 
ATOM      2  C   UNL     1       3.304   2.759  20.011  0.00  0.00    +0.000 A 
ATOM      3  C   UNL     1       2.583   2.854  21.195  0.00  0.00    +0.000 A 
ATOM      4  C   UNL     1       1.931   4.040  21.519  0.00  0.00    +0.000 A 
ATOM      5  C   UNL     1       2.016   5.161  20.691  0.00  0.00    +0.000 A 
ATOM      6  C   UNL     1       2.683   5.034  19.454  0.00  0.00    +0.000 A 
ENDROOT
BRANCH   5   7
ATOM      7  N   UNL     1       1.487   6.418  21.087  0.00  0.00    +0.000 N 
ATOM      8  C   UNL     1       1.638   7.620  20.395  0.00  0.00    +0.000 C 
ATOM      9  O   UNL     1       2.282   7.792  19.363  0.00  0.00    +0.000 OA
ATOM     10  H   UNL     1       0.828   6.446  21.862  0.00  0.00    +0.000 HD
BRANCH   8  11
ATOM     11  C   UNL     1       0.887   8.791  20.957  0.00  0.00    +0.000 A 
ATOM     12  C   UNL     1       0.255   9.680  20.084  0.00  0.00    +0.000 A 
ATOM     13  C   UNL     1      -0.471  10.741  20.618  0.00  0.00    +0.000 A 
ATOM     14  C   UNL     1      -0.527  10.876  22.004  0.00  0.00    +0.000 A 
ATOM     15  C   UNL     1       0.138   9.947  22.795  0.00  0.00    +0.000 A 
ATOM     16  N   UNL     1       0.843   8.896  22.313  0.00  0.00    +0.000 NA
BRANCH  13  17
ATOM     17  C   UNL     1      -1.149  11.663  19.772  0.00  0.00    +0.000 C 
ATOM     18  C   UNL     1      -1.144  12.542  18.807  0.00  0.00    +0.000 C 
ATOM     19  C   UNL     1      -2.406  12.277  19.441  0.00  0.00    +0.000 C 
ENDBRANCH  13  17
ENDBRANCH   8  11
ENDBRANCH   5   7
BRANCH   1  20
ATOM     20  C   UNL     1       4.147   3.638  17.817  0.00  0.00    +0.000 C 
ATOM     21  C   UNL     1       4.147   2.174  17.355  0.00  0.00    +0.000 C 
BRANCH  20  26
ATOM     22  N   UNL     1       6.431   4.271  16.794  0.00  0.00    +0.000 N 
ATOM     23  C   UNL     1       7.630   4.607  17.384  0.00  0.00    +0.000 A 
ATOM     24  N   UNL     1       7.500   4.741  18.681  0.00  0.00    +0.000 NA
ATOM     25  N   UNL     1       6.197   4.484  18.987  0.00  0.00    +0.000 NA
ATOM     26  C   UNL     1       5.554   4.171  17.874  0.00  0.00    +0.000 A 
BRANCH  22  28
ATOM     27  C   UNL     1       5.646   4.944  14.573  0.00  0.00    +0.000 C 
ATOM     28  C   UNL     1       6.192   4.065  15.430  0.00  0.00    +0.000 C 
ENDBRANCH  22  28
ENDBRANCH  20  26
ENDBRANCH   1  20
TORSDOF 6
ENDMDL
