MODEL 1
REMARK VINA RESULT:      -9.3      0.000      0.000
REMARK  Name = 
REMARK  8 active torsions:
REMARK  status: ('A' for Active; 'I' for Inactive)
REMARK    1  A    between atoms: C_1  and  C_2
REMARK    2  A    between atoms: C_5  and  C_6
REMARK    3  A    between atoms: C_9  and  C_10
REMARK    4  A    between atoms: C_10  and  C_11
REMARK    5  A    between atoms: C_11  and  C_12
REMARK    6  A    between atoms: N_14  and  C_15
REMARK    7  A    between atoms: C_15  and  C_16
REMARK    8  A    between atoms: C_15  and  C_23
REMARK                            x       y       z     vdW  Elec       q    Type
REMARK                         _______ _______ _______ _____ _____    ______ ____
ROOT
ATOM      1  C   UNL     1       3.699   2.744  17.408  0.00  0.00    +0.000 C 
ATOM      2  O   UNL     1       2.773   3.149  16.711  0.00  0.00    +0.000 OA
ATOM      3  N   UNL     1       4.962   3.290  17.385  0.00  0.00    +0.000 N 
ATOM      4  H   UNL     1       5.686   2.850  17.935  0.00  0.00    +0.000 HD
ENDROOT
BRANCH   1   5
ATOM      5  C   UNL     1       3.559   1.577  18.366  0.00  0.00    +0.000 C 
BRANCH   5   6
ATOM      6  C   UNL     1       3.969   1.982  19.780  0.00  0.00    +0.000 C 
BRANCH   6  10
ATOM      7  C   UNL     1       2.384   5.106  20.296  0.00  0.00    +0.000 A 
ATOM      8  N   UNL     1       2.009   4.545  21.431  0.00  0.00    +0.000 NA
ATOM      9  N   UNL     1       2.530   3.264  21.437  0.00  0.00    +0.000 NA
ATOM     10  C   UNL     1       3.189   3.129  20.307  0.00  0.00    +0.000 A 
ATOM     11  O   UNL     1       3.136   4.253  19.522  0.00  0.00    +0.000 OA
BRANCH   7  16
ATOM     12  C   UNL     1       1.573  10.528  18.420  0.00  0.00    +0.000 C 
ATOM     13  C   UNL     1       1.760   9.118  18.903  0.00  0.00    +0.000 A 
ATOM     14  C   UNL     1       1.375   8.739  20.191  0.00  0.00    +0.000 A 
ATOM     15  C   UNL     1       1.569   7.422  20.630  0.00  0.00    +0.000 A 
ATOM     16  C   UNL     1       2.155   6.457  19.795  0.00  0.00    +0.000 A 
ATOM     17  C   UNL     1       2.521   6.844  18.496  0.00  0.00    +0.000 A 
ATOM     18  C   UNL     1       2.324   8.159  18.056  0.00  0.00    +0.000 A 
ENDBRANCH   7  16
ENDBRANCH   6  10
ENDBRANCH   5   6
ENDBRANCH   1   5
BRANCH   3  19
ATOM     19  C   UNL     1       5.338   4.392  16.500  0.00  0.00    +0.000 C 
BRANCH  19  20
ATOM     20  C   UNL     1       6.213   5.427  17.210  0.00  0.00    +0.000 A 
ATOM     21  C   UNL     1       7.127   5.084  18.221  0.00  0.00    +0.000 A 
ATOM     22  C   UNL     1       7.980   6.043  18.773  0.00  0.00    +0.000 A 
ATOM     23  C   UNL     1       7.930   7.352  18.317  0.00  0.00    +0.000 A 
ATOM     24  F   UNL     1       8.781   8.258  18.816  0.00  0.00    +0.000 F 
ATOM     25  C   UNL     1       7.016   7.731  17.345  0.00  0.00    +0.000 A 
ATOM     26  C   UNL     1       6.154   6.776  16.799  0.00  0.00    +0.000 A 
ENDBRANCH  19  20
BRANCH  19  27
ATOM     27  C   UNL     1       6.012   3.894  15.192  0.00  0.00    +0.000 C 
ATOM     28  C   UNL     1       7.182   4.765  14.720  0.00  0.00    +0.000 C 
ATOM     29  C   UNL     1       7.345   4.468  13.230  0.00  0.00    +0.000 C 
ATOM     30  C   UNL     1       6.088   3.722  12.793  0.00  0.00    +0.000 C 
ATOM     31  C   UNL     1       5.111   3.840  13.956  0.00  0.00    +0.000 C 
ENDBRANCH  19  27
ENDBRANCH   3  19
TORSDOF 7
ENDMDL
MODEL 2
REMARK VINA RESULT:      -9.2      3.615      6.902
REMARK  Name = 
REMARK  8 active torsions:
REMARK  status: ('A' for Active; 'I' for Inactive)
REMARK    1  A    between atoms: C_1  and  C_2
REMARK    2  A    between atoms: C_5  and  C_6
REMARK    3  A    between atoms: C_9  and  C_10
REMARK    4  A    between atoms: C_10  and  C_11
REMARK    5  A    between atoms: C_11  and  C_12
REMARK    6  A    between atoms: N_14  and  C_15
REMARK    7  A    between atoms: C_15  and  C_16
REMARK    8  A    between atoms: C_15  and  C_23
REMARK                            x       y       z     vdW  Elec       q    Type
REMARK                         _______ _______ _______ _____ _____    ______ ____
ROOT
ATOM      1  C   UNL     1       5.169   5.033  18.289  0.00  0.00    +0.000 C 
ATOM      2  O   UNL     1       5.465   4.561  19.383  0.00  0.00    +0.000 OA
ATOM      3  N   UNL     1       3.997   5.713  18.046  0.00  0.00    +0.000 N 
ATOM      4  H   UNL     1       3.797   6.004  17.100  0.00  0.00    +0.000 HD
ENDROOT
BRANCH   1   5
ATOM      5  C   UNL     1       6.059   4.901  17.068  0.00  0.00    +0.000 C 
BRANCH   5   6
ATOM      6  C   UNL     1       6.453   6.276  16.533  0.00  0.00    +0.000 C 
BRANCH   6  10
ATOM      7  C   UNL     1       8.314   8.767  18.226  0.00  0.00    +0.000 A 
ATOM      8  N   UNL     1       8.652   7.756  19.004  0.00  0.00    +0.000 NA
ATOM      9  N   UNL     1       8.005   6.637  18.514  0.00  0.00    +0.000 NA
ATOM     10  C   UNL     1       7.316   7.039  17.468  0.00  0.00    +0.000 A 
ATOM     11  O   UNL     1       7.453   8.382  17.225  0.00  0.00    +0.000 OA
BRANCH   7  16
ATOM     12  C   UNL     1       9.877  14.344  18.413  0.00  0.00    +0.000 C 
ATOM     13  C   UNL     1       9.482  12.896  18.342  0.00  0.00    +0.000 A 
ATOM     14  C   UNL     1       8.401  12.479  17.562  0.00  0.00    +0.000 A 
ATOM     15  C   UNL     1       8.039  11.126  17.519  0.00  0.00    +0.000 A 
ATOM     16  C   UNL     1       8.743  10.161  18.257  0.00  0.00    +0.000 A 
ATOM     17  C   UNL     1       9.839  10.589  19.024  0.00  0.00    +0.000 A 
ATOM     18  C   UNL     1      10.204  11.940  19.064  0.00  0.00    +0.000 A 
ENDBRANCH   7  16
ENDBRANCH   6  10
ENDBRANCH   5   6
ENDBRANCH   1   5
BRANCH   3  19
ATOM     19  C   UNL     1       2.968   5.916  19.065  0.00  0.00    +0.000 C 
BRANCH  19  20
ATOM     20  C   UNL     1       2.392   7.332  19.027  0.00  0.00    +0.000 A 
ATOM     21  C   UNL     1       2.361   8.109  17.856  0.00  0.00    +0.000 A 
ATOM     22  C   UNL     1       1.735   9.358  17.838  0.00  0.00    +0.000 A 
ATOM     23  C   UNL     1       1.130   9.841  18.990  0.00  0.00    +0.000 A 
ATOM     24  F   UNL     1       0.492  11.017  18.957  0.00  0.00    +0.000 F 
ATOM     25  C   UNL     1       1.173   9.115  20.171  0.00  0.00    +0.000 A 
ATOM     26  C   UNL     1       1.807   7.870  20.194  0.00  0.00    +0.000 A 
ENDBRANCH  19  20
BRANCH  19  27
ATOM     27  C   UNL     1       1.839   4.852  18.982  0.00  0.00    +0.000 C 
ATOM     28  C   UNL     1       1.407   4.291  20.343  0.00  0.00    +0.000 C 
ATOM     29  C   UNL     1       0.737   2.950  20.045  0.00  0.00    +0.000 C 
ATOM     30  C   UNL     1       1.091   2.596  18.604  0.00  0.00    +0.000 C 
ATOM     31  C   UNL     1       2.171   3.587  18.186  0.00  0.00    +0.000 C 
ENDBRANCH  19  27
ENDBRANCH   3  19
TORSDOF 7
ENDMDL
MODEL 3
REMARK VINA RESULT:      -9.0      4.256      6.426
REMARK  Name = 
REMARK  8 active torsions:
REMARK  status: ('A' for Active; 'I' for Inactive)
REMARK    1  A    between atoms: C_1  and  C_2
REMARK    2  A    between atoms: C_5  and  C_6
REMARK    3  A    between atoms: C_9  and  C_10
REMARK    4  A    between atoms: C_10  and  C_11
REMARK    5  A    between atoms: C_11  and  C_12
REMARK    6  A    between atoms: N_14  and  C_15
REMARK    7  A    between atoms: C_15  and  C_16
REMARK    8  A    between atoms: C_15  and  C_23
REMARK                            x       y       z     vdW  Elec       q    Type
REMARK                         _______ _______ _______ _____ _____    ______ ____
ROOT
ATOM      1  C   UNL     1       1.970   8.286  18.515  0.00  0.00    +0.000 C 
ATOM      2  O   UNL     1       2.151   8.550  17.330  0.00  0.00    +0.000 OA
ATOM      3  N   UNL     1       2.293   7.075  19.082  0.00  0.00    +0.000 N 
ATOM      4  H   UNL     1       2.044   6.913  20.047  0.00  0.00    +0.000 HD
ENDROOT
BRANCH   1   5
ATOM      5  C   UNL     1       1.347   9.266  19.490  0.00  0.00    +0.000 C 
BRANCH   5   6
ATOM      6  C   UNL     1       1.185   8.631  20.870  0.00  0.00    +0.000 C 
BRANCH   6  10
ATOM      7  C   UNL     1      -0.978  10.974  22.408  0.00  0.00    +0.000 A 
ATOM      8  N   UNL     1      -0.365  10.574  23.507  0.00  0.00    +0.000 NA
ATOM      9  N   UNL     1       0.553   9.612  23.128  0.00  0.00    +0.000 NA
ATOM     10  C   UNL     1       0.441   9.490  21.823  0.00  0.00    +0.000 A 
ATOM     11  O   UNL     1      -0.518  10.315  21.292  0.00  0.00    +0.000 OA
BRANCH   7  16
ATOM     12  C   UNL     1      -5.115  14.946  21.582  0.00  0.00    +0.000 C 
ATOM     13  C   UNL     1      -4.026  13.933  21.793  0.00  0.00    +0.000 A 
ATOM     14  C   UNL     1      -3.322  13.395  20.713  0.00  0.00    +0.000 A 
ATOM     15  C   UNL     1      -2.318  12.441  20.927  0.00  0.00    +0.000 A 
ATOM     16  C   UNL     1      -1.998  12.000  22.222  0.00  0.00    +0.000 A 
ATOM     17  C   UNL     1      -2.699  12.562  23.300  0.00  0.00    +0.000 A 
ATOM     18  C   UNL     1      -3.700  13.518  23.087  0.00  0.00    +0.000 A 
ENDBRANCH   7  16
ENDBRANCH   6  10
ENDBRANCH   5   6
ENDBRANCH   1   5
BRANCH   3  19
ATOM     19  C   UNL     1       2.860   5.963  18.319  0.00  0.00    +0.000 C 
BRANCH  19  20
ATOM     20  C   UNL     1       4.385   6.041  18.235  0.00  0.00    +0.000 A 
ATOM     21  C   UNL     1       5.055   6.813  17.270  0.00  0.00    +0.000 A 
ATOM     22  C   UNL     1       6.446   6.939  17.290  0.00  0.00    +0.000 A 
ATOM     23  C   UNL     1       7.181   6.297  18.277  0.00  0.00    +0.000 A 
ATOM     24  F   UNL     1       8.510   6.457  18.320  0.00  0.00    +0.000 F 
ATOM     25  C   UNL     1       6.554   5.500  19.223  0.00  0.00    +0.000 A 
ATOM     26  C   UNL     1       5.164   5.364  19.199  0.00  0.00    +0.000 A 
ENDBRANCH  19  20
BRANCH  19  27
ATOM     27  C   UNL     1       2.400   4.582  18.859  0.00  0.00    +0.000 C 
ATOM     28  C   UNL     1       1.506   3.798  17.891  0.00  0.00    +0.000 C 
ATOM     29  C   UNL     1       0.745   2.790  18.753  0.00  0.00    +0.000 C 
ATOM     30  C   UNL     1       0.935   3.225  20.203  0.00  0.00    +0.000 C 
ATOM     31  C   UNL     1       1.564   4.612  20.141  0.00  0.00    +0.000 C 
ENDBRANCH  19  27
ENDBRANCH   3  19
TORSDOF 7
ENDMDL
MODEL 4
REMARK VINA RESULT:      -9.0      3.887      7.037
REMARK  Name = 
REMARK  8 active torsions:
REMARK  status: ('A' for Active; 'I' for Inactive)
REMARK    1  A    between atoms: C_1  and  C_2
REMARK    2  A    between atoms: C_5  and  C_6
REMARK    3  A    between atoms: C_9  and  C_10
REMARK    4  A    between atoms: C_10  and  C_11
REMARK    5  A    between atoms: C_11  and  C_12
REMARK    6  A    between atoms: N_14  and  C_15
REMARK    7  A    between atoms: C_15  and  C_16
REMARK    8  A    between atoms: C_15  and  C_23
REMARK                            x       y       z     vdW  Elec       q    Type
REMARK                         _______ _______ _______ _____ _____    ______ ____
ROOT
ATOM      1  C   UNL     1       5.983   4.400  17.296  0.00  0.00    +0.000 C 
ATOM      2  O   UNL     1       5.712   4.029  16.158  0.00  0.00    +0.000 OA
ATOM      3  N   UNL     1       5.032   4.724  18.236  0.00  0.00    +0.000 N 
ATOM      4  H   UNL     1       5.340   5.091  19.126  0.00  0.00    +0.000 HD
ENDROOT
BRANCH   1   5
ATOM      5  C   UNL     1       7.407   4.562  17.792  0.00  0.00    +0.000 C 
BRANCH   5   6
ATOM      6  C   UNL     1       7.496   5.675  18.834  0.00  0.00    +0.000 C 
BRANCH   6  10
ATOM      7  C   UNL     1       8.516   9.003  18.188  0.00  0.00    +0.000 A 
ATOM      8  N   UNL     1       7.871   8.808  17.053  0.00  0.00    +0.000 NA
ATOM      9  N   UNL     1       7.379   7.517  17.086  0.00  0.00    +0.000 NA
ATOM     10  C   UNL     1       7.755   7.009  18.240  0.00  0.00    +0.000 A 
ATOM     11  O   UNL     1       8.489   7.889  18.994  0.00  0.00    +0.000 OA
BRANCH   7  16
ATOM     12  C   UNL     1      11.272  13.649  20.286  0.00  0.00    +0.000 C 
ATOM     13  C   UNL     1      10.536  12.455  19.746  0.00  0.00    +0.000 A 
ATOM     14  C   UNL     1       9.918  11.541  20.602  0.00  0.00    +0.000 A 
ATOM     15  C   UNL     1       9.247  10.426  20.081  0.00  0.00    +0.000 A 
ATOM     16  C   UNL     1       9.184  10.197  18.697  0.00  0.00    +0.000 A 
ATOM     17  C   UNL     1       9.793  11.132  17.846  0.00  0.00    +0.000 A 
ATOM     18  C   UNL     1      10.461  12.248  18.365  0.00  0.00    +0.000 A 
ENDBRANCH   7  16
ENDBRANCH   6  10
ENDBRANCH   5   6
ENDBRANCH   1   5
BRANCH   3  19
ATOM     19  C   UNL     1       3.596   4.689  17.963  0.00  0.00    +0.000 C 
BRANCH  19  20
ATOM     20  C   UNL     1       2.803   4.082  19.122  0.00  0.00    +0.000 A 
ATOM     21  C   UNL     1       1.537   3.496  18.952  0.00  0.00    +0.000 A 
ATOM     22  C   UNL     1       0.890   2.862  20.016  0.00  0.00    +0.000 A 
ATOM     23  C   UNL     1       1.505   2.804  21.258  0.00  0.00    +0.000 A 
ATOM     24  F   UNL     1       0.903   2.156  22.264  0.00  0.00    +0.000 F 
ATOM     25  C   UNL     1       2.739   3.403  21.468  0.00  0.00    +0.000 A 
ATOM     26  C   UNL     1       3.382   4.047  20.409  0.00  0.00    +0.000 A 
ENDBRANCH  19  20
BRANCH  19  27
ATOM     27  C   UNL     1       3.036   6.085  17.573  0.00  0.00    +0.000 C 
ATOM     28  C   UNL     1       4.116   7.142  17.314  0.00  0.00    +0.000 C 
ATOM     29  C   UNL     1       3.422   8.493  17.484  0.00  0.00    +0.000 C 
ATOM     30  C   UNL     1       2.085   8.215  18.164  0.00  0.00    +0.000 C 
ATOM     31  C   UNL     1       2.145   6.762  18.617  0.00  0.00    +0.000 C 
ENDBRANCH  19  27
ENDBRANCH   3  19
TORSDOF 7
ENDMDL
MODEL 5
REMARK VINA RESULT:      -9.0      0.961      1.311
REMARK  Name = 
REMARK  8 active torsions:
REMARK  status: ('A' for Active; 'I' for Inactive)
REMARK    1  A    between atoms: C_1  and  C_2
REMARK    2  A    between atoms: C_5  and  C_6
REMARK    3  A    between atoms: C_9  and  C_10
REMARK    4  A    between atoms: C_10  and  C_11
REMARK    5  A    between atoms: C_11  and  C_12
REMARK    6  A    between atoms: N_14  and  C_15
REMARK    7  A    between atoms: C_15  and  C_16
REMARK    8  A    between atoms: C_15  and  C_23
REMARK                            x       y       z     vdW  Elec       q    Type
REMARK                         _______ _______ _______ _____ _____    ______ ____
ROOT
ATOM      1  C   UNL     1       3.222   3.086  16.951  0.00  0.00    +0.000 C 
ATOM      2  O   UNL     1       2.385   3.750  16.348  0.00  0.00    +0.000 OA
ATOM      3  N   UNL     1       4.575   3.333  16.893  0.00  0.00    +0.000 N 
ATOM      4  H   UNL     1       5.201   2.694  17.361  0.00  0.00    +0.000 HD
ENDROOT
BRANCH   1   5
ATOM      5  C   UNL     1       2.859   1.899  17.822  0.00  0.00    +0.000 C 
BRANCH   5   6
ATOM      6  C   UNL     1       2.606   2.339  19.263  0.00  0.00    +0.000 C 
BRANCH   6  10
ATOM      7  C   UNL     1       2.950   5.842  19.644  0.00  0.00    +0.000 A 
ATOM      8  N   UNL     1       4.169   5.517  20.031  0.00  0.00    +0.000 NA
ATOM      9  N   UNL     1       4.257   4.139  19.967  0.00  0.00    +0.000 NA
ATOM     10  C   UNL     1       3.086   3.714  19.544  0.00  0.00    +0.000 A 
ATOM     11  O   UNL     1       2.198   4.736  19.325  0.00  0.00    +0.000 OA
BRANCH   7  16
ATOM     12  C   UNL     1       0.416  10.995  18.866  0.00  0.00    +0.000 C 
ATOM     13  C   UNL     1       1.094   9.670  19.070  0.00  0.00    +0.000 A 
ATOM     14  C   UNL     1       1.807   9.057  18.036  0.00  0.00    +0.000 A 
ATOM     15  C   UNL     1       2.422   7.815  18.240  0.00  0.00    +0.000 A 
ATOM     16  C   UNL     1       2.336   7.155  19.477  0.00  0.00    +0.000 A 
ATOM     17  C   UNL     1       1.632   7.788  20.513  0.00  0.00    +0.000 A 
ATOM     18  C   UNL     1       1.020   9.032  20.311  0.00  0.00    +0.000 A 
ENDBRANCH   7  16
ENDBRANCH   6  10
ENDBRANCH   5   6
ENDBRANCH   1   5
BRANCH   3  19
ATOM     19  C   UNL     1       5.156   4.397  16.075  0.00  0.00    +0.000 C 
BRANCH  19  20
ATOM     20  C   UNL     1       6.053   5.327  16.894  0.00  0.00    +0.000 A 
ATOM     21  C   UNL     1       7.022   4.851  17.794  0.00  0.00    +0.000 A 
ATOM     22  C   UNL     1       7.890   5.730  18.446  0.00  0.00    +0.000 A 
ATOM     23  C   UNL     1       7.800   7.093  18.202  0.00  0.00    +0.000 A 
ATOM     24  F   UNL     1       8.663   7.928  18.794  0.00  0.00    +0.000 F 
ATOM     25  C   UNL     1       6.832   7.599  17.347  0.00  0.00    +0.000 A 
ATOM     26  C   UNL     1       5.956   6.723  16.701  0.00  0.00    +0.000 A 
ENDBRANCH  19  20
BRANCH  19  27
ATOM     27  C   UNL     1       5.911   3.843  14.836  0.00  0.00    +0.000 C 
ATOM     28  C   UNL     1       7.017   4.766  14.312  0.00  0.00    +0.000 C 
ATOM     29  C   UNL     1       7.252   4.349  12.860  0.00  0.00    +0.000 C 
ATOM     30  C   UNL     1       6.077   3.459  12.466  0.00  0.00    +0.000 C 
ATOM     31  C   UNL     1       5.057   3.597  13.589  0.00  0.00    +0.000 C 
ENDBRANCH  19  27
ENDBRANCH   3  19
TORSDOF 7
ENDMDL
MODEL 6
REMARK VINA RESULT:      -8.9      4.070      6.195
REMARK  Name = 
REMARK  8 active torsions:
REMARK  status: ('A' for Active; 'I' for Inactive)
REMARK    1  A    between atoms: C_1  and  C_2
REMARK    2  A    between atoms: C_5  and  C_6
REMARK    3  A    between atoms: C_9  and  C_10
REMARK    4  A    between atoms: C_10  and  C_11
REMARK    5  A    between atoms: C_11  and  C_12
REMARK    6  A    between atoms: N_14  and  C_15
REMARK    7  A    between atoms: C_15  and  C_16
REMARK    8  A    between atoms: C_15  and  C_23
REMARK                            x       y       z     vdW  Elec       q    Type
REMARK                         _______ _______ _______ _____ _____    ______ ____
ROOT
ATOM      1  C   UNL     1       2.191   8.031  18.351  0.00  0.00    +0.000 C 
ATOM      2  O   UNL     1       2.540   8.368  17.224  0.00  0.00    +0.000 OA
ATOM      3  N   UNL     1       2.150   6.723  18.775  0.00  0.00    +0.000 N 
ATOM      4  H   UNL     1       1.781   6.526  19.695  0.00  0.00    +0.000 HD
ENDROOT
BRANCH   1   5
ATOM      5  C   UNL     1       1.743   9.025  19.405  0.00  0.00    +0.000 C 
BRANCH   5   6
ATOM      6  C   UNL     1       1.449   8.320  20.727  0.00  0.00    +0.000 C 
BRANCH   6  10
ATOM      7  C   UNL     1      -0.661  10.655  22.349  0.00  0.00    +0.000 A 
ATOM      8  N   UNL     1       0.032  10.296  23.414  0.00  0.00    +0.000 NA
ATOM      9  N   UNL     1       0.945   9.345  22.998  0.00  0.00    +0.000 NA
ATOM     10  C   UNL     1       0.749   9.187  21.707  0.00  0.00    +0.000 A 
ATOM     11  O   UNL     1      -0.261   9.978  21.221  0.00  0.00    +0.000 OA
BRANCH   7  16
ATOM     12  C   UNL     1      -4.913  14.533  21.669  0.00  0.00    +0.000 C 
ATOM     13  C   UNL     1      -3.795  13.546  21.847  0.00  0.00    +0.000 A 
ATOM     14  C   UNL     1      -2.927  13.240  20.796  0.00  0.00    +0.000 A 
ATOM     15  C   UNL     1      -1.897  12.307  20.976  0.00  0.00    +0.000 A 
ATOM     16  C   UNL     1      -1.715  11.654  22.207  0.00  0.00    +0.000 A 
ATOM     17  C   UNL     1      -2.581  11.982  23.261  0.00  0.00    +0.000 A 
ATOM     18  C   UNL     1      -3.608  12.918  23.083  0.00  0.00    +0.000 A 
ENDBRANCH   7  16
ENDBRANCH   6  10
ENDBRANCH   5   6
ENDBRANCH   1   5
BRANCH   3  19
ATOM     19  C   UNL     1       2.491   5.594  17.911  0.00  0.00    +0.000 C 
BRANCH  19  20
ATOM     20  C   UNL     1       3.986   5.272  17.946  0.00  0.00    +0.000 A 
ATOM     21  C   UNL     1       4.726   4.972  16.789  0.00  0.00    +0.000 A 
ATOM     22  C   UNL     1       6.109   4.785  16.850  0.00  0.00    +0.000 A 
ATOM     23  C   UNL     1       6.766   4.899  18.067  0.00  0.00    +0.000 A 
ATOM     24  F   UNL     1       8.098   4.765  18.114  0.00  0.00    +0.000 F 
ATOM     25  C   UNL     1       6.061   5.161  19.232  0.00  0.00    +0.000 A 
ATOM     26  C   UNL     1       4.677   5.338  19.176  0.00  0.00    +0.000 A 
ENDBRANCH  19  20
BRANCH  19  27
ATOM     27  C   UNL     1       1.641   4.332  18.227  0.00  0.00    +0.000 C 
ATOM     28  C   UNL     1       1.269   4.183  19.706  0.00  0.00    +0.000 C 
ATOM     29  C   UNL     1       0.940   2.704  19.904  0.00  0.00    +0.000 C 
ATOM     30  C   UNL     1       1.450   1.974  18.666  0.00  0.00    +0.000 C 
ATOM     31  C   UNL     1       2.298   2.987  17.907  0.00  0.00    +0.000 C 
ENDBRANCH  19  27
ENDBRANCH   3  19
TORSDOF 7
ENDMDL
MODEL 7
REMARK VINA RESULT:      -8.8      4.717      6.954
REMARK  Name = 
REMARK  8 active torsions:
REMARK  status: ('A' for Active; 'I' for Inactive)
REMARK    1  A    between atoms: C_1  and  C_2
REMARK    2  A    between atoms: C_5  and  C_6
REMARK    3  A    between atoms: C_9  and  C_10
REMARK    4  A    between atoms: C_10  and  C_11
REMARK    5  A    between atoms: C_11  and  C_12
REMARK    6  A    between atoms: N_14  and  C_15
REMARK    7  A    between atoms: C_15  and  C_16
REMARK    8  A    between atoms: C_15  and  C_23
REMARK                            x       y       z     vdW  Elec       q    Type
REMARK                         _______ _______ _______ _____ _____    ______ ____
ROOT
ATOM      1  C   UNL     1       2.195   8.044  18.689  0.00  0.00    +0.000 C 
ATOM      2  O   UNL     1       1.968   8.032  19.894  0.00  0.00    +0.000 OA
ATOM      3  N   UNL     1       2.989   7.116  18.055  0.00  0.00    +0.000 N 
ATOM      4  H   UNL     1       3.185   7.241  17.072  0.00  0.00    +0.000 HD
ENDROOT
BRANCH   1   5
ATOM      5  C   UNL     1       1.639   9.103  17.757  0.00  0.00    +0.000 C 
BRANCH   5   6
ATOM      6  C   UNL     1       1.842  10.501  18.340  0.00  0.00    +0.000 C 
BRANCH   6  10
ATOM      7  C   UNL     1      -1.424  11.549  19.217  0.00  0.00    +0.000 A 
ATOM      8  N   UNL     1      -0.833  11.902  20.344  0.00  0.00    +0.000 NA
ATOM      9  N   UNL     1       0.501  11.562  20.221  0.00  0.00    +0.000 NA
ATOM     10  C   UNL     1       0.636  11.025  19.028  0.00  0.00    +0.000 A 
ATOM     11  O   UNL     1      -0.544  10.973  18.332  0.00  0.00    +0.000 OA
BRANCH   7  16
ATOM     12  C   UNL     1      -6.907  12.380  17.536  0.00  0.00    +0.000 C 
ATOM     13  C   UNL     1      -5.493  12.145  17.985  0.00  0.00    +0.000 A 
ATOM     14  C   UNL     1      -5.074  12.503  19.268  0.00  0.00    +0.000 A 
ATOM     15  C   UNL     1      -3.747  12.290  19.665  0.00  0.00    +0.000 A 
ATOM     16  C   UNL     1      -2.809  11.719  18.789  0.00  0.00    +0.000 A 
ATOM     17  C   UNL     1      -3.246  11.346  17.508  0.00  0.00    +0.000 A 
ATOM     18  C   UNL     1      -4.573  11.556  17.112  0.00  0.00    +0.000 A 
ENDBRANCH   7  16
ENDBRANCH   6  10
ENDBRANCH   5   6
ENDBRANCH   1   5
BRANCH   3  19
ATOM     19  C   UNL     1       3.670   6.033  18.764  0.00  0.00    +0.000 C 
BRANCH  19  20
ATOM     20  C   UNL     1       2.821   4.762  18.827  0.00  0.00    +0.000 A 
ATOM     21  C   UNL     1       1.821   4.564  19.794  0.00  0.00    +0.000 A 
ATOM     22  C   UNL     1       0.998   3.435  19.756  0.00  0.00    +0.000 A 
ATOM     23  C   UNL     1       1.165   2.496  18.748  0.00  0.00    +0.000 A 
ATOM     24  F   UNL     1       0.345   1.439  18.688  0.00  0.00    +0.000 F 
ATOM     25  C   UNL     1       2.165   2.644  17.799  0.00  0.00    +0.000 A 
ATOM     26  C   UNL     1       2.996   3.767  17.841  0.00  0.00    +0.000 A 
ENDBRANCH  19  20
BRANCH  19  27
ATOM     27  C   UNL     1       5.077   5.736  18.175  0.00  0.00    +0.000 C 
ATOM     28  C   UNL     1       6.159   5.494  19.233  0.00  0.00    +0.000 C 
ATOM     29  C   UNL     1       7.491   5.759  18.532  0.00  0.00    +0.000 C 
ATOM     30  C   UNL     1       7.162   6.469  17.223  0.00  0.00    +0.000 C 
ATOM     31  C   UNL     1       5.688   6.845  17.315  0.00  0.00    +0.000 C 
ENDBRANCH  19  27
ENDBRANCH   3  19
TORSDOF 7
ENDMDL
MODEL 8
REMARK VINA RESULT:      -8.8      4.083      7.235
REMARK  Name = 
REMARK  8 active torsions:
REMARK  status: ('A' for Active; 'I' for Inactive)
REMARK    1  A    between atoms: C_1  and  C_2
REMARK    2  A    between atoms: C_5  and  C_6
REMARK    3  A    between atoms: C_9  and  C_10
REMARK    4  A    between atoms: C_10  and  C_11
REMARK    5  A    between atoms: C_11  and  C_12
REMARK    6  A    between atoms: N_14  and  C_15
REMARK    7  A    between atoms: C_15  and  C_16
REMARK    8  A    between atoms: C_15  and  C_23
REMARK                            x       y       z     vdW  Elec       q    Type
REMARK                         _______ _______ _______ _____ _____    ______ ____
ROOT
ATOM      1  C   UNL     1       6.232   4.985  17.102  0.00  0.00    +0.000 C 
ATOM      2  O   UNL     1       5.942   4.768  15.929  0.00  0.00    +0.000 OA
ATOM      3  N   UNL     1       5.326   5.425  18.040  0.00  0.00    +0.000 N 
ATOM      4  H   UNL     1       5.663   5.649  18.966  0.00  0.00    +0.000 HD
ENDROOT
BRANCH   1   5
ATOM      5  C   UNL     1       7.636   4.810  17.648  0.00  0.00    +0.000 C 
BRANCH   5   6
ATOM      6  C   UNL     1       7.926   5.838  18.740  0.00  0.00    +0.000 C 
BRANCH   6  10
ATOM      7  C   UNL     1       8.519   9.293  18.245  0.00  0.00    +0.000 A 
ATOM      8  N   UNL     1       7.738   9.111  17.197  0.00  0.00    +0.000 NA
ATOM      9  N   UNL     1       7.382   7.776  17.187  0.00  0.00    +0.000 NA
ATOM     10  C   UNL     1       7.968   7.231  18.232  0.00  0.00    +0.000 A 
ATOM     11  O   UNL     1       8.716   8.128  18.949  0.00  0.00    +0.000 OA
BRANCH   7  16
ATOM     12  C   UNL     1      11.108  14.052  20.302  0.00  0.00    +0.000 C 
ATOM     13  C   UNL     1      10.417  12.824  19.781  0.00  0.00    +0.000 A 
ATOM     14  C   UNL     1      10.240  11.697  20.587  0.00  0.00    +0.000 A 
ATOM     15  C   UNL     1       9.605  10.556  20.080  0.00  0.00    +0.000 A 
ATOM     16  C   UNL     1       9.137  10.512  18.757  0.00  0.00    +0.000 A 
ATOM     17  C   UNL     1       9.303  11.656  17.961  0.00  0.00    +0.000 A 
ATOM     18  C   UNL     1       9.935  12.798  18.468  0.00  0.00    +0.000 A 
ENDBRANCH   7  16
ENDBRANCH   6  10
ENDBRANCH   5   6
ENDBRANCH   1   5
BRANCH   3  19
ATOM     19  C   UNL     1       3.927   5.709  17.725  0.00  0.00    +0.000 C 
BRANCH  19  20
ATOM     20  C   UNL     1       3.016   4.518  18.025  0.00  0.00    +0.000 A 
ATOM     21  C   UNL     1       3.436   3.412  18.784  0.00  0.00    +0.000 A 
ATOM     22  C   UNL     1       2.544   2.391  19.122  0.00  0.00    +0.000 A 
ATOM     23  C   UNL     1       1.221   2.469  18.709  0.00  0.00    +0.000 A 
ATOM     24  F   UNL     1       0.358   1.513  19.073  0.00  0.00    +0.000 F 
ATOM     25  C   UNL     1       0.783   3.530  17.930  0.00  0.00    +0.000 A 
ATOM     26  C   UNL     1       1.676   4.546  17.581  0.00  0.00    +0.000 A 
ENDBRANCH  19  20
BRANCH  19  27
ATOM     27  C   UNL     1       3.414   6.996  18.429  0.00  0.00    +0.000 C 
ATOM     28  C   UNL     1       2.583   6.730  19.689  0.00  0.00    +0.000 C 
ATOM     29  C   UNL     1       1.752   7.994  19.911  0.00  0.00    +0.000 C 
ATOM     30  C   UNL     1       1.845   8.809  18.625  0.00  0.00    +0.000 C 
ATOM     31  C   UNL     1       2.491   7.889  17.597  0.00  0.00    +0.000 C 
ENDBRANCH  19  27
ENDBRANCH   3  19
TORSDOF 7
ENDMDL
MODEL 9
REMARK VINA RESULT:      -8.8      4.070      6.116
REMARK  Name = 
REMARK  8 active torsions:
REMARK  status: ('A' for Active; 'I' for Inactive)
REMARK    1  A    between atoms: C_1  and  C_2
REMARK    2  A    between atoms: C_5  and  C_6
REMARK    3  A    between atoms: C_9  and  C_10
REMARK    4  A    between atoms: C_10  and  C_11
REMARK    5  A    between atoms: C_11  and  C_12
REMARK    6  A    between atoms: N_14  and  C_15
REMARK    7  A    between atoms: C_15  and  C_16
REMARK    8  A    between atoms: C_15  and  C_23
REMARK                            x       y       z     vdW  Elec       q    Type
REMARK                         _______ _______ _______ _____ _____    ______ ____
ROOT
ATOM      1  C   UNL     1       2.172   8.025  18.262  0.00  0.00    +0.000 C 
ATOM      2  O   UNL     1       2.638   8.358  17.177  0.00  0.00    +0.000 OA
ATOM      3  N   UNL     1       2.096   6.719  18.688  0.00  0.00    +0.000 N 
ATOM      4  H   UNL     1       1.631   6.524  19.564  0.00  0.00    +0.000 HD
ENDROOT
BRANCH   1   5
ATOM      5  C   UNL     1       1.606   9.021  19.255  0.00  0.00    +0.000 C 
BRANCH   5   6
ATOM      6  C   UNL     1       1.505   8.403  20.648  0.00  0.00    +0.000 C 
BRANCH   6  10
ATOM      7  C   UNL     1      -0.657  10.715  22.234  0.00  0.00    +0.000 A 
ATOM      8  N   UNL     1       0.021  10.363  23.311  0.00  0.00    +0.000 NA
ATOM      9  N   UNL     1       0.950   9.421  22.910  0.00  0.00    +0.000 NA
ATOM     10  C   UNL     1       0.779   9.262  21.615  0.00  0.00    +0.000 A 
ATOM     11  O   UNL     1      -0.229  10.044  21.113  0.00  0.00    +0.000 OA
BRANCH   7  16
ATOM     12  C   UNL     1      -4.793  14.738  21.699  0.00  0.00    +0.000 C 
ATOM     13  C   UNL     1      -3.738  13.678  21.837  0.00  0.00    +0.000 A 
ATOM     14  C   UNL     1      -3.503  13.048  23.062  0.00  0.00    +0.000 A 
ATOM     15  C   UNL     1      -2.505  12.071  23.176  0.00  0.00    +0.000 A 
ATOM     16  C   UNL     1      -1.717  11.705  22.073  0.00  0.00    +0.000 A 
ATOM     17  C   UNL     1      -1.973  12.332  20.843  0.00  0.00    +0.000 A 
ATOM     18  C   UNL     1      -2.973  13.306  20.727  0.00  0.00    +0.000 A 
ENDBRANCH   7  16
ENDBRANCH   6  10
ENDBRANCH   5   6
ENDBRANCH   1   5
BRANCH   3  19
ATOM     19  C   UNL     1       2.537   5.587  17.873  0.00  0.00    +0.000 C 
BRANCH  19  20
ATOM     20  C   UNL     1       4.052   5.391  17.933  0.00  0.00    +0.000 A 
ATOM     21  C   UNL     1       4.786   5.497  19.126  0.00  0.00    +0.000 A 
ATOM     22  C   UNL     1       6.153   5.210  19.158  0.00  0.00    +0.000 A 
ATOM     23  C   UNL     1       6.799   4.810  17.996  0.00  0.00    +0.000 A 
ATOM     24  F   UNL     1       8.099   4.492  18.040  0.00  0.00    +0.000 F 
ATOM     25  C   UNL     1       6.111   4.728  16.795  0.00  0.00    +0.000 A 
ATOM     26  C   UNL     1       4.746   5.025  16.759  0.00  0.00    +0.000 A 
ENDBRANCH  19  20
BRANCH  19  27
ATOM     27  C   UNL     1       1.788   4.275  18.233  0.00  0.00    +0.000 C 
ATOM     28  C   UNL     1       1.264   4.229  19.673  0.00  0.00    +0.000 C 
ATOM     29  C   UNL     1       1.066   2.748  19.996  0.00  0.00    +0.000 C 
ATOM     30  C   UNL     1       1.788   1.964  18.904  0.00  0.00    +0.000 C 
ATOM     31  C   UNL     1       2.611   2.988  18.133  0.00  0.00    +0.000 C 
ENDBRANCH  19  27
ENDBRANCH   3  19
TORSDOF 7
ENDMDL
