MODEL 1
REMARK VINA RESULT:      -8.7      0.000      0.000
REMARK  Name = 
REMARK  4 active torsions:
REMARK  status: ('A' for Active; 'I' for Inactive)
REMARK    1  A    between atoms: C_1  and  C_2
REMARK    2  A    between atoms: C_2  and  N_3
REMARK    3  A    between atoms: C_4  and  C_6
REMARK    4  A    between atoms: C_19  and  C_21
REMARK                            x       y       z     vdW  Elec       q    Type
REMARK                         _______ _______ _______ _____ _____    ______ ____
ROOT
ATOM      1  C   UNL     1       0.970   3.448  20.231  0.00  0.00    +0.000 C 
ATOM      2  C   UNL     1       2.024   4.038  19.284  0.00  0.00    +0.000 C 
ATOM      3  C   UNL     1       2.010   3.256  17.949  0.00  0.00    +0.000 C 
ATOM      4  C   UNL     1       3.460   3.211  17.467  0.00  0.00    +0.000 C 
ATOM      5  N   UNL     1       4.264   3.725  18.559  0.00  0.00    +0.000 N 
ATOM      6  C   UNL     1       5.603   4.084  18.541  0.00  0.00    +0.000 C 
ATOM      7  O   UNL     1       6.175   4.466  19.560  0.00  0.00    +0.000 OA
ATOM      8  C   UNL     1       3.470   3.803  19.781  0.00  0.00    +0.000 C 
ENDROOT
BRANCH   6   9
ATOM      9  C   UNL     1       6.300   4.093  17.185  0.00  0.00    +0.000 C 
ATOM     10  C   UNL     1       7.270   5.279  16.983  0.00  0.00    +0.000 C 
ATOM     11  C   UNL     1       6.843   5.795  15.614  0.00  0.00    +0.000 C 
ATOM     12  O   UNL     1       5.409   5.720  15.780  0.00  0.00    +0.000 OA
ATOM     13  C   UNL     1       5.327   4.287  15.986  0.00  0.00    +0.000 C 
ATOM     14  C   UNL     1       6.017   3.759  14.733  0.00  0.00    +0.000 C 
ATOM     15  C   UNL     1       6.164   4.517  13.424  0.00  0.00    +0.000 C 
ATOM     16  C   UNL     1       7.121   4.748  14.553  0.00  0.00    +0.000 C 
ENDBRANCH   6   9
BRANCH   2  17
ATOM     17  N   UNL     1       1.759   5.470  19.044  0.00  0.00    +0.000 N 
ATOM     18  C   UNL     1       1.924   6.433  20.026  0.00  0.00    +0.000 C 
ATOM     19  O   UNL     1       2.221   6.183  21.190  0.00  0.00    +0.000 OA
ATOM     20  H   UNL     1       1.583   5.818  18.106  0.00  0.00    +0.000 HD
BRANCH  18  21
ATOM     21  C   UNL     1       1.721   7.850  19.591  0.00  0.00    +0.000 A 
ATOM     22  C   UNL     1       2.145   8.228  18.301  0.00  0.00    +0.000 A 
ATOM     23  C   UNL     1       1.934   9.536  17.862  0.00  0.00    +0.000 A 
ATOM     24  C   UNL     1       1.306  10.379  18.747  0.00  0.00    +0.000 A 
ATOM     25  O   UNL     1       0.970  11.699  18.525  0.00  0.00    +0.000 OA
ATOM     26  C   UNL     1       0.344  12.033  19.735  0.00  0.00    +0.000 A 
ATOM     27  O   UNL     1      -0.133  13.140  19.970  0.00  0.00    +0.000 OA
ATOM     28  N   UNL     1       0.334  10.978  20.607  0.00  0.00    +0.000 N 
ATOM     29  C   UNL     1       0.933   9.924  19.993  0.00  0.00    +0.000 A 
ATOM     30  N   UNL     1       1.109   8.692  20.480  0.00  0.00    +0.000 NA
ATOM     31  H   UNL     1      -0.069  10.988  21.525  0.00  0.00    +0.000 HD
ENDBRANCH  18  21
ENDBRANCH   2  17
TORSDOF 3
ENDMDL
MODEL 2
REMARK VINA RESULT:      -8.4      3.645      6.302
REMARK  Name = 
REMARK  4 active torsions:
REMARK  status: ('A' for Active; 'I' for Inactive)
REMARK    1  A    between atoms: C_1  and  C_2
REMARK    2  A    between atoms: C_2  and  N_3
REMARK    3  A    between atoms: C_4  and  C_6
REMARK    4  A    between atoms: C_19  and  C_21
REMARK                            x       y       z     vdW  Elec       q    Type
REMARK                         _______ _______ _______ _____ _____    ______ ____
ROOT
ATOM      1  C   UNL     1       0.829  11.500  20.932  0.00  0.00    +0.000 C 
ATOM      2  C   UNL     1       0.560  10.069  20.445  0.00  0.00    +0.000 C 
ATOM      3  C   UNL     1       0.057   9.211  21.630  0.00  0.00    +0.000 C 
ATOM      4  C   UNL     1       0.628   7.809  21.411  0.00  0.00    +0.000 C 
ATOM      5  N   UNL     1       1.569   7.924  20.314  0.00  0.00    +0.000 N 
ATOM      6  C   UNL     1       2.181   6.904  19.603  0.00  0.00    +0.000 C 
ATOM      7  O   UNL     1       3.001   7.146  18.717  0.00  0.00    +0.000 OA
ATOM      8  C   UNL     1       1.853   9.327  20.033  0.00  0.00    +0.000 C 
ENDROOT
BRANCH   6   9
ATOM      9  C   UNL     1       1.712   5.482  19.885  0.00  0.00    +0.000 C 
ATOM     10  C   UNL     1       2.478   4.781  21.029  0.00  0.00    +0.000 C 
ATOM     11  C   UNL     1       2.825   3.440  20.391  0.00  0.00    +0.000 C 
ATOM     12  O   UNL     1       3.229   3.909  19.085  0.00  0.00    +0.000 OA
ATOM     13  C   UNL     1       1.959   4.498  18.705  0.00  0.00    +0.000 C 
ATOM     14  C   UNL     1       1.012   3.316  18.874  0.00  0.00    +0.000 C 
ATOM     15  C   UNL     1       1.418   1.852  18.846  0.00  0.00    +0.000 C 
ATOM     16  C   UNL     1       1.558   2.660  20.100  0.00  0.00    +0.000 C 
ENDBRANCH   6   9
BRANCH   2  17
ATOM     17  N   UNL     1      -0.436  10.073  19.355  0.00  0.00    +0.000 N 
ATOM     18  C   UNL     1      -1.538  10.912  19.356  0.00  0.00    +0.000 C 
ATOM     19  O   UNL     1      -1.832  11.659  20.284  0.00  0.00    +0.000 OA
ATOM     20  H   UNL     1      -0.269   9.559  18.495  0.00  0.00    +0.000 HD
BRANCH  18  21
ATOM     21  C   UNL     1      -2.390  10.871  18.126  0.00  0.00    +0.000 A 
ATOM     22  C   UNL     1      -3.642  11.518  18.151  0.00  0.00    +0.000 A 
ATOM     23  C   UNL     1      -4.438  11.524  17.005  0.00  0.00    +0.000 A 
ATOM     24  C   UNL     1      -3.921  10.881  15.905  0.00  0.00    +0.000 A 
ATOM     25  O   UNL     1      -4.511  10.780  14.662  0.00  0.00    +0.000 OA
ATOM     26  C   UNL     1      -3.540  10.059  13.951  0.00  0.00    +0.000 A 
ATOM     27  O   UNL     1      -3.653   9.751  12.768  0.00  0.00    +0.000 OA
ATOM     28  N   UNL     1      -2.464   9.748  14.739  0.00  0.00    +0.000 N 
ATOM     29  C   UNL     1      -2.689  10.268  15.975  0.00  0.00    +0.000 A 
ATOM     30  N   UNL     1      -1.880  10.219  17.037  0.00  0.00    +0.000 NA
ATOM     31  H   UNL     1      -1.650   9.246  14.438  0.00  0.00    +0.000 HD
ENDBRANCH  18  21
ENDBRANCH   2  17
TORSDOF 3
ENDMDL
MODEL 3
REMARK VINA RESULT:      -8.4      3.985      6.230
REMARK  Name = 
REMARK  4 active torsions:
REMARK  status: ('A' for Active; 'I' for Inactive)
REMARK    1  A    between atoms: C_1  and  C_2
REMARK    2  A    between atoms: C_2  and  N_3
REMARK    3  A    between atoms: C_4  and  C_6
REMARK    4  A    between atoms: C_19  and  C_21
REMARK                            x       y       z     vdW  Elec       q    Type
REMARK                         _______ _______ _______ _____ _____    ______ ____
ROOT
ATOM      1  C   UNL     1       1.176  11.934  19.582  0.00  0.00    +0.000 C 
ATOM      2  C   UNL     1       0.952  10.461  19.215  0.00  0.00    +0.000 C 
ATOM      3  C   UNL     1       0.587   9.664  20.490  0.00  0.00    +0.000 C 
ATOM      4  C   UNL     1       1.218   8.281  20.322  0.00  0.00    +0.000 C 
ATOM      5  N   UNL     1       2.068   8.365  19.151  0.00  0.00    +0.000 N 
ATOM      6  C   UNL     1       2.683   7.330  18.465  0.00  0.00    +0.000 C 
ATOM      7  O   UNL     1       3.421   7.550  17.505  0.00  0.00    +0.000 OA
ATOM      8  C   UNL     1       2.251   9.758  18.755  0.00  0.00    +0.000 C 
ENDROOT
BRANCH   6   9
ATOM      9  C   UNL     1       2.316   5.909  18.877  0.00  0.00    +0.000 C 
ATOM     10  C   UNL     1       3.251   5.302  19.948  0.00  0.00    +0.000 C 
ATOM     11  C   UNL     1       3.573   3.942  19.340  0.00  0.00    +0.000 C 
ATOM     12  O   UNL     1       3.788   4.351  17.970  0.00  0.00    +0.000 OA
ATOM     13  C   UNL     1       2.456   4.871  17.726  0.00  0.00    +0.000 C 
ATOM     14  C   UNL     1       1.590   3.666  18.075  0.00  0.00    +0.000 C 
ATOM     15  C   UNL     1       2.054   2.218  18.071  0.00  0.00    +0.000 C 
ATOM     16  C   UNL     1       2.315   3.101  19.253  0.00  0.00    +0.000 C 
ENDBRANCH   6   9
BRANCH   2  17
ATOM     17  N   UNL     1      -0.118  10.336  18.207  0.00  0.00    +0.000 N 
ATOM     18  C   UNL     1      -1.411  10.778  18.434  0.00  0.00    +0.000 C 
ATOM     19  O   UNL     1      -1.803  11.231  19.505  0.00  0.00    +0.000 OA
ATOM     20  H   UNL     1       0.092  10.050  17.255  0.00  0.00    +0.000 HD
BRANCH  18  21
ATOM     21  C   UNL     1      -2.349  10.680  17.273  0.00  0.00    +0.000 A 
ATOM     22  C   UNL     1      -3.646  11.215  17.406  0.00  0.00    +0.000 A 
ATOM     23  C   UNL     1      -4.526  11.167  16.323  0.00  0.00    +0.000 A 
ATOM     24  C   UNL     1      -4.043  10.586  15.174  0.00  0.00    +0.000 A 
ATOM     25  O   UNL     1      -4.717  10.450  13.978  0.00  0.00    +0.000 OA
ATOM     26  C   UNL     1      -3.745   9.825  13.182  0.00  0.00    +0.000 A 
ATOM     27  O   UNL     1      -3.923   9.524  12.005  0.00  0.00    +0.000 OA
ATOM     28  N   UNL     1      -2.589   9.599  13.880  0.00  0.00    +0.000 N 
ATOM     29  C   UNL     1      -2.761  10.081  15.138  0.00  0.00    +0.000 A 
ATOM     30  N   UNL     1      -1.871  10.088  16.136  0.00  0.00    +0.000 NA
ATOM     31  H   UNL     1      -1.761   9.173  13.508  0.00  0.00    +0.000 HD
ENDBRANCH  18  21
ENDBRANCH   2  17
TORSDOF 3
ENDMDL
MODEL 4
REMARK VINA RESULT:      -7.8      6.296      9.984
REMARK  Name = 
REMARK  4 active torsions:
REMARK  status: ('A' for Active; 'I' for Inactive)
REMARK    1  A    between atoms: C_1  and  C_2
REMARK    2  A    between atoms: C_2  and  N_3
REMARK    3  A    between atoms: C_4  and  C_6
REMARK    4  A    between atoms: C_19  and  C_21
REMARK                            x       y       z     vdW  Elec       q    Type
REMARK                         _______ _______ _______ _____ _____    ______ ____
ROOT
ATOM      1  C   UNL     1       0.444  16.876  19.157  0.00  0.00    +0.000 C 
ATOM      2  C   UNL     1       0.701  15.424  19.583  0.00  0.00    +0.000 C 
ATOM      3  C   UNL     1       0.004  14.466  18.588  0.00  0.00    +0.000 C 
ATOM      4  C   UNL     1      -0.480  13.274  19.414  0.00  0.00    +0.000 C 
ATOM      5  N   UNL     1      -0.277  13.637  20.803  0.00  0.00    +0.000 N 
ATOM      6  C   UNL     1      -0.357  12.821  21.921  0.00  0.00    +0.000 C 
ATOM      7  O   UNL     1      -0.205  13.275  23.054  0.00  0.00    +0.000 OA
ATOM      8  C   UNL     1       0.009  15.063  20.918  0.00  0.00    +0.000 C 
ENDROOT
BRANCH   6   9
ATOM      9  C   UNL     1      -0.527  11.326  21.678  0.00  0.00    +0.000 C 
ATOM     10  C   UNL     1      -1.001  10.535  22.918  0.00  0.00    +0.000 C 
ATOM     11  C   UNL     1      -0.013   9.374  22.939  0.00  0.00    +0.000 C 
ATOM     12  O   UNL     1       1.200  10.104  22.648  0.00  0.00    +0.000 OA
ATOM     13  C   UNL     1       0.806  10.595  21.341  0.00  0.00    +0.000 C 
ATOM     14  C   UNL     1       0.459   9.298  20.620  0.00  0.00    +0.000 C 
ATOM     15  C   UNL     1       0.977   7.918  20.993  0.00  0.00    +0.000 C 
ATOM     16  C   UNL     1      -0.199   8.511  21.706  0.00  0.00    +0.000 C 
ENDBRANCH   6   9
BRANCH   2  17
ATOM     17  N   UNL     1       2.151  15.149  19.631  0.00  0.00    +0.000 N 
ATOM     18  C   UNL     1       3.021  15.564  18.636  0.00  0.00    +0.000 C 
ATOM     19  O   UNL     1       2.666  16.117  17.600  0.00  0.00    +0.000 OA
ATOM     20  H   UNL     1       2.582  14.768  20.468  0.00  0.00    +0.000 HD
BRANCH  18  21
ATOM     21  C   UNL     1       4.473  15.304  18.888  0.00  0.00    +0.000 A 
ATOM     22  C   UNL     1       4.984  15.528  20.183  0.00  0.00    +0.000 A 
ATOM     23  C   UNL     1       6.327  15.258  20.450  0.00  0.00    +0.000 A 
ATOM     24  C   UNL     1       7.070  14.777  19.398  0.00  0.00    +0.000 A 
ATOM     25  O   UNL     1       8.401  14.418  19.431  0.00  0.00    +0.000 OA
ATOM     26  C   UNL     1       8.605  13.986  18.112  0.00  0.00    +0.000 A 
ATOM     27  O   UNL     1       9.677  13.556  17.695  0.00  0.00    +0.000 OA
ATOM     28  N   UNL     1       7.466  14.104  17.360  0.00  0.00    +0.000 N 
ATOM     29  C   UNL     1       6.487  14.596  18.162  0.00  0.00    +0.000 A 
ATOM     30  N   UNL     1       5.213  14.839  17.836  0.00  0.00    +0.000 NA
ATOM     31  H   UNL     1       7.379  13.846  16.395  0.00  0.00    +0.000 HD
ENDBRANCH  18  21
ENDBRANCH   2  17
TORSDOF 3
ENDMDL
MODEL 5
REMARK VINA RESULT:      -7.6      3.917      9.045
REMARK  Name = 
REMARK  4 active torsions:
REMARK  status: ('A' for Active; 'I' for Inactive)
REMARK    1  A    between atoms: C_1  and  C_2
REMARK    2  A    between atoms: C_2  and  N_3
REMARK    3  A    between atoms: C_4  and  C_6
REMARK    4  A    between atoms: C_19  and  C_21
REMARK                            x       y       z     vdW  Elec       q    Type
REMARK                         _______ _______ _______ _____ _____    ______ ____
ROOT
ATOM      1  C   UNL     1      -1.299  11.893  19.230  0.00  0.00    +0.000 C 
ATOM      2  C   UNL     1       0.199  12.177  19.404  0.00  0.00    +0.000 C 
ATOM      3  C   UNL     1       0.468  12.641  20.855  0.00  0.00    +0.000 C 
ATOM      4  C   UNL     1       1.589  13.678  20.769  0.00  0.00    +0.000 C 
ATOM      5  N   UNL     1       1.779  13.950  19.358  0.00  0.00    +0.000 N 
ATOM      6  C   UNL     1       2.811  14.650  18.753  0.00  0.00    +0.000 C 
ATOM      7  O   UNL     1       2.824  14.846  17.539  0.00  0.00    +0.000 OA
ATOM      8  C   UNL     1       0.674  13.398  18.581  0.00  0.00    +0.000 C 
ENDROOT
BRANCH   6   9
ATOM      9  C   UNL     1       3.980  15.065  19.639  0.00  0.00    +0.000 C 
ATOM     10  C   UNL     1       3.840  16.478  20.248  0.00  0.00    +0.000 C 
ATOM     11  C   UNL     1       5.201  17.086  19.932  0.00  0.00    +0.000 C 
ATOM     12  O   UNL     1       5.349  16.616  18.573  0.00  0.00    +0.000 OA
ATOM     13  C   UNL     1       5.328  15.196  18.871  0.00  0.00    +0.000 C 
ATOM     14  C   UNL     1       6.459  15.080  19.886  0.00  0.00    +0.000 C 
ATOM     15  C   UNL     1       7.614  16.058  20.031  0.00  0.00    +0.000 C 
ATOM     16  C   UNL     1       6.291  16.337  20.675  0.00  0.00    +0.000 C 
ENDBRANCH   6   9
BRANCH   2  17
ATOM     17  N   UNL     1       0.993  10.972  19.094  0.00  0.00    +0.000 N 
ATOM     18  C   UNL     1       0.837   9.780  19.783  0.00  0.00    +0.000 C 
ATOM     19  O   UNL     1       0.097   9.639  20.752  0.00  0.00    +0.000 OA
ATOM     20  H   UNL     1       1.582  10.934  18.268  0.00  0.00    +0.000 HD
BRANCH  18  21
ATOM     21  C   UNL     1       1.637   8.623  19.274  0.00  0.00    +0.000 A 
ATOM     22  C   UNL     1       2.158   8.685  17.966  0.00  0.00    +0.000 A 
ATOM     23  C   UNL     1       2.937   7.632  17.484  0.00  0.00    +0.000 A 
ATOM     24  C   UNL     1       3.144   6.584  18.349  0.00  0.00    +0.000 A 
ATOM     25  O   UNL     1       3.896   5.454  18.104  0.00  0.00    +0.000 OA
ATOM     26  C   UNL     1       3.773   4.769  19.322  0.00  0.00    +0.000 A 
ATOM     27  O   UNL     1       4.311   3.690  19.552  0.00  0.00    +0.000 OA
ATOM     28  N   UNL     1       2.985   5.453  20.209  0.00  0.00    +0.000 N 
ATOM     29  C   UNL     1       2.586   6.605  19.610  0.00  0.00    +0.000 A 
ATOM     30  N   UNL     1       1.829   7.574  20.132  0.00  0.00    +0.000 NA
ATOM     31  H   UNL     1       2.769   5.156  21.142  0.00  0.00    +0.000 HD
ENDBRANCH  18  21
ENDBRANCH   2  17
TORSDOF 3
ENDMDL
MODEL 6
REMARK VINA RESULT:      -7.6      1.179      1.533
REMARK  Name = 
REMARK  4 active torsions:
REMARK  status: ('A' for Active; 'I' for Inactive)
REMARK    1  A    between atoms: C_1  and  C_2
REMARK    2  A    between atoms: C_2  and  N_3
REMARK    3  A    between atoms: C_4  and  C_6
REMARK    4  A    between atoms: C_19  and  C_21
REMARK                            x       y       z     vdW  Elec       q    Type
REMARK                         _______ _______ _______ _____ _____    ______ ____
ROOT
ATOM      1  C   UNL     1       0.721   2.828  20.454  0.00  0.00    +0.000 C 
ATOM      2  C   UNL     1       1.731   3.529  19.535  0.00  0.00    +0.000 C 
ATOM      3  C   UNL     1       1.647   2.916  18.118  0.00  0.00    +0.000 C 
ATOM      4  C   UNL     1       3.072   2.930  17.563  0.00  0.00    +0.000 C 
ATOM      5  N   UNL     1       3.931   3.308  18.669  0.00  0.00    +0.000 N 
ATOM      6  C   UNL     1       5.270   3.666  18.628  0.00  0.00    +0.000 C 
ATOM      7  O   UNL     1       5.893   3.921  19.657  0.00  0.00    +0.000 OA
ATOM      8  C   UNL     1       3.198   3.236  19.928  0.00  0.00    +0.000 C 
ENDROOT
BRANCH   6   9
ATOM      9  C   UNL     1       5.900   3.840  17.251  0.00  0.00    +0.000 C 
ATOM     10  C   UNL     1       7.236   4.615  17.263  0.00  0.00    +0.000 C 
ATOM     11  C   UNL     1       7.010   5.635  16.153  0.00  0.00    +0.000 C 
ATOM     12  O   UNL     1       5.652   6.018  16.470  0.00  0.00    +0.000 OA
ATOM     13  C   UNL     1       5.049   4.712  16.283  0.00  0.00    +0.000 C 
ATOM     14  C   UNL     1       5.475   4.380  14.857  0.00  0.00    +0.000 C 
ATOM     15  C   UNL     1       5.873   5.397  13.799  0.00  0.00    +0.000 C 
ATOM     16  C   UNL     1       6.865   4.928  14.819  0.00  0.00    +0.000 C 
ENDBRANCH   6   9
BRANCH   2  17
ATOM     17  N   UNL     1       1.463   4.980  19.484  0.00  0.00    +0.000 N 
ATOM     18  C   UNL     1       1.815   5.840  20.511  0.00  0.00    +0.000 C 
ATOM     19  O   UNL     1       2.300   5.473  21.577  0.00  0.00    +0.000 OA
ATOM     20  H   UNL     1       1.138   5.420  18.628  0.00  0.00    +0.000 HD
BRANCH  18  21
ATOM     21  C   UNL     1       1.575   7.294  20.257  0.00  0.00    +0.000 A 
ATOM     22  C   UNL     1       0.859   8.038  21.217  0.00  0.00    +0.000 A 
ATOM     23  C   UNL     1       0.653   9.404  21.017  0.00  0.00    +0.000 A 
ATOM     24  C   UNL     1       1.185   9.936  19.866  0.00  0.00    +0.000 A 
ATOM     25  O   UNL     1       1.131  11.256  19.472  0.00  0.00    +0.000 OA
ATOM     26  C   UNL     1       1.844  11.215  18.265  0.00  0.00    +0.000 A 
ATOM     27  O   UNL     1       2.056  12.203  17.566  0.00  0.00    +0.000 OA
ATOM     28  N   UNL     1       2.268   9.947  17.972  0.00  0.00    +0.000 N 
ATOM     29  C   UNL     1       1.864   9.129  18.979  0.00  0.00    +0.000 A 
ATOM     30  N   UNL     1       2.092   7.818  19.103  0.00  0.00    +0.000 NA
ATOM     31  H   UNL     1       2.803   9.686  17.165  0.00  0.00    +0.000 HD
ENDBRANCH  18  21
ENDBRANCH   2  17
TORSDOF 3
ENDMDL
MODEL 7
REMARK VINA RESULT:      -7.5      7.136     10.363
REMARK  Name = 
REMARK  4 active torsions:
REMARK  status: ('A' for Active; 'I' for Inactive)
REMARK    1  A    between atoms: C_1  and  C_2
REMARK    2  A    between atoms: C_2  and  N_3
REMARK    3  A    between atoms: C_4  and  C_6
REMARK    4  A    between atoms: C_19  and  C_21
REMARK                            x       y       z     vdW  Elec       q    Type
REMARK                         _______ _______ _______ _____ _____    ______ ____
ROOT
ATOM      1  C   UNL     1       0.473   9.847  20.814  0.00  0.00    +0.000 C 
ATOM      2  C   UNL     1       0.095  11.273  20.391  0.00  0.00    +0.000 C 
ATOM      3  C   UNL     1       0.110  11.372  18.848  0.00  0.00    +0.000 C 
ATOM      4  C   UNL     1       0.608  12.779  18.517  0.00  0.00    +0.000 C 
ATOM      5  N   UNL     1       1.060  13.352  19.770  0.00  0.00    +0.000 N 
ATOM      6  C   UNL     1       1.397  14.670  20.035  0.00  0.00    +0.000 C 
ATOM      7  O   UNL     1       1.812  15.012  21.141  0.00  0.00    +0.000 OA
ATOM      8  C   UNL     1       1.164  12.317  20.793  0.00  0.00    +0.000 C 
ENDROOT
BRANCH   6   9
ATOM      9  C   UNL     1       1.123  15.691  18.937  0.00  0.00    +0.000 C 
ATOM     10  C   UNL     1       2.207  16.784  18.808  0.00  0.00    +0.000 C 
ATOM     11  C   UNL     1       1.363  18.053  18.774  0.00  0.00    +0.000 C 
ATOM     12  O   UNL     1       0.421  17.726  19.821  0.00  0.00    +0.000 OA
ATOM     13  C   UNL     1      -0.149  16.551  19.189  0.00  0.00    +0.000 C 
ATOM     14  C   UNL     1      -0.606  17.116  17.850  0.00  0.00    +0.000 C 
ATOM     15  C   UNL     1      -0.909  18.579  17.569  0.00  0.00    +0.000 C 
ATOM     16  C   UNL     1       0.499  18.069  17.528  0.00  0.00    +0.000 C 
ENDBRANCH   6   9
BRANCH   2  17
ATOM     17  N   UNL     1      -1.238  11.631  20.916  0.00  0.00    +0.000 N 
ATOM     18  C   UNL     1      -1.483  11.809  22.268  0.00  0.00    +0.000 C 
ATOM     19  O   UNL     1      -0.652  11.608  23.149  0.00  0.00    +0.000 OA
ATOM     20  H   UNL     1      -1.990  11.901  20.289  0.00  0.00    +0.000 HD
BRANCH  18  21
ATOM     21  C   UNL     1      -2.857  12.278  22.626  0.00  0.00    +0.000 A 
ATOM     22  C   UNL     1      -3.248  12.250  23.981  0.00  0.00    +0.000 A 
ATOM     23  C   UNL     1      -4.513  12.717  24.342  0.00  0.00    +0.000 A 
ATOM     24  C   UNL     1      -5.303  13.185  23.318  0.00  0.00    +0.000 A 
ATOM     25  O   UNL     1      -6.571  13.715  23.437  0.00  0.00    +0.000 OA
ATOM     26  C   UNL     1      -6.863  14.038  22.104  0.00  0.00    +0.000 A 
ATOM     27  O   UNL     1      -7.915  14.561  21.746  0.00  0.00    +0.000 OA
ATOM     28  N   UNL     1      -5.834  13.700  21.266  0.00  0.00    +0.000 N 
ATOM     29  C   UNL     1      -4.839  13.166  22.021  0.00  0.00    +0.000 A 
ATOM     30  N   UNL     1      -3.647  12.730  21.604  0.00  0.00    +0.000 NA
ATOM     31  H   UNL     1      -5.822  13.849  20.274  0.00  0.00    +0.000 HD
ENDBRANCH  18  21
ENDBRANCH   2  17
TORSDOF 3
ENDMDL
MODEL 8
REMARK VINA RESULT:      -7.5      2.420      8.401
REMARK  Name = 
REMARK  4 active torsions:
REMARK  status: ('A' for Active; 'I' for Inactive)
REMARK    1  A    between atoms: C_1  and  C_2
REMARK    2  A    between atoms: C_2  and  N_3
REMARK    3  A    between atoms: C_4  and  C_6
REMARK    4  A    between atoms: C_19  and  C_21
REMARK                            x       y       z     vdW  Elec       q    Type
REMARK                         _______ _______ _______ _____ _____    ______ ____
ROOT
ATOM      1  C   UNL     1      -0.374   7.641  21.140  0.00  0.00    +0.000 C 
ATOM      2  C   UNL     1       0.514   8.818  20.711  0.00  0.00    +0.000 C 
ATOM      3  C   UNL     1       0.964   9.604  21.965  0.00  0.00    +0.000 C 
ATOM      4  C   UNL     1       1.021  11.074  21.547  0.00  0.00    +0.000 C 
ATOM      5  N   UNL     1       0.426  11.141  20.226  0.00  0.00    +0.000 N 
ATOM      6  C   UNL     1       0.435  12.204  19.337  0.00  0.00    +0.000 C 
ATOM      7  O   UNL     1      -0.154  12.139  18.258  0.00  0.00    +0.000 OA
ATOM      8  C   UNL     1      -0.264   9.893  19.917  0.00  0.00    +0.000 C 
ENDROOT
BRANCH   6   9
ATOM      9  C   UNL     1       1.297  13.407  19.702  0.00  0.00    +0.000 C 
ATOM     10  C   UNL     1       0.791  14.745  19.119  0.00  0.00    +0.000 C 
ATOM     11  C   UNL     1       2.066  15.316  18.508  0.00  0.00    +0.000 C 
ATOM     12  O   UNL     1       2.582  14.114  17.894  0.00  0.00    +0.000 OA
ATOM     13  C   UNL     1       2.737  13.342  19.113  0.00  0.00    +0.000 C 
ATOM     14  C   UNL     1       3.624  14.261  19.944  0.00  0.00    +0.000 C 
ATOM     15  C   UNL     1       4.538  15.340  19.389  0.00  0.00    +0.000 C 
ATOM     16  C   UNL     1       3.079  15.607  19.598  0.00  0.00    +0.000 C 
ENDBRANCH   6   9
BRANCH   2  17
ATOM     17  N   UNL     1       1.688   8.332  19.960  0.00  0.00    +0.000 N 
ATOM     18  C   UNL     1       2.123   7.018  20.026  0.00  0.00    +0.000 C 
ATOM     19  O   UNL     1       1.633   6.169  20.764  0.00  0.00    +0.000 OA
ATOM     20  H   UNL     1       2.133   8.912  19.256  0.00  0.00    +0.000 HD
BRANCH  18  21
ATOM     21  C   UNL     1       3.258   6.660  19.120  0.00  0.00    +0.000 A 
ATOM     22  C   UNL     1       3.347   7.297  17.865  0.00  0.00    +0.000 A 
ATOM     23  C   UNL     1       4.417   7.004  17.018  0.00  0.00    +0.000 A 
ATOM     24  C   UNL     1       5.331   6.091  17.489  0.00  0.00    +0.000 A 
ATOM     25  O   UNL     1       6.475   5.669  16.844  0.00  0.00    +0.000 OA
ATOM     26  C   UNL     1       7.014   4.781  17.787  0.00  0.00    +0.000 A 
ATOM     27  O   UNL     1       8.068   4.173  17.623  0.00  0.00    +0.000 OA
ATOM     28  N   UNL     1       6.222   4.684  18.900  0.00  0.00    +0.000 N 
ATOM     29  C   UNL     1       5.159   5.512  18.728  0.00  0.00    +0.000 A 
ATOM     30  N   UNL     1       4.158   5.741  19.584  0.00  0.00    +0.000 NA
ATOM     31  H   UNL     1       6.417   4.117  19.703  0.00  0.00    +0.000 HD
ENDBRANCH  18  21
ENDBRANCH   2  17
TORSDOF 3
ENDMDL
MODEL 9
REMARK VINA RESULT:      -7.5      3.398      8.937
REMARK  Name = 
REMARK  4 active torsions:
REMARK  status: ('A' for Active; 'I' for Inactive)
REMARK    1  A    between atoms: C_1  and  C_2
REMARK    2  A    between atoms: C_2  and  N_3
REMARK    3  A    between atoms: C_4  and  C_6
REMARK    4  A    between atoms: C_19  and  C_21
REMARK                            x       y       z     vdW  Elec       q    Type
REMARK                         _______ _______ _______ _____ _____    ______ ____
ROOT
ATOM      1  C   UNL     1       2.301  13.194  20.873  0.00  0.00    +0.000 C 
ATOM      2  C   UNL     1       1.304  12.485  19.946  0.00  0.00    +0.000 C 
ATOM      3  C   UNL     1       1.205  13.259  18.610  0.00  0.00    +0.000 C 
ATOM      4  C   UNL     1      -0.249  13.137  18.155  0.00  0.00    +0.000 C 
ATOM      5  N   UNL     1      -0.969  12.538  19.262  0.00  0.00    +0.000 N 
ATOM      6  C   UNL     1      -2.259  12.030  19.268  0.00  0.00    +0.000 C 
ATOM      7  O   UNL     1      -2.766  11.588  20.299  0.00  0.00    +0.000 OA
ATOM      8  C   UNL     1      -0.150  12.555  20.469  0.00  0.00    +0.000 C 
ENDROOT
BRANCH   6   9
ATOM      9  C   UNL     1      -2.975  11.938  17.926  0.00  0.00    +0.000 C 
ATOM     10  C   UNL     1      -4.486  11.636  18.037  0.00  0.00    +0.000 C 
ATOM     11  C   UNL     1      -4.648  10.497  17.037  0.00  0.00    +0.000 C 
ATOM     12  O   UNL     1      -3.469   9.731  17.374  0.00  0.00    +0.000 OA
ATOM     13  C   UNL     1      -2.491  10.751  17.043  0.00  0.00    +0.000 C 
ATOM     14  C   UNL     1      -2.856  11.064  15.597  0.00  0.00    +0.000 C 
ATOM     15  C   UNL     1      -3.604  10.133  14.656  0.00  0.00    +0.000 C 
ATOM     16  C   UNL     1      -4.347  10.990  15.635  0.00  0.00    +0.000 C 
ENDBRANCH   6   9
BRANCH   2  17
ATOM     17  N   UNL     1       1.726  11.091  19.702  0.00  0.00    +0.000 N 
ATOM     18  C   UNL     1       1.152  10.014  20.356  0.00  0.00    +0.000 C 
ATOM     19  O   UNL     1       0.311  10.118  21.243  0.00  0.00    +0.000 OA
ATOM     20  H   UNL     1       2.357  10.863  18.939  0.00  0.00    +0.000 HD
BRANCH  18  21
ATOM     21  C   UNL     1       1.614   8.661  19.915  0.00  0.00    +0.000 A 
ATOM     22  C   UNL     1       2.055   8.497  18.586  0.00  0.00    +0.000 A 
ATOM     23  C   UNL     1       2.524   7.253  18.163  0.00  0.00    +0.000 A 
ATOM     24  C   UNL     1       2.522   6.252  19.106  0.00  0.00    +0.000 A 
ATOM     25  O   UNL     1       2.960   4.956  18.927  0.00  0.00    +0.000 OA
ATOM     26  C   UNL     1       2.749   4.413  20.203  0.00  0.00    +0.000 A 
ATOM     27  O   UNL     1       3.022   3.253  20.502  0.00  0.00    +0.000 OA
ATOM     28  N   UNL     1       2.206   5.332  21.060  0.00  0.00    +0.000 N 
ATOM     29  C   UNL     1       2.064   6.501  20.382  0.00  0.00    +0.000 A 
ATOM     30  N   UNL     1       1.597   7.662  20.850  0.00  0.00    +0.000 NA
ATOM     31  H   UNL     1       1.981   5.166  22.023  0.00  0.00    +0.000 HD
ENDBRANCH  18  21
ENDBRANCH   2  17
TORSDOF 3
ENDMDL
