MODEL 1
REMARK VINA RESULT:      -8.9      0.000      0.000
REMARK  Name = 
REMARK  3 active torsions:
REMARK  status: ('A' for Active; 'I' for Inactive)
REMARK    1  A    between atoms: C_1  and  C_2
REMARK    2  A    between atoms: C_11  and  S_12
REMARK    3  A    between atoms: S_12  and  N_15
REMARK                            x       y       z     vdW  Elec       q    Type
REMARK                         _______ _______ _______ _____ _____    ______ ____
ROOT
ATOM      1  S   UNL     1       0.580   8.864  21.417  0.00  0.00    +0.000 S 
ATOM      2  O   UNL     1      -0.627   8.116  21.684  0.00  0.00    +0.000 OA
ATOM      3  O   UNL     1       1.505   9.208  22.477  0.00  0.00    +0.000 OA
ENDROOT
BRANCH   1   4
ATOM      4  N   UNL     1       0.125  10.305  20.627  0.00  0.00    +0.000 N 
ATOM      5  C   UNL     1      -0.810  10.209  19.460  0.00  0.00    +0.000 C 
ATOM      6  C   UNL     1      -0.273  11.066  18.307  0.00  0.00    +0.000 C 
ATOM      7  C   UNL     1      -0.128  12.531  18.685  0.00  0.00    +0.000 C 
ATOM      8  O   UNL     1      -0.773  13.423  18.143  0.00  0.00    +0.000 OA
ATOM      9  N   UNL     1       0.773  12.765  19.728  0.00  0.00    +0.000 N 
ATOM     10  C   UNL     1       0.135  12.704  21.002  0.00  0.00    +0.000 A 
ATOM     11  C   UNL     1      -0.234  13.865  21.668  0.00  0.00    +0.000 A 
ATOM     12  C   UNL     1      -0.973  13.745  22.838  0.00  0.00    +0.000 A 
ATOM     13  F   UNL     1      -1.344  14.849  23.500  0.00  0.00    +0.000 F 
ATOM     14  C   UNL     1      -1.368  12.498  23.319  0.00  0.00    +0.000 A 
ATOM     15  C   UNL     1      -0.990  11.333  22.641  0.00  0.00    +0.000 A 
ATOM     16  C   UNL     1      -0.187  11.428  21.504  0.00  0.00    +0.000 A 
ATOM     17  H   UNL     1       1.443  11.998  19.715  0.00  0.00    +0.000 HD
ENDBRANCH   1   4
BRANCH   1  28
ATOM     18  C   UNL     1       3.075   2.488  21.120  0.00  0.00    +0.000 C 
ATOM     19  C   UNL     1       2.392   3.766  20.699  0.00  0.00    +0.000 C 
ATOM     20  O   UNL     1       1.266   3.999  21.142  0.00  0.00    +0.000 OA
ATOM     21  N   UNL     1       3.086   4.594  19.805  0.00  0.00    +0.000 N 
ATOM     22  C   UNL     1       4.290   4.156  19.089  0.00  0.00    +0.000 C 
ATOM     23  C   UNL     1       4.155   4.425  17.600  0.00  0.00    +0.000 C 
ATOM     24  C   UNL     1       4.015   5.921  17.357  0.00  0.00    +0.000 C 
ATOM     25  C   UNL     1       3.119   6.601  18.364  0.00  0.00    +0.000 A 
ATOM     26  C   UNL     1       2.767   7.947  18.133  0.00  0.00    +0.000 A 
ATOM     27  C   UNL     1       1.980   8.648  19.047  0.00  0.00    +0.000 A 
ATOM     28  C   UNL     1       1.527   7.991  20.191  0.00  0.00    +0.000 A 
ATOM     29  C   UNL     1       1.859   6.654  20.425  0.00  0.00    +0.000 A 
ATOM     30  C   UNL     1       2.664   5.942  19.527  0.00  0.00    +0.000 A 
ENDBRANCH   1  28
TORSDOF 2
ENDMDL
MODEL 2
REMARK VINA RESULT:      -8.1      3.972      7.368
REMARK  Name = 
REMARK  3 active torsions:
REMARK  status: ('A' for Active; 'I' for Inactive)
REMARK    1  A    between atoms: C_1  and  C_2
REMARK    2  A    between atoms: C_11  and  S_12
REMARK    3  A    between atoms: S_12  and  N_15
REMARK                            x       y       z     vdW  Elec       q    Type
REMARK                         _______ _______ _______ _____ _____    ______ ____
ROOT
ATOM      1  S   UNL     1      -1.075  12.705  22.188  0.00  0.00    +0.000 S 
ATOM      2  O   UNL     1      -0.885  14.095  22.535  0.00  0.00    +0.000 OA
ATOM      3  O   UNL     1      -1.045  11.664  23.195  0.00  0.00    +0.000 OA
ENDROOT
BRANCH   1   4
ATOM      4  N   UNL     1       0.076  12.315  20.992  0.00  0.00    +0.000 N 
ATOM      5  C   UNL     1       1.260  13.217  20.825  0.00  0.00    +0.000 C 
ATOM      6  C   UNL     1       1.466  13.517  19.335  0.00  0.00    +0.000 C 
ATOM      7  C   UNL     1       1.702  12.261  18.512  0.00  0.00    +0.000 C 
ATOM      8  O   UNL     1       2.751  12.047  17.914  0.00  0.00    +0.000 OA
ATOM      9  N   UNL     1       0.635  11.357  18.531  0.00  0.00    +0.000 N 
ATOM     10  C   UNL     1       0.745  10.432  19.611  0.00  0.00    +0.000 A 
ATOM     11  C   UNL     1       1.233   9.149  19.401  0.00  0.00    +0.000 A 
ATOM     12  C   UNL     1       1.448   8.337  20.508  0.00  0.00    +0.000 A 
ATOM     13  F   UNL     1       1.920   7.096  20.334  0.00  0.00    +0.000 F 
ATOM     14  C   UNL     1       1.214   8.803  21.801  0.00  0.00    +0.000 A 
ATOM     15  C   UNL     1       0.719  10.097  22.003  0.00  0.00    +0.000 A 
ATOM     16  C   UNL     1       0.430  10.903  20.901  0.00  0.00    +0.000 A 
ATOM     17  H   UNL     1      -0.208  11.900  18.715  0.00  0.00    +0.000 HD
ENDBRANCH   1   4
BRANCH   1  28
ATOM     18  C   UNL     1      -2.752  10.754  15.836  0.00  0.00    +0.000 C 
ATOM     19  C   UNL     1      -2.779  10.864  17.342  0.00  0.00    +0.000 C 
ATOM     20  O   UNL     1      -1.902  10.284  17.984  0.00  0.00    +0.000 OA
ATOM     21  N   UNL     1      -3.826  11.606  17.906  0.00  0.00    +0.000 N 
ATOM     22  C   UNL     1      -4.997  12.042  17.136  0.00  0.00    +0.000 C 
ATOM     23  C   UNL     1      -6.281  11.656  17.847  0.00  0.00    +0.000 C 
ATOM     24  C   UNL     1      -6.354  12.355  19.196  0.00  0.00    +0.000 C 
ATOM     25  C   UNL     1      -5.030  12.379  19.921  0.00  0.00    +0.000 A 
ATOM     26  C   UNL     1      -5.015  12.836  21.255  0.00  0.00    +0.000 A 
ATOM     27  C   UNL     1      -3.818  12.926  21.967  0.00  0.00    +0.000 A 
ATOM     28  C   UNL     1      -2.632  12.541  21.345  0.00  0.00    +0.000 A 
ATOM     29  C   UNL     1      -2.635  12.076  20.026  0.00  0.00    +0.000 A 
ATOM     30  C   UNL     1      -3.825  11.996  19.292  0.00  0.00    +0.000 A 
ENDBRANCH   1  28
TORSDOF 2
ENDMDL
MODEL 3
REMARK VINA RESULT:      -8.1      1.202      1.265
REMARK  Name = 
REMARK  3 active torsions:
REMARK  status: ('A' for Active; 'I' for Inactive)
REMARK    1  A    between atoms: C_1  and  C_2
REMARK    2  A    between atoms: C_11  and  S_12
REMARK    3  A    between atoms: S_12  and  N_15
REMARK                            x       y       z     vdW  Elec       q    Type
REMARK                         _______ _______ _______ _____ _____    ______ ____
ROOT
ATOM      1  S   UNL     1       0.578   9.252  20.951  0.00  0.00    +0.000 S 
ATOM      2  O   UNL     1      -0.276   8.345  21.683  0.00  0.00    +0.000 OA
ATOM      3  O   UNL     1       1.489  10.148  21.633  0.00  0.00    +0.000 OA
ENDROOT
BRANCH   1   4
ATOM      4  N   UNL     1      -0.423  10.189  19.937  0.00  0.00    +0.000 N 
ATOM      5  C   UNL     1      -1.517   9.497  19.184  0.00  0.00    +0.000 C 
ATOM      6  C   UNL     1      -1.502   9.960  17.722  0.00  0.00    +0.000 C 
ATOM      7  C   UNL     1      -1.700  11.461  17.582  0.00  0.00    +0.000 C 
ATOM      8  O   UNL     1      -2.670  11.952  17.015  0.00  0.00    +0.000 OA
ATOM      9  N   UNL     1      -0.702  12.228  18.191  0.00  0.00    +0.000 N 
ATOM     10  C   UNL     1      -1.011  12.514  19.553  0.00  0.00    +0.000 A 
ATOM     11  C   UNL     1      -1.542  13.744  19.918  0.00  0.00    +0.000 A 
ATOM     12  C   UNL     1      -1.952  13.919  21.234  0.00  0.00    +0.000 A 
ATOM     13  F   UNL     1      -2.470  15.095  21.612  0.00  0.00    +0.000 F 
ATOM     14  C   UNL     1      -1.867  12.881  22.161  0.00  0.00    +0.000 A 
ATOM     15  C   UNL     1      -1.328  11.646  21.785  0.00  0.00    +0.000 A 
ATOM     16  C   UNL     1      -0.845  11.472  20.487  0.00  0.00    +0.000 A 
ATOM     17  H   UNL     1       0.140  11.653  18.211  0.00  0.00    +0.000 HD
ENDBRANCH   1   4
BRANCH   1  28
ATOM     18  C   UNL     1       2.934   2.818  21.055  0.00  0.00    +0.000 C 
ATOM     19  C   UNL     1       2.303   4.091  20.545  0.00  0.00    +0.000 C 
ATOM     20  O   UNL     1       1.162   4.366  20.919  0.00  0.00    +0.000 OA
ATOM     21  N   UNL     1       3.060   4.863  19.654  0.00  0.00    +0.000 N 
ATOM     22  C   UNL     1       4.288   4.369  19.019  0.00  0.00    +0.000 C 
ATOM     23  C   UNL     1       4.235   4.575  17.516  0.00  0.00    +0.000 C 
ATOM     24  C   UNL     1       4.143   6.061  17.202  0.00  0.00    +0.000 C 
ATOM     25  C   UNL     1       3.213   6.804  18.132  0.00  0.00    +0.000 A 
ATOM     26  C   UNL     1       2.905   8.146  17.826  0.00  0.00    +0.000 A 
ATOM     27  C   UNL     1       2.089   8.903  18.667  0.00  0.00    +0.000 A 
ATOM     28  C   UNL     1       1.565   8.307  19.813  0.00  0.00    +0.000 A 
ATOM     29  C   UNL     1       1.853   6.974  20.121  0.00  0.00    +0.000 A 
ATOM     30  C   UNL     1       2.685   6.206  19.297  0.00  0.00    +0.000 A 
ENDBRANCH   1  28
TORSDOF 2
ENDMDL
MODEL 4
REMARK VINA RESULT:      -8.0      3.560      8.519
REMARK  Name = 
REMARK  3 active torsions:
REMARK  status: ('A' for Active; 'I' for Inactive)
REMARK    1  A    between atoms: C_1  and  C_2
REMARK    2  A    between atoms: C_11  and  S_12
REMARK    3  A    between atoms: S_12  and  N_15
REMARK                            x       y       z     vdW  Elec       q    Type
REMARK                         _______ _______ _______ _____ _____    ______ ____
ROOT
ATOM      1  S   UNL     1       2.307   8.015  18.092  0.00  0.00    +0.000 S 
ATOM      2  O   UNL     1       1.344   8.002  17.014  0.00  0.00    +0.000 OA
ATOM      3  O   UNL     1       3.516   8.810  18.015  0.00  0.00    +0.000 OA
ENDROOT
BRANCH   1   4
ATOM      4  N   UNL     1       2.758   6.399  18.394  0.00  0.00    +0.000 N 
ATOM      5  C   UNL     1       1.772   5.316  18.077  0.00  0.00    +0.000 C 
ATOM      6  C   UNL     1       1.694   4.338  19.256  0.00  0.00    +0.000 C 
ATOM      7  C   UNL     1       3.033   3.689  19.568  0.00  0.00    +0.000 C 
ATOM      8  O   UNL     1       3.226   2.483  19.464  0.00  0.00    +0.000 OA
ATOM      9  N   UNL     1       4.032   4.593  19.944  0.00  0.00    +0.000 N 
ATOM     10  C   UNL     1       4.754   5.082  18.816  0.00  0.00    +0.000 A 
ATOM     11  C   UNL     1       5.995   4.553  18.484  0.00  0.00    +0.000 A 
ATOM     12  C   UNL     1       6.591   4.968  17.300  0.00  0.00    +0.000 A 
ATOM     13  F   UNL     1       7.786   4.472  16.954  0.00  0.00    +0.000 F 
ATOM     14  C   UNL     1       5.953   5.867  16.446  0.00  0.00    +0.000 A 
ATOM     15  C   UNL     1       4.704   6.396  16.790  0.00  0.00    +0.000 A 
ATOM     16  C   UNL     1       4.120   6.047  18.009  0.00  0.00    +0.000 A 
ATOM     17  H   UNL     1       3.559   5.403  20.344  0.00  0.00    +0.000 HD
ENDBRANCH   1   4
BRANCH   1  28
ATOM     18  C   UNL     1      -1.374  13.545  19.774  0.00  0.00    +0.000 C 
ATOM     19  C   UNL     1      -0.963  12.098  19.646  0.00  0.00    +0.000 C 
ATOM     20  O   UNL     1      -1.082  11.554  18.547  0.00  0.00    +0.000 OA
ATOM     21  N   UNL     1      -0.494  11.465  20.805  0.00  0.00    +0.000 N 
ATOM     22  C   UNL     1      -0.629  12.055  22.142  0.00  0.00    +0.000 C 
ATOM     23  C   UNL     1      -1.247  11.058  23.107  0.00  0.00    +0.000 C 
ATOM     24  C   UNL     1      -0.339   9.845  23.248  0.00  0.00    +0.000 C 
ATOM     25  C   UNL     1       0.261   9.401  21.935  0.00  0.00    +0.000 A 
ATOM     26  C   UNL     1       0.969   8.182  21.911  0.00  0.00    +0.000 A 
ATOM     27  C   UNL     1       1.586   7.736  20.742  0.00  0.00    +0.000 A 
ATOM     28  C   UNL     1       1.478   8.508  19.586  0.00  0.00    +0.000 A 
ATOM     29  C   UNL     1       0.769   9.712  19.594  0.00  0.00    +0.000 A 
ATOM     30  C   UNL     1       0.160  10.183  20.764  0.00  0.00    +0.000 A 
ENDBRANCH   1  28
TORSDOF 2
ENDMDL
MODEL 5
REMARK VINA RESULT:      -8.0      2.474      3.270
REMARK  Name = 
REMARK  3 active torsions:
REMARK  status: ('A' for Active; 'I' for Inactive)
REMARK    1  A    between atoms: C_1  and  C_2
REMARK    2  A    between atoms: C_11  and  S_12
REMARK    3  A    between atoms: S_12  and  N_15
REMARK                            x       y       z     vdW  Elec       q    Type
REMARK                         _______ _______ _______ _____ _____    ______ ____
ROOT
ATOM      1  S   UNL     1       1.404  10.597  18.732  0.00  0.00    +0.000 S 
ATOM      2  O   UNL     1       1.796  11.569  19.727  0.00  0.00    +0.000 OA
ATOM      3  O   UNL     1       2.015  10.573  17.418  0.00  0.00    +0.000 OA
ENDROOT
BRANCH   1   4
ATOM      4  N   UNL     1      -0.284  10.730  18.525  0.00  0.00    +0.000 N 
ATOM      5  C   UNL     1      -1.036   9.528  18.041  0.00  0.00    +0.000 C 
ATOM      6  C   UNL     1      -1.993   9.944  16.917  0.00  0.00    +0.000 C 
ATOM      7  C   UNL     1      -3.000  10.992  17.363  0.00  0.00    +0.000 C 
ATOM      8  O   UNL     1      -4.208  10.782  17.387  0.00  0.00    +0.000 OA
ATOM      9  N   UNL     1      -2.425  12.196  17.781  0.00  0.00    +0.000 N 
ATOM     10  C   UNL     1      -2.120  12.181  19.174  0.00  0.00    +0.000 A 
ATOM     11  C   UNL     1      -2.963  12.793  20.092  0.00  0.00    +0.000 A 
ATOM     12  C   UNL     1      -2.691  12.630  21.445  0.00  0.00    +0.000 A 
ATOM     13  F   UNL     1      -3.490  13.208  22.352  0.00  0.00    +0.000 F 
ATOM     14  C   UNL     1      -1.622  11.847  21.878  0.00  0.00    +0.000 A 
ATOM     15  C   UNL     1      -0.776  11.237  20.945  0.00  0.00    +0.000 A 
ATOM     16  C   UNL     1      -0.989  11.446  19.582  0.00  0.00    +0.000 A 
ATOM     17  H   UNL     1      -1.529  12.276  17.301  0.00  0.00    +0.000 HD
ENDBRANCH   1   4
BRANCH   1  28
ATOM     18  C   UNL     1       4.575   4.967  16.450  0.00  0.00    +0.000 C 
ATOM     19  C   UNL     1       4.129   6.066  17.385  0.00  0.00    +0.000 C 
ATOM     20  O   UNL     1       4.623   7.185  17.246  0.00  0.00    +0.000 OA
ATOM     21  N   UNL     1       3.192   5.721  18.369  0.00  0.00    +0.000 N 
ATOM     22  C   UNL     1       2.841   4.330  18.680  0.00  0.00    +0.000 C 
ATOM     23  C   UNL     1       2.946   4.071  20.172  0.00  0.00    +0.000 C 
ATOM     24  C   UNL     1       1.959   4.955  20.920  0.00  0.00    +0.000 C 
ATOM     25  C   UNL     1       1.887   6.359  20.368  0.00  0.00    +0.000 A 
ATOM     26  C   UNL     1       1.147   7.316  21.092  0.00  0.00    +0.000 A 
ATOM     27  C   UNL     1       1.003   8.619  20.614  0.00  0.00    +0.000 A 
ATOM     28  C   UNL     1       1.618   8.970  19.414  0.00  0.00    +0.000 A 
ATOM     29  C   UNL     1       2.364   8.033  18.693  0.00  0.00    +0.000 A 
ATOM     30  C   UNL     1       2.504   6.716  19.149  0.00  0.00    +0.000 A 
ENDBRANCH   1  28
TORSDOF 2
ENDMDL
MODEL 6
REMARK VINA RESULT:      -7.9      2.178      2.842
REMARK  Name = 
REMARK  3 active torsions:
REMARK  status: ('A' for Active; 'I' for Inactive)
REMARK    1  A    between atoms: C_1  and  C_2
REMARK    2  A    between atoms: C_11  and  S_12
REMARK    3  A    between atoms: S_12  and  N_15
REMARK                            x       y       z     vdW  Elec       q    Type
REMARK                         _______ _______ _______ _____ _____    ______ ____
ROOT
ATOM      1  S   UNL     1       0.556   9.397  21.038  0.00  0.00    +0.000 S 
ATOM      2  O   UNL     1      -0.669   8.672  21.289  0.00  0.00    +0.000 OA
ATOM      3  O   UNL     1       1.462   9.744  22.113  0.00  0.00    +0.000 OA
ENDROOT
BRANCH   1   4
ATOM      4  N   UNL     1       0.141  10.831  20.213  0.00  0.00    +0.000 N 
ATOM      5  C   UNL     1       1.241  11.633  19.589  0.00  0.00    +0.000 C 
ATOM      6  C   UNL     1       1.059  13.113  19.948  0.00  0.00    +0.000 C 
ATOM      7  C   UNL     1      -0.272  13.672  19.470  0.00  0.00    +0.000 C 
ATOM      8  O   UNL     1      -0.354  14.568  18.637  0.00  0.00    +0.000 OA
ATOM      9  N   UNL     1      -1.389  13.047  20.033  0.00  0.00    +0.000 N 
ATOM     10  C   UNL     1      -1.809  11.922  19.264  0.00  0.00    +0.000 A 
ATOM     11  C   UNL     1      -2.879  12.024  18.384  0.00  0.00    +0.000 A 
ATOM     12  C   UNL     1      -3.158  10.940  17.561  0.00  0.00    +0.000 A 
ATOM     13  F   UNL     1      -4.182  11.012  16.700  0.00  0.00    +0.000 F 
ATOM     14  C   UNL     1      -2.370   9.790  17.588  0.00  0.00    +0.000 A 
ATOM     15  C   UNL     1      -1.296   9.696  18.480  0.00  0.00    +0.000 A 
ATOM     16  C   UNL     1      -1.042  10.745  19.365  0.00  0.00    +0.000 A 
ATOM     17  H   UNL     1      -1.093  12.673  20.934  0.00  0.00    +0.000 HD
ENDBRANCH   1   4
BRANCH   1  28
ATOM     18  C   UNL     1       2.887   2.955  20.869  0.00  0.00    +0.000 C 
ATOM     19  C   UNL     1       2.252   4.247  20.417  0.00  0.00    +0.000 C 
ATOM     20  O   UNL     1       1.119   4.513  20.822  0.00  0.00    +0.000 OA
ATOM     21  N   UNL     1       2.994   5.048  19.538  0.00  0.00    +0.000 N 
ATOM     22  C   UNL     1       4.208   4.572  18.863  0.00  0.00    +0.000 C 
ATOM     23  C   UNL     1       4.127   4.832  17.369  0.00  0.00    +0.000 C 
ATOM     24  C   UNL     1       4.034   6.329  17.110  0.00  0.00    +0.000 C 
ATOM     25  C   UNL     1       3.125   7.041  18.083  0.00  0.00    +0.000 A 
ATOM     26  C   UNL     1       2.817   8.393  17.831  0.00  0.00    +0.000 A 
ATOM     27  C   UNL     1       2.021   9.123  18.714  0.00  0.00    +0.000 A 
ATOM     28  C   UNL     1       1.516   8.489  19.848  0.00  0.00    +0.000 A 
ATOM     29  C   UNL     1       1.805   7.145  20.104  0.00  0.00    +0.000 A 
ATOM     30  C   UNL     1       2.617   6.404  19.236  0.00  0.00    +0.000 A 
ENDBRANCH   1  28
TORSDOF 2
ENDMDL
MODEL 7
REMARK VINA RESULT:      -7.9      4.490      8.046
REMARK  Name = 
REMARK  3 active torsions:
REMARK  status: ('A' for Active; 'I' for Inactive)
REMARK    1  A    between atoms: C_1  and  C_2
REMARK    2  A    between atoms: C_11  and  S_12
REMARK    3  A    between atoms: S_12  and  N_15
REMARK                            x       y       z     vdW  Elec       q    Type
REMARK                         _______ _______ _______ _____ _____    ______ ____
ROOT
ATOM      1  S   UNL     1      -2.911  12.828  22.817  0.00  0.00    +0.000 S 
ATOM      2  O   UNL     1      -2.774  14.140  23.406  0.00  0.00    +0.000 OA
ATOM      3  O   UNL     1      -3.050  11.642  23.638  0.00  0.00    +0.000 OA
ENDROOT
BRANCH   1   4
ATOM      4  N   UNL     1      -1.581  12.594  21.775  0.00  0.00    +0.000 N 
ATOM      5  C   UNL     1      -0.561  13.686  21.670  0.00  0.00    +0.000 C 
ATOM      6  C   UNL     1      -0.243  13.946  20.193  0.00  0.00    +0.000 C 
ATOM      7  C   UNL     1       0.300  12.714  19.486  0.00  0.00    +0.000 C 
ATOM      8  O   UNL     1       1.432  12.665  19.015  0.00  0.00    +0.000 OA
ATOM      9  N   UNL     1      -0.588  11.634  19.456  0.00  0.00    +0.000 N 
ATOM     10  C   UNL     1      -0.442  10.798  20.602  0.00  0.00    +0.000 A 
ATOM     11  C   UNL     1       0.283   9.615  20.531  0.00  0.00    +0.000 A 
ATOM     12  C   UNL     1       0.508   8.911  21.706  0.00  0.00    +0.000 A 
ATOM     13  F   UNL     1       1.206   7.768  21.667  0.00  0.00    +0.000 F 
ATOM     14  C   UNL     1       0.052   9.388  22.934  0.00  0.00    +0.000 A 
ATOM     15  C   UNL     1      -0.680  10.580  22.996  0.00  0.00    +0.000 A 
ATOM     16  C   UNL     1      -0.979  11.266  21.818  0.00  0.00    +0.000 A 
ATOM     17  H   UNL     1      -1.528  12.025  19.515  0.00  0.00    +0.000 HD
ENDBRANCH   1   4
BRANCH   1  28
ATOM     18  C   UNL     1      -3.638  11.308  16.175  0.00  0.00    +0.000 C 
ATOM     19  C   UNL     1      -3.912  11.357  17.658  0.00  0.00    +0.000 C 
ATOM     20  O   UNL     1      -3.210  10.672  18.404  0.00  0.00    +0.000 OA
ATOM     21  N   UNL     1      -4.974  12.168  18.083  0.00  0.00    +0.000 N 
ATOM     22  C   UNL     1      -5.955  12.743  17.154  0.00  0.00    +0.000 C 
ATOM     23  C   UNL     1      -7.370  12.447  17.619  0.00  0.00    +0.000 C 
ATOM     24  C   UNL     1      -7.612  13.094  18.975  0.00  0.00    +0.000 C 
ATOM     25  C   UNL     1      -6.434  12.964  19.910  0.00  0.00    +0.000 A 
ATOM     26  C   UNL     1      -6.608  13.361  21.252  0.00  0.00    +0.000 A 
ATOM     27  C   UNL     1      -5.547  13.311  22.157  0.00  0.00    +0.000 A 
ATOM     28  C   UNL     1      -4.309  12.843  21.719  0.00  0.00    +0.000 A 
ATOM     29  C   UNL     1      -4.127  12.436  20.394  0.00  0.00    +0.000 A 
ATOM     30  C   UNL     1      -5.176  12.498  19.469  0.00  0.00    +0.000 A 
ENDBRANCH   1  28
TORSDOF 2
ENDMDL
MODEL 8
REMARK VINA RESULT:      -7.9      4.708      7.973
REMARK  Name = 
REMARK  3 active torsions:
REMARK  status: ('A' for Active; 'I' for Inactive)
REMARK    1  A    between atoms: C_1  and  C_2
REMARK    2  A    between atoms: C_11  and  S_12
REMARK    3  A    between atoms: S_12  and  N_15
REMARK                            x       y       z     vdW  Elec       q    Type
REMARK                         _______ _______ _______ _____ _____    ______ ____
ROOT
ATOM      1  S   UNL     1      -1.568  14.313  22.114  0.00  0.00    +0.000 S 
ATOM      2  O   UNL     1      -1.593  15.639  21.540  0.00  0.00    +0.000 OA
ATOM      3  O   UNL     1      -1.218  14.098  23.503  0.00  0.00    +0.000 OA
ENDROOT
BRANCH   1   4
ATOM      4  N   UNL     1      -0.529  13.360  21.155  0.00  0.00    +0.000 N 
ATOM      5  C   UNL     1       0.883  13.822  20.964  0.00  0.00    +0.000 C 
ATOM      6  C   UNL     1       1.254  13.726  19.479  0.00  0.00    +0.000 C 
ATOM      7  C   UNL     1       1.137  12.311  18.937  0.00  0.00    +0.000 C 
ATOM      8  O   UNL     1       2.100  11.679  18.517  0.00  0.00    +0.000 OA
ATOM      9  N   UNL     1      -0.156  11.782  18.997  0.00  0.00    +0.000 N 
ATOM     10  C   UNL     1      -0.398  11.117  20.235  0.00  0.00    +0.000 A 
ATOM     11  C   UNL     1      -0.319   9.733  20.325  0.00  0.00    +0.000 A 
ATOM     12  C   UNL     1      -0.428   9.148  21.580  0.00  0.00    +0.000 A 
ATOM     13  F   UNL     1      -0.353   7.816  21.696  0.00  0.00    +0.000 F 
ATOM     14  C   UNL     1      -0.579   9.925  22.729  0.00  0.00    +0.000 A 
ATOM     15  C   UNL     1      -0.660  11.318  22.628  0.00  0.00    +0.000 A 
ATOM     16  C   UNL     1      -0.624  11.921  21.369  0.00  0.00    +0.000 A 
ATOM     17  H   UNL     1      -0.799  12.573  18.977  0.00  0.00    +0.000 HD
ENDBRANCH   1   4
BRANCH   1  28
ATOM     18  C   UNL     1      -4.674  11.579  16.651  0.00  0.00    +0.000 C 
ATOM     19  C   UNL     1      -4.181  11.747  18.068  0.00  0.00    +0.000 C 
ATOM     20  O   UNL     1      -2.987  11.550  18.298  0.00  0.00    +0.000 OA
ATOM     21  N   UNL     1      -5.134  12.096  19.036  0.00  0.00    +0.000 N 
ATOM     22  C   UNL     1      -6.579  12.049  18.781  0.00  0.00    +0.000 C 
ATOM     23  C   UNL     1      -7.290  11.268  19.871  0.00  0.00    +0.000 C 
ATOM     24  C   UNL     1      -7.100  11.963  21.211  0.00  0.00    +0.000 C 
ATOM     25  C   UNL     1      -5.699  12.491  21.408  0.00  0.00    +0.000 A 
ATOM     26  C   UNL     1      -5.354  12.989  22.681  0.00  0.00    +0.000 A 
ATOM     27  C   UNL     1      -4.091  13.534  22.918  0.00  0.00    +0.000 A 
ATOM     28  C   UNL     1      -3.164  13.565  21.878  0.00  0.00    +0.000 A 
ATOM     29  C   UNL     1      -3.490  13.064  20.615  0.00  0.00    +0.000 A 
ATOM     30  C   UNL     1      -4.759  12.530  20.356  0.00  0.00    +0.000 A 
ENDBRANCH   1  28
TORSDOF 2
ENDMDL
MODEL 9
REMARK VINA RESULT:      -7.7      4.288      8.365
REMARK  Name = 
REMARK  3 active torsions:
REMARK  status: ('A' for Active; 'I' for Inactive)
REMARK    1  A    between atoms: C_1  and  C_2
REMARK    2  A    between atoms: C_11  and  S_12
REMARK    3  A    between atoms: S_12  and  N_15
REMARK                            x       y       z     vdW  Elec       q    Type
REMARK                         _______ _______ _______ _____ _____    ______ ____
ROOT
ATOM      1  S   UNL     1      -0.954  12.601  22.227  0.00  0.00    +0.000 S 
ATOM      2  O   UNL     1      -0.699  13.946  22.690  0.00  0.00    +0.000 OA
ATOM      3  O   UNL     1      -0.991  11.480  23.144  0.00  0.00    +0.000 OA
ENDROOT
BRANCH   1   4
ATOM      4  N   UNL     1       0.193  12.252  21.014  0.00  0.00    +0.000 N 
ATOM      5  C   UNL     1       1.395  13.138  20.898  0.00  0.00    +0.000 C 
ATOM      6  C   UNL     1       1.611  13.513  19.426  0.00  0.00    +0.000 C 
ATOM      7  C   UNL     1       1.825  12.297  18.538  0.00  0.00    +0.000 C 
ATOM      8  O   UNL     1       2.872  12.095  17.932  0.00  0.00    +0.000 OA
ATOM      9  N   UNL     1       0.741  11.414  18.508  0.00  0.00    +0.000 N 
ATOM     10  C   UNL     1       0.829  10.432  19.537  0.00  0.00    +0.000 A 
ATOM     11  C   UNL     1       1.293   9.152  19.260  0.00  0.00    +0.000 A 
ATOM     12  C   UNL     1       1.489   8.279  20.323  0.00  0.00    +0.000 A 
ATOM     13  F   UNL     1       1.938   7.040  20.085  0.00  0.00    +0.000 F 
ATOM     14  C   UNL     1       1.260   8.680  21.639  0.00  0.00    +0.000 A 
ATOM     15  C   UNL     1       0.790   9.971  21.908  0.00  0.00    +0.000 A 
ATOM     16  C   UNL     1       0.520  10.840  20.850  0.00  0.00    +0.000 A 
ATOM     17  H   UNL     1      -0.092  11.964  18.718  0.00  0.00    +0.000 HD
ENDBRANCH   1   4
BRANCH   1  28
ATOM     18  C   UNL     1      -7.452  13.345  24.272  0.00  0.00    +0.000 C 
ATOM     19  C   UNL     1      -6.193  13.509  23.456  0.00  0.00    +0.000 C 
ATOM     20  O   UNL     1      -5.288  14.209  23.914  0.00  0.00    +0.000 OA
ATOM     21  N   UNL     1      -6.154  12.866  22.211  0.00  0.00    +0.000 N 
ATOM     22  C   UNL     1      -7.343  12.280  21.582  0.00  0.00    +0.000 C 
ATOM     23  C   UNL     1      -7.490  12.769  20.152  0.00  0.00    +0.000 C 
ATOM     24  C   UNL     1      -6.289  12.324  19.329  0.00  0.00    +0.000 C 
ATOM     25  C   UNL     1      -4.983  12.452  20.075  0.00  0.00    +0.000 A 
ATOM     26  C   UNL     1      -3.788  12.245  19.355  0.00  0.00    +0.000 A 
ATOM     27  C   UNL     1      -2.548  12.302  19.993  0.00  0.00    +0.000 A 
ATOM     28  C   UNL     1      -2.505  12.587  21.357  0.00  0.00    +0.000 A 
ATOM     29  C   UNL     1      -3.682  12.805  22.080  0.00  0.00    +0.000 A 
ATOM     30  C   UNL     1      -4.934  12.733  21.458  0.00  0.00    +0.000 A 
ENDBRANCH   1  28
TORSDOF 2
ENDMDL
