MODEL 1
REMARK VINA RESULT:      -8.8      0.000      0.000
REMARK  Name = 
REMARK  6 active torsions:
REMARK  status: ('A' for Active; 'I' for Inactive)
REMARK    1  A    between atoms: N_6  and  C_7
REMARK    2  A    between atoms: C_7  and  C_8
REMARK    3  A    between atoms: C_13  and  N_14
REMARK    4  A    between atoms: N_14  and  C_15
REMARK    5  A    between atoms: C_15  and  C_16
REMARK    6  A    between atoms: C_19  and  C_20
REMARK                            x       y       z     vdW  Elec       q    Type
REMARK                         _______ _______ _______ _____ _____    ______ ____
ROOT
ATOM      1  N   UNL     1       3.442   6.239  18.747  0.00  0.00    +0.000 N 
ATOM      2  H   UNL     1       3.014   6.493  19.635  0.00  0.00    +0.000 HD
ENDROOT
BRANCH   1   8
ATOM      3  C   UNL     1       4.150   3.861  18.273  0.00  0.00    +0.000 A 
ATOM      4  C   UNL     1       3.707   2.534  18.025  0.00  0.00    +0.000 A 
ATOM      5  C   UNL     1       2.359   2.214  17.926  0.00  0.00    +0.000 A 
ATOM      6  C   UNL     1       1.418   3.213  18.101  0.00  0.00    +0.000 A 
ATOM      7  C   UNL     1       1.834   4.521  18.364  0.00  0.00    +0.000 A 
ATOM      8  C   UNL     1       3.197   4.896  18.424  0.00  0.00    +0.000 A 
BRANCH   3   9
ATOM      9  C   UNL     1       5.652   4.038  18.270  0.00  0.00    +0.000 C 
BRANCH   9  15
ATOM     10  O   UNL     1       7.516   6.271  17.701  0.00  0.00    +0.000 OA
ATOM     11  C   UNL     1       7.038   5.567  16.833  0.00  0.00    +0.000 C 
ATOM     12  N   UNL     1       7.283   5.700  15.470  0.00  0.00    +0.000 N 
ATOM     13  C   UNL     1       6.356   4.890  14.726  0.00  0.00    +0.000 C 
ATOM     14  C   UNL     1       5.962   3.826  15.733  0.00  0.00    +0.000 C 
ATOM     15  N   UNL     1       6.118   4.537  16.987  0.00  0.00    +0.000 N 
ATOM     16  H   UNL     1       7.738   6.539  15.138  0.00  0.00    +0.000 HD
ENDBRANCH   9  15
ENDBRANCH   3   9
ENDBRANCH   1   8
BRANCH   1  17
ATOM     17  C   UNL     1       3.256   7.339  17.787  0.00  0.00    +0.000 C 
BRANCH  17  18
ATOM     18  C   UNL     1       2.346   8.450  18.217  0.00  0.00    +0.000 A 
ATOM     19  N   UNL     1       1.893   9.464  17.508  0.00  0.00    +0.000 NA
ATOM     20  N   UNL     1       1.082  10.197  18.343  0.00  0.00    +0.000 NA
ATOM     21  C   UNL     1       1.084   9.582  19.507  0.00  0.00    +0.000 A 
ATOM     22  O   UNL     1       1.866   8.450  19.507  0.00  0.00    +0.000 OA
BRANCH  21  23
ATOM     23  C   UNL     1       0.351   9.911  20.724  0.00  0.00    +0.000 A 
ATOM     24  C   UNL     1       0.130   8.912  21.688  0.00  0.00    +0.000 A 
ATOM     25  C   UNL     1      -0.518   9.205  22.893  0.00  0.00    +0.000 A 
ATOM     26  C   UNL     1      -0.957  10.503  23.145  0.00  0.00    +0.000 A 
ATOM     27  C   UNL     1      -0.760  11.494  22.186  0.00  0.00    +0.000 A 
ATOM     28 CL   UNL     1      -1.300  13.098  22.498  0.00  0.00    +0.000 Cl
ATOM     29  C   UNL     1      -0.117  11.206  20.981  0.00  0.00    +0.000 A 
ENDBRANCH  21  23
ENDBRANCH  17  18
ENDBRANCH   1  17
TORSDOF 6
ENDMDL
MODEL 2
REMARK VINA RESULT:      -8.5      5.176      7.276
REMARK  Name = 
REMARK  6 active torsions:
REMARK  status: ('A' for Active; 'I' for Inactive)
REMARK    1  A    between atoms: N_6  and  C_7
REMARK    2  A    between atoms: C_7  and  C_8
REMARK    3  A    between atoms: C_13  and  N_14
REMARK    4  A    between atoms: N_14  and  C_15
REMARK    5  A    between atoms: C_15  and  C_16
REMARK    6  A    between atoms: C_19  and  C_20
REMARK                            x       y       z     vdW  Elec       q    Type
REMARK                         _______ _______ _______ _____ _____    ______ ____
ROOT
ATOM      1  N   UNL     1       6.837   4.913  18.713  0.00  0.00    +0.000 N 
ATOM      2  H   UNL     1       6.132   5.215  19.383  0.00  0.00    +0.000 HD
ENDROOT
BRANCH   1   8
ATOM      3  C   UNL     1       4.933   4.888  17.053  0.00  0.00    +0.000 A 
ATOM      4  C   UNL     1       4.566   4.698  15.694  0.00  0.00    +0.000 A 
ATOM      5  C   UNL     1       5.491   4.329  14.725  0.00  0.00    +0.000 A 
ATOM      6  C   UNL     1       6.816   4.169  15.091  0.00  0.00    +0.000 A 
ATOM      7  C   UNL     1       7.199   4.370  16.420  0.00  0.00    +0.000 A 
ATOM      8  C   UNL     1       6.279   4.698  17.443  0.00  0.00    +0.000 A 
BRANCH   3   9
ATOM      9  C   UNL     1       3.782   5.209  17.980  0.00  0.00    +0.000 C 
BRANCH   9  15
ATOM     10  O   UNL     1       4.645   3.044  19.811  0.00  0.00    +0.000 OA
ATOM     11  C   UNL     1       3.551   3.070  19.282  0.00  0.00    +0.000 C 
ATOM     12  N   UNL     1       2.560   2.107  19.446  0.00  0.00    +0.000 N 
ATOM     13  C   UNL     1       1.518   2.309  18.475  0.00  0.00    +0.000 C 
ATOM     14  C   UNL     1       1.657   3.783  18.139  0.00  0.00    +0.000 C 
ATOM     15  N   UNL     1       3.071   4.003  18.371  0.00  0.00    +0.000 N 
ATOM     16  H   UNL     1       2.803   1.229  19.883  0.00  0.00    +0.000 HD
ENDBRANCH   9  15
ENDBRANCH   3   9
ENDBRANCH   1   8
BRANCH   1  17
ATOM     17  C   UNL     1       8.068   5.690  18.924  0.00  0.00    +0.000 C 
BRANCH  17  18
ATOM     18  C   UNL     1       8.051   7.111  18.445  0.00  0.00    +0.000 A 
ATOM     19  N   UNL     1       7.334   7.644  17.477  0.00  0.00    +0.000 NA
ATOM     20  N   UNL     1       7.662   8.980  17.435  0.00  0.00    +0.000 NA
ATOM     21  C   UNL     1       8.551   9.181  18.385  0.00  0.00    +0.000 A 
ATOM     22  O   UNL     1       8.850   8.032  19.083  0.00  0.00    +0.000 OA
BRANCH  21  23
ATOM     23  C   UNL     1       9.189  10.423  18.802  0.00  0.00    +0.000 A 
ATOM     24  C   UNL     1       9.402  10.665  20.171  0.00  0.00    +0.000 A 
ATOM     25  C   UNL     1      10.063  11.819  20.603  0.00  0.00    +0.000 A 
ATOM     26  C   UNL     1      10.516  12.749  19.669  0.00  0.00    +0.000 A 
ATOM     27  C   UNL     1      10.292  12.527  18.312  0.00  0.00    +0.000 A 
ATOM     28 CL   UNL     1      10.854  13.673  17.159  0.00  0.00    +0.000 Cl
ATOM     29  C   UNL     1       9.630  11.378  17.876  0.00  0.00    +0.000 A 
ENDBRANCH  21  23
ENDBRANCH  17  18
ENDBRANCH   1  17
TORSDOF 6
ENDMDL
MODEL 3
REMARK VINA RESULT:      -8.5      4.189      8.762
REMARK  Name = 
REMARK  6 active torsions:
REMARK  status: ('A' for Active; 'I' for Inactive)
REMARK    1  A    between atoms: N_6  and  C_7
REMARK    2  A    between atoms: C_7  and  C_8
REMARK    3  A    between atoms: C_13  and  N_14
REMARK    4  A    between atoms: N_14  and  C_15
REMARK    5  A    between atoms: C_15  and  C_16
REMARK    6  A    between atoms: C_19  and  C_20
REMARK                            x       y       z     vdW  Elec       q    Type
REMARK                         _______ _______ _______ _____ _____    ______ ____
ROOT
ATOM      1  N   UNL     1       3.872   5.656  17.515  0.00  0.00    +0.000 N 
ATOM      2  H   UNL     1       3.550   4.690  17.505  0.00  0.00    +0.000 HD
ENDROOT
BRANCH   1   8
ATOM      3  C   UNL     1       2.671   6.202  19.669  0.00  0.00    +0.000 A 
ATOM      4  C   UNL     1       1.913   7.175  20.373  0.00  0.00    +0.000 A 
ATOM      5  C   UNL     1       1.539   8.380  19.793  0.00  0.00    +0.000 A 
ATOM      6  C   UNL     1       1.941   8.653  18.497  0.00  0.00    +0.000 A 
ATOM      7  C   UNL     1       2.704   7.716  17.795  0.00  0.00    +0.000 A 
ATOM      8  C   UNL     1       3.063   6.458  18.334  0.00  0.00    +0.000 A 
BRANCH   3   9
ATOM      9  C   UNL     1       2.918   4.920  20.431  0.00  0.00    +0.000 C 
BRANCH   9  15
ATOM     10  O   UNL     1       4.211   2.511  19.284  0.00  0.00    +0.000 OA
ATOM     11  C   UNL     1       3.007   2.675  19.298  0.00  0.00    +0.000 C 
ATOM     12  N   UNL     1       2.072   1.782  18.787  0.00  0.00    +0.000 N 
ATOM     13  C   UNL     1       0.780   2.410  18.726  0.00  0.00    +0.000 C 
ATOM     14  C   UNL     1       0.887   3.496  19.780  0.00  0.00    +0.000 C 
ATOM     15  N   UNL     1       2.307   3.784  19.758  0.00  0.00    +0.000 N 
ATOM     16  H   UNL     1       2.393   1.026  18.198  0.00  0.00    +0.000 HD
ENDBRANCH   9  15
ENDBRANCH   3   9
ENDBRANCH   1   8
BRANCH   1  17
ATOM     17  C   UNL     1       5.342   5.676  17.577  0.00  0.00    +0.000 C 
BRANCH  17  18
ATOM     18  C   UNL     1       6.067   5.412  16.292  0.00  0.00    +0.000 A 
ATOM     19  N   UNL     1       7.269   5.810  15.928  0.00  0.00    +0.000 NA
ATOM     20  N   UNL     1       7.488   5.300  14.669  0.00  0.00    +0.000 NA
ATOM     21  C   UNL     1       6.411   4.615  14.346  0.00  0.00    +0.000 A 
ATOM     22  O   UNL     1       5.455   4.634  15.336  0.00  0.00    +0.000 OA
BRANCH  21  23
ATOM     23  C   UNL     1       6.141   3.834  13.145  0.00  0.00    +0.000 A 
ATOM     24  C   UNL     1       7.173   3.071  12.571  0.00  0.00    +0.000 A 
ATOM     25  C   UNL     1       6.936   2.265  11.454  0.00  0.00    +0.000 A 
ATOM     26  C   UNL     1       5.661   2.217  10.893  0.00  0.00    +0.000 A 
ATOM     27  C   UNL     1       4.638   2.986  11.442  0.00  0.00    +0.000 A 
ATOM     28 CL   UNL     1       3.063   2.924  10.751  0.00  0.00    +0.000 Cl
ATOM     29  C   UNL     1       4.870   3.794  12.556  0.00  0.00    +0.000 A 
ENDBRANCH  21  23
ENDBRANCH  17  18
ENDBRANCH   1  17
TORSDOF 6
ENDMDL
MODEL 4
REMARK VINA RESULT:      -8.5      1.291      1.594
REMARK  Name = 
REMARK  6 active torsions:
REMARK  status: ('A' for Active; 'I' for Inactive)
REMARK    1  A    between atoms: N_6  and  C_7
REMARK    2  A    between atoms: C_7  and  C_8
REMARK    3  A    between atoms: C_13  and  N_14
REMARK    4  A    between atoms: N_14  and  C_15
REMARK    5  A    between atoms: C_15  and  C_16
REMARK    6  A    between atoms: C_19  and  C_20
REMARK                            x       y       z     vdW  Elec       q    Type
REMARK                         _______ _______ _______ _____ _____    ______ ____
ROOT
ATOM      1  N   UNL     1       2.511   5.926  17.827  0.00  0.00    +0.000 N 
ATOM      2  H   UNL     1       2.612   5.623  16.860  0.00  0.00    +0.000 HD
ENDROOT
BRANCH   1   8
ATOM      3  C   UNL     1       3.737   3.882  18.664  0.00  0.00    +0.000 A 
ATOM      4  C   UNL     1       3.847   2.930  19.712  0.00  0.00    +0.000 A 
ATOM      5  C   UNL     1       2.987   2.930  20.802  0.00  0.00    +0.000 A 
ATOM      6  C   UNL     1       2.009   3.906  20.883  0.00  0.00    +0.000 A 
ATOM      7  C   UNL     1       1.897   4.863  19.871  0.00  0.00    +0.000 A 
ATOM      8  C   UNL     1       2.723   4.867  18.722  0.00  0.00    +0.000 A 
BRANCH   3   9
ATOM      9  C   UNL     1       4.707   3.682  17.521  0.00  0.00    +0.000 C 
BRANCH   9  15
ATOM     10  O   UNL     1       5.371   5.546  15.314  0.00  0.00    +0.000 OA
ATOM     11  C   UNL     1       5.899   5.597  16.408  0.00  0.00    +0.000 C 
ATOM     12  N   UNL     1       6.877   6.512  16.782  0.00  0.00    +0.000 N 
ATOM     13  C   UNL     1       7.463   6.115  18.034  0.00  0.00    +0.000 C 
ATOM     14  C   UNL     1       6.371   5.266  18.659  0.00  0.00    +0.000 C 
ATOM     15  N   UNL     1       5.702   4.742  17.486  0.00  0.00    +0.000 N 
ATOM     16  H   UNL     1       7.326   7.065  16.065  0.00  0.00    +0.000 HD
ENDBRANCH   9  15
ENDBRANCH   3   9
ENDBRANCH   1   8
BRANCH   1  17
ATOM     17  C   UNL     1       3.139   7.247  17.988  0.00  0.00    +0.000 C 
BRANCH  17  18
ATOM     18  C   UNL     1       2.225   8.379  18.353  0.00  0.00    +0.000 A 
ATOM     19  N   UNL     1       1.776   9.353  17.588  0.00  0.00    +0.000 NA
ATOM     20  N   UNL     1       0.960  10.129  18.378  0.00  0.00    +0.000 NA
ATOM     21  C   UNL     1       0.954   9.576  19.573  0.00  0.00    +0.000 A 
ATOM     22  O   UNL     1       1.737   8.446  19.637  0.00  0.00    +0.000 OA
BRANCH  21  23
ATOM     23  C   UNL     1       0.214   9.968  20.766  0.00  0.00    +0.000 A 
ATOM     24  C   UNL     1       0.255   9.145  21.906  0.00  0.00    +0.000 A 
ATOM     25  C   UNL     1      -0.395   9.519  23.086  0.00  0.00    +0.000 A 
ATOM     26  C   UNL     1      -1.100  10.719  23.139  0.00  0.00    +0.000 A 
ATOM     27  C   UNL     1      -1.163  11.530  22.008  0.00  0.00    +0.000 A 
ATOM     28 CL   UNL     1      -2.032  13.015  22.074  0.00  0.00    +0.000 Cl
ATOM     29  C   UNL     1      -0.518  11.161  20.826  0.00  0.00    +0.000 A 
ENDBRANCH  21  23
ENDBRANCH  17  18
ENDBRANCH   1  17
TORSDOF 6
ENDMDL
MODEL 5
REMARK VINA RESULT:      -8.4      4.510      8.722
REMARK  Name = 
REMARK  6 active torsions:
REMARK  status: ('A' for Active; 'I' for Inactive)
REMARK    1  A    between atoms: N_6  and  C_7
REMARK    2  A    between atoms: C_7  and  C_8
REMARK    3  A    between atoms: C_13  and  N_14
REMARK    4  A    between atoms: N_14  and  C_15
REMARK    5  A    between atoms: C_15  and  C_16
REMARK    6  A    between atoms: C_19  and  C_20
REMARK                            x       y       z     vdW  Elec       q    Type
REMARK                         _______ _______ _______ _____ _____    ______ ____
ROOT
ATOM      1  N   UNL     1       4.652   5.501  19.625  0.00  0.00    +0.000 N 
ATOM      2  H   UNL     1       5.489   6.016  19.895  0.00  0.00    +0.000 HD
ENDROOT
BRANCH   1   8
ATOM      3  C   UNL     1       2.344   6.525  19.589  0.00  0.00    +0.000 A 
ATOM      4  C   UNL     1       1.506   7.505  18.994  0.00  0.00    +0.000 A 
ATOM      5  C   UNL     1       1.943   8.313  17.952  0.00  0.00    +0.000 A 
ATOM      6  C   UNL     1       3.242   8.177  17.498  0.00  0.00    +0.000 A 
ATOM      7  C   UNL     1       4.087   7.230  18.084  0.00  0.00    +0.000 A 
ATOM      8  C   UNL     1       3.665   6.357  19.114  0.00  0.00    +0.000 A 
BRANCH   3   9
ATOM      9  C   UNL     1       1.676   5.685  20.656  0.00  0.00    +0.000 C 
BRANCH   9  15
ATOM     10  O   UNL     1       2.187   3.295  22.333  0.00  0.00    +0.000 OA
ATOM     11  C   UNL     1       1.863   3.229  21.164  0.00  0.00    +0.000 C 
ATOM     12  N   UNL     1       1.689   2.049  20.448  0.00  0.00    +0.000 N 
ATOM     13  C   UNL     1       1.575   2.342  19.045  0.00  0.00    +0.000 C 
ATOM     14  C   UNL     1       1.088   3.780  19.043  0.00  0.00    +0.000 C 
ATOM     15  N   UNL     1       1.654   4.281  20.280  0.00  0.00    +0.000 N 
ATOM     16  H   UNL     1       2.023   1.184  20.848  0.00  0.00    +0.000 HD
ENDBRANCH   9  15
ENDBRANCH   3   9
ENDBRANCH   1   8
BRANCH   1  17
ATOM     17  C   UNL     1       5.048   4.250  18.961  0.00  0.00    +0.000 C 
BRANCH  17  18
ATOM     18  C   UNL     1       6.092   4.365  17.890  0.00  0.00    +0.000 A 
ATOM     19  N   UNL     1       7.398   4.467  18.022  0.00  0.00    +0.000 NA
ATOM     20  N   UNL     1       7.919   4.529  16.750  0.00  0.00    +0.000 NA
ATOM     21  C   UNL     1       6.899   4.453  15.921  0.00  0.00    +0.000 A 
ATOM     22  O   UNL     1       5.693   4.340  16.574  0.00  0.00    +0.000 OA
BRANCH  21  23
ATOM     23  C   UNL     1       6.897   4.424  14.463  0.00  0.00    +0.000 A 
ATOM     24  C   UNL     1       7.714   5.321  13.753  0.00  0.00    +0.000 A 
ATOM     25  C   UNL     1       7.780   5.282  12.356  0.00  0.00    +0.000 A 
ATOM     26  C   UNL     1       7.025   4.346  11.653  0.00  0.00    +0.000 A 
ATOM     27  C   UNL     1       6.197   3.467  12.347  0.00  0.00    +0.000 A 
ATOM     28 CL   UNL     1       5.267   2.309  11.478  0.00  0.00    +0.000 Cl
ATOM     29  C   UNL     1       6.125   3.504  13.741  0.00  0.00    +0.000 A 
ENDBRANCH  21  23
ENDBRANCH  17  18
ENDBRANCH   1  17
TORSDOF 6
ENDMDL
MODEL 6
REMARK VINA RESULT:      -8.4      4.995      7.203
REMARK  Name = 
REMARK  6 active torsions:
REMARK  status: ('A' for Active; 'I' for Inactive)
REMARK    1  A    between atoms: N_6  and  C_7
REMARK    2  A    between atoms: C_7  and  C_8
REMARK    3  A    between atoms: C_13  and  N_14
REMARK    4  A    between atoms: N_14  and  C_15
REMARK    5  A    between atoms: C_15  and  C_16
REMARK    6  A    between atoms: C_19  and  C_20
REMARK                            x       y       z     vdW  Elec       q    Type
REMARK                         _______ _______ _______ _____ _____    ______ ____
ROOT
ATOM      1  N   UNL     1       7.773   4.521  18.175  0.00  0.00    +0.000 N 
ATOM      2  H   UNL     1       7.888   3.647  18.684  0.00  0.00    +0.000 HD
ENDROOT
BRANCH   1   8
ATOM      3  C   UNL     1       5.370   4.412  17.403  0.00  0.00    +0.000 A 
ATOM      4  C   UNL     1       4.500   4.386  16.281  0.00  0.00    +0.000 A 
ATOM      5  C   UNL     1       4.979   4.366  14.977  0.00  0.00    +0.000 A 
ATOM      6  C   UNL     1       6.346   4.400  14.766  0.00  0.00    +0.000 A 
ATOM      7  C   UNL     1       7.217   4.446  15.858  0.00  0.00    +0.000 A 
ATOM      8  C   UNL     1       6.770   4.419  17.199  0.00  0.00    +0.000 A 
BRANCH   3   9
ATOM      9  C   UNL     1       4.674   4.351  18.745  0.00  0.00    +0.000 C 
BRANCH   9  15
ATOM     10  O   UNL     1       4.282   1.418  18.925  0.00  0.00    +0.000 OA
ATOM     11  C   UNL     1       3.363   2.205  18.809  0.00  0.00    +0.000 C 
ATOM     12  N   UNL     1       2.018   1.859  18.739  0.00  0.00    +0.000 N 
ATOM     13  C   UNL     1       1.241   3.000  18.334  0.00  0.00    +0.000 C 
ATOM     14  C   UNL     1       2.117   4.166  18.756  0.00  0.00    +0.000 C 
ATOM     15  N   UNL     1       3.441   3.585  18.662  0.00  0.00    +0.000 N 
ATOM     16  H   UNL     1       1.772   0.891  18.591  0.00  0.00    +0.000 HD
ENDBRANCH   9  15
ENDBRANCH   3   9
ENDBRANCH   1   8
BRANCH   1  17
ATOM     17  C   UNL     1       7.858   5.646  19.120  0.00  0.00    +0.000 C 
BRANCH  17  18
ATOM     18  C   UNL     1       7.982   7.014  18.518  0.00  0.00    +0.000 A 
ATOM     19  N   UNL     1       7.445   7.476  17.407  0.00  0.00    +0.000 NA
ATOM     20  N   UNL     1       7.840   8.789  17.295  0.00  0.00    +0.000 NA
ATOM     21  C   UNL     1       8.586   9.050  18.348  0.00  0.00    +0.000 A 
ATOM     22  O   UNL     1       8.721   7.964  19.184  0.00  0.00    +0.000 OA
BRANCH  21  23
ATOM     23  C   UNL     1       9.215  10.304  18.744  0.00  0.00    +0.000 A 
ATOM     24  C   UNL     1       9.864  11.088  17.774  0.00  0.00    +0.000 A 
ATOM     25  C   UNL     1      10.427  12.324  18.107  0.00  0.00    +0.000 A 
ATOM     26  C   UNL     1      10.352  12.788  19.418  0.00  0.00    +0.000 A 
ATOM     27  C   UNL     1       9.729  12.009  20.390  0.00  0.00    +0.000 A 
ATOM     28 CL   UNL     1       9.634  12.584  22.009  0.00  0.00    +0.000 Cl
ATOM     29  C   UNL     1       9.168  10.773  20.064  0.00  0.00    +0.000 A 
ENDBRANCH  21  23
ENDBRANCH  17  18
ENDBRANCH   1  17
TORSDOF 6
ENDMDL
MODEL 7
REMARK VINA RESULT:      -8.3      3.748      8.665
REMARK  Name = 
REMARK  6 active torsions:
REMARK  status: ('A' for Active; 'I' for Inactive)
REMARK    1  A    between atoms: N_6  and  C_7
REMARK    2  A    between atoms: C_7  and  C_8
REMARK    3  A    between atoms: C_13  and  N_14
REMARK    4  A    between atoms: N_14  and  C_15
REMARK    5  A    between atoms: C_15  and  C_16
REMARK    6  A    between atoms: C_19  and  C_20
REMARK                            x       y       z     vdW  Elec       q    Type
REMARK                         _______ _______ _______ _____ _____    ______ ____
ROOT
ATOM      1  N   UNL     1       5.293   4.564  18.295  0.00  0.00    +0.000 N 
ATOM      2  H   UNL     1       5.751   4.596  19.204  0.00  0.00    +0.000 HD
ENDROOT
BRANCH   1   8
ATOM      3  C   UNL     1       2.906   4.792  19.089  0.00  0.00    +0.000 A 
ATOM      4  C   UNL     1       1.593   4.255  19.024  0.00  0.00    +0.000 A 
ATOM      5  C   UNL     1       1.304   3.101  18.306  0.00  0.00    +0.000 A 
ATOM      6  C   UNL     1       2.321   2.472  17.612  0.00  0.00    +0.000 A 
ATOM      7  C   UNL     1       3.616   2.997  17.649  0.00  0.00    +0.000 A 
ATOM      8  C   UNL     1       3.959   4.141  18.407  0.00  0.00    +0.000 A 
BRANCH   3   9
ATOM      9  C   UNL     1       3.049   6.006  19.980  0.00  0.00    +0.000 C 
BRANCH   9  15
ATOM     10  O   UNL     1       1.318   8.068  21.221  0.00  0.00    +0.000 OA
ATOM     11  C   UNL     1       1.678   8.114  20.061  0.00  0.00    +0.000 C 
ATOM     12  N   UNL     1       1.338   9.115  19.157  0.00  0.00    +0.000 N 
ATOM     13  C   UNL     1       1.706   8.715  17.825  0.00  0.00    +0.000 C 
ATOM     14  C   UNL     1       2.812   7.705  18.074  0.00  0.00    +0.000 C 
ATOM     15  N   UNL     1       2.439   7.177  19.371  0.00  0.00    +0.000 N 
ATOM     16  H   UNL     1       0.600   9.760  19.401  0.00  0.00    +0.000 HD
ENDBRANCH   9  15
ENDBRANCH   3   9
ENDBRANCH   1   8
BRANCH   1  17
ATOM     17  C   UNL     1       5.695   5.741  17.509  0.00  0.00    +0.000 C 
BRANCH  17  18
ATOM     18  C   UNL     1       6.333   5.468  16.180  0.00  0.00    +0.000 A 
ATOM     19  N   UNL     1       7.496   5.885  15.723  0.00  0.00    +0.000 NA
ATOM     20  N   UNL     1       7.637   5.355  14.462  0.00  0.00    +0.000 NA
ATOM     21  C   UNL     1       6.556   4.640  14.230  0.00  0.00    +0.000 A 
ATOM     22  O   UNL     1       5.673   4.657  15.285  0.00  0.00    +0.000 OA
BRANCH  21  23
ATOM     23  C   UNL     1       6.220   3.829  13.065  0.00  0.00    +0.000 A 
ATOM     24  C   UNL     1       7.213   3.030  12.470  0.00  0.00    +0.000 A 
ATOM     25  C   UNL     1       6.912   2.197  11.388  0.00  0.00    +0.000 A 
ATOM     26  C   UNL     1       5.613   2.155  10.886  0.00  0.00    +0.000 A 
ATOM     27  C   UNL     1       4.628   2.958  11.457  0.00  0.00    +0.000 A 
ATOM     28 CL   UNL     1       3.024   2.905  10.838  0.00  0.00    +0.000 Cl
ATOM     29  C   UNL     1       4.924   3.795  12.534  0.00  0.00    +0.000 A 
ENDBRANCH  21  23
ENDBRANCH  17  18
ENDBRANCH   1  17
TORSDOF 6
ENDMDL
MODEL 8
REMARK VINA RESULT:      -8.2      3.723      8.437
REMARK  Name = 
REMARK  6 active torsions:
REMARK  status: ('A' for Active; 'I' for Inactive)
REMARK    1  A    between atoms: N_6  and  C_7
REMARK    2  A    between atoms: C_7  and  C_8
REMARK    3  A    between atoms: C_13  and  N_14
REMARK    4  A    between atoms: N_14  and  C_15
REMARK    5  A    between atoms: C_15  and  C_16
REMARK    6  A    between atoms: C_19  and  C_20
REMARK                            x       y       z     vdW  Elec       q    Type
REMARK                         _______ _______ _______ _____ _____    ______ ____
ROOT
ATOM      1  N   UNL     1       4.919   4.819  19.642  0.00  0.00    +0.000 N 
ATOM      2  H   UNL     1       4.981   5.825  19.787  0.00  0.00    +0.000 HD
ENDROOT
BRANCH   1   8
ATOM      3  C   UNL     1       2.812   5.212  18.306  0.00  0.00    +0.000 A 
ATOM      4  C   UNL     1       1.605   4.638  17.825  0.00  0.00    +0.000 A 
ATOM      5  C   UNL     1       1.227   3.341  18.147  0.00  0.00    +0.000 A 
ATOM      6  C   UNL     1       2.064   2.576  18.940  0.00  0.00    +0.000 A 
ATOM      7  C   UNL     1       3.265   3.118  19.407  0.00  0.00    +0.000 A 
ATOM      8  C   UNL     1       3.662   4.449  19.140  0.00  0.00    +0.000 A 
BRANCH   3   9
ATOM      9  C   UNL     1       3.023   6.659  17.918  0.00  0.00    +0.000 C 
BRANCH   9  15
ATOM     10  O   UNL     1       1.884   9.346  17.399  0.00  0.00    +0.000 OA
ATOM     11  C   UNL     1       1.790   8.781  18.471  0.00  0.00    +0.000 C 
ATOM     12  N   UNL     1       1.152   9.297  19.594  0.00  0.00    +0.000 N 
ATOM     13  C   UNL     1       1.464   8.492  20.745  0.00  0.00    +0.000 C 
ATOM     14  C   UNL     1       1.819   7.152  20.128  0.00  0.00    +0.000 C 
ATOM     15  N   UNL     1       2.331   7.553  18.833  0.00  0.00    +0.000 N 
ATOM     16  H   UNL     1       0.900  10.275  19.604  0.00  0.00    +0.000 HD
ENDBRANCH   9  15
ENDBRANCH   3   9
ENDBRANCH   1   8
BRANCH   1  17
ATOM     17  C   UNL     1       6.184   4.333  19.069  0.00  0.00    +0.000 C 
BRANCH  17  18
ATOM     18  C   UNL     1       6.643   5.001  17.807  0.00  0.00    +0.000 A 
ATOM     19  N   UNL     1       7.274   6.148  17.666  0.00  0.00    +0.000 NA
ATOM     20  N   UNL     1       7.489   6.316  16.318  0.00  0.00    +0.000 NA
ATOM     21  C   UNL     1       6.984   5.257  15.720  0.00  0.00    +0.000 A 
ATOM     22  O   UNL     1       6.428   4.363  16.607  0.00  0.00    +0.000 OA
BRANCH  21  23
ATOM     23  C   UNL     1       6.988   4.908  14.305  0.00  0.00    +0.000 A 
ATOM     24  C   UNL     1       7.833   5.605  13.424  0.00  0.00    +0.000 A 
ATOM     25  C   UNL     1       7.905   5.259  12.071  0.00  0.00    +0.000 A 
ATOM     26  C   UNL     1       7.128   4.211  11.582  0.00  0.00    +0.000 A 
ATOM     27  C   UNL     1       6.273   3.528  12.443  0.00  0.00    +0.000 A 
ATOM     28 CL   UNL     1       5.315   2.232  11.840  0.00  0.00    +0.000 Cl
ATOM     29  C   UNL     1       6.194   3.872  13.794  0.00  0.00    +0.000 A 
ENDBRANCH  21  23
ENDBRANCH  17  18
ENDBRANCH   1  17
TORSDOF 6
ENDMDL
MODEL 9
REMARK VINA RESULT:      -8.2      1.262      1.549
REMARK  Name = 
REMARK  6 active torsions:
REMARK  status: ('A' for Active; 'I' for Inactive)
REMARK    1  A    between atoms: N_6  and  C_7
REMARK    2  A    between atoms: C_7  and  C_8
REMARK    3  A    between atoms: C_13  and  N_14
REMARK    4  A    between atoms: N_14  and  C_15
REMARK    5  A    between atoms: C_15  and  C_16
REMARK    6  A    between atoms: C_19  and  C_20
REMARK                            x       y       z     vdW  Elec       q    Type
REMARK                         _______ _______ _______ _____ _____    ______ ____
ROOT
ATOM      1  N   UNL     1       1.959   5.683  18.124  0.00  0.00    +0.000 N 
ATOM      2  H   UNL     1       1.595   5.899  17.198  0.00  0.00    +0.000 HD
ENDROOT
BRANCH   1   8
ATOM      3  C   UNL     1       3.397   3.693  17.532  0.00  0.00    +0.000 A 
ATOM      4  C   UNL     1       3.697   2.336  17.825  0.00  0.00    +0.000 A 
ATOM      5  C   UNL     1       2.988   1.613  18.776  0.00  0.00    +0.000 A 
ATOM      6  C   UNL     1       1.976   2.242  19.478  0.00  0.00    +0.000 A 
ATOM      7  C   UNL     1       1.679   3.583  19.217  0.00  0.00    +0.000 A 
ATOM      8  C   UNL     1       2.345   4.338  18.224  0.00  0.00    +0.000 A 
BRANCH   3   9
ATOM      9  C   UNL     1       4.219   4.296  16.415  0.00  0.00    +0.000 C 
BRANCH   9  15
ATOM     10  O   UNL     1       6.683   4.006  14.792  0.00  0.00    +0.000 OA
ATOM     11  C   UNL     1       6.692   4.352  15.957  0.00  0.00    +0.000 C 
ATOM     12  N   UNL     1       7.833   4.654  16.692  0.00  0.00    +0.000 N 
ATOM     13  C   UNL     1       7.501   4.757  18.088  0.00  0.00    +0.000 C 
ATOM     14  C   UNL     1       6.021   5.095  18.054  0.00  0.00    +0.000 C 
ATOM     15  N   UNL     1       5.606   4.465  16.817  0.00  0.00    +0.000 N 
ATOM     16  H   UNL     1       8.736   4.403  16.314  0.00  0.00    +0.000 HD
ENDBRANCH   9  15
ENDBRANCH   3   9
ENDBRANCH   1   8
BRANCH   1  17
ATOM     17  C   UNL     1       2.808   6.795  18.581  0.00  0.00    +0.000 C 
BRANCH  17  18
ATOM     18  C   UNL     1       2.127   8.118  18.772  0.00  0.00    +0.000 A 
ATOM     19  N   UNL     1       2.049   9.131  17.935  0.00  0.00    +0.000 NA
ATOM     20  N   UNL     1       1.308  10.105  18.563  0.00  0.00    +0.000 NA
ATOM     21  C   UNL     1       0.973   9.623  19.742  0.00  0.00    +0.000 A 
ATOM     22  O   UNL     1       1.456   8.351  19.951  0.00  0.00    +0.000 OA
BRANCH  21  23
ATOM     23  C   UNL     1       0.150  10.224  20.784  0.00  0.00    +0.000 A 
ATOM     24  C   UNL     1       0.046   9.591  22.035  0.00  0.00    +0.000 A 
ATOM     25  C   UNL     1      -0.688  10.168  23.075  0.00  0.00    +0.000 A 
ATOM     26  C   UNL     1      -1.332  11.387  22.875  0.00  0.00    +0.000 A 
ATOM     27  C   UNL     1      -1.252  12.012  21.632  0.00  0.00    +0.000 A 
ATOM     28 CL   UNL     1      -2.045  13.520  21.386  0.00  0.00    +0.000 Cl
ATOM     29  C   UNL     1      -0.523  11.438  20.589  0.00  0.00    +0.000 A 
ENDBRANCH  21  23
ENDBRANCH  17  18
ENDBRANCH   1  17
TORSDOF 6
ENDMDL
