MODEL 1
REMARK VINA RESULT:      -9.1      0.000      0.000
REMARK  Name = 
REMARK  5 active torsions:
REMARK  status: ('A' for Active; 'I' for Inactive)
REMARK    1  A    between atoms: C_1  and  C_2
REMARK    2  A    between atoms: C_5  and  N_6
REMARK    3  A    between atoms: C_7  and  C_9
REMARK    4  A    between atoms: C_21  and  S_22
REMARK    5  A    between atoms: S_22  and  N_25
REMARK                            x       y       z     vdW  Elec       q    Type
REMARK                         _______ _______ _______ _____ _____    ______ ____
ROOT
ATOM      1  C   UNL     1       6.032   5.708  16.594  0.00  0.00    +0.000 C 
ATOM      2  C   UNL     1       4.672   6.055  17.116  0.00  0.00    +0.000 A 
ATOM      3  C   UNL     1       4.212   7.328  16.764  0.00  0.00    +0.000 A 
ATOM      4  C   UNL     1       3.212   7.952  17.492  0.00  0.00    +0.000 A 
ATOM      5  C   UNL     1       2.629   7.331  18.593  0.00  0.00    +0.000 A 
ATOM      6  C   UNL     1       2.988   5.999  18.876  0.00  0.00    +0.000 A 
ATOM      7  C   UNL     1       3.978   5.334  18.102  0.00  0.00    +0.000 A 
ENDROOT
BRANCH   5   8
ATOM      8  N   UNL     1       1.746   8.044  19.450  0.00  0.00    +0.000 N 
ATOM      9  C   UNL     1       1.247   9.315  19.193  0.00  0.00    +0.000 C 
ATOM     10  O   UNL     1       1.394   9.952  18.152  0.00  0.00    +0.000 OA
ATOM     11  H   UNL     1       1.470   7.598  20.318  0.00  0.00    +0.000 HD
BRANCH   9  12
ATOM     12  C   UNL     1       0.418   9.902  20.293  0.00  0.00    +0.000 A 
ATOM     13  C   UNL     1       0.712   9.493  21.537  0.00  0.00    +0.000 A 
ATOM     14  C   UNL     1       0.003  10.083  22.676  0.00  0.00    +0.000 A 
ATOM     15  O   UNL     1       0.231   9.725  23.823  0.00  0.00    +0.000 OA
ATOM     16  C   UNL     1      -0.971  11.134  22.352  0.00  0.00    +0.000 A 
ATOM     17  C   UNL     1      -1.630  11.827  23.370  0.00  0.00    +0.000 A 
ATOM     18  C   UNL     1      -2.536  12.831  23.037  0.00  0.00    +0.000 A 
ATOM     19  C   UNL     1      -2.789  13.128  21.694  0.00  0.00    +0.000 A 
ATOM     20  C   UNL     1      -2.130  12.431  20.680  0.00  0.00    +0.000 A 
ATOM     21  C   UNL     1      -1.211  11.440  21.012  0.00  0.00    +0.000 A 
ATOM     22  O   UNL     1      -0.563  10.821  19.973  0.00  0.00    +0.000 OA
ENDBRANCH   9  12
ENDBRANCH   5   8
BRANCH   7  23
ATOM     23  S   UNL     1       4.451   3.656  18.569  0.00  0.00    +0.000 S 
ATOM     24  O   UNL     1       4.626   2.921  17.333  0.00  0.00    +0.000 OA
ATOM     25  O   UNL     1       5.550   3.790  19.499  0.00  0.00    +0.000 OA
BRANCH  23  26
ATOM     26  N   UNL     1       3.185   2.964  19.423  0.00  0.00    +0.000 NA
ATOM     27  C   UNL     1       1.863   2.632  18.855  0.00  0.00    +0.000 C 
ATOM     28  C   UNL     1       0.766   3.436  19.575  0.00  0.00    +0.000 C 
ATOM     29  O   UNL     1       0.822   3.268  21.001  0.00  0.00    +0.000 OA
ATOM     30  C   UNL     1       2.118   3.594  21.533  0.00  0.00    +0.000 C 
ATOM     31  C   UNL     1       3.216   2.749  20.881  0.00  0.00    +0.000 C 
ENDBRANCH  23  26
ENDBRANCH   7  23
TORSDOF 4
ENDMDL
MODEL 2
REMARK VINA RESULT:      -9.0      3.193      9.057
REMARK  Name = 
REMARK  5 active torsions:
REMARK  status: ('A' for Active; 'I' for Inactive)
REMARK    1  A    between atoms: C_1  and  C_2
REMARK    2  A    between atoms: C_5  and  N_6
REMARK    3  A    between atoms: C_7  and  C_9
REMARK    4  A    between atoms: C_21  and  S_22
REMARK    5  A    between atoms: S_22  and  N_25
REMARK                            x       y       z     vdW  Elec       q    Type
REMARK                         _______ _______ _______ _____ _____    ______ ____
ROOT
ATOM      1  C   UNL     1      -1.084  12.554  22.496  0.00  0.00    +0.000 C 
ATOM      2  C   UNL     1      -0.804  11.242  21.832  0.00  0.00    +0.000 A 
ATOM      3  C   UNL     1      -0.101  10.321  22.617  0.00  0.00    +0.000 A 
ATOM      4  C   UNL     1       0.593   9.273  22.036  0.00  0.00    +0.000 A 
ATOM      5  C   UNL     1       0.609   9.096  20.656  0.00  0.00    +0.000 A 
ATOM      6  C   UNL     1      -0.202   9.935  19.867  0.00  0.00    +0.000 A 
ATOM      7  C   UNL     1      -0.958  10.983  20.460  0.00  0.00    +0.000 A 
ENDROOT
BRANCH   5   8
ATOM      8  N   UNL     1       1.474   8.142  20.052  0.00  0.00    +0.000 N 
ATOM      9  C   UNL     1       2.048   8.280  18.794  0.00  0.00    +0.000 C 
ATOM     10  O   UNL     1       1.992   9.278  18.079  0.00  0.00    +0.000 OA
ATOM     11  H   UNL     1       1.677   7.296  20.571  0.00  0.00    +0.000 HD
BRANCH   9  12
ATOM     12  C   UNL     1       2.839   7.096  18.329  0.00  0.00    +0.000 A 
ATOM     13  C   UNL     1       2.490   5.910  18.852  0.00  0.00    +0.000 A 
ATOM     14  C   UNL     1       3.160   4.693  18.386  0.00  0.00    +0.000 A 
ATOM     15  O   UNL     1       2.881   3.596  18.849  0.00  0.00    +0.000 OA
ATOM     16  C   UNL     1       4.159   4.874  17.325  0.00  0.00    +0.000 A 
ATOM     17  C   UNL     1       4.785   3.769  16.744  0.00  0.00    +0.000 A 
ATOM     18  C   UNL     1       5.716   3.967  15.727  0.00  0.00    +0.000 A 
ATOM     19  C   UNL     1       6.026   5.264  15.306  0.00  0.00    +0.000 A 
ATOM     20  C   UNL     1       5.400   6.366  15.891  0.00  0.00    +0.000 A 
ATOM     21  C   UNL     1       4.456   6.168  16.894  0.00  0.00    +0.000 A 
ATOM     22  O   UNL     1       3.843   7.287  17.400  0.00  0.00    +0.000 OA
ENDBRANCH   9  12
ENDBRANCH   5   8
BRANCH   7  23
ATOM     23  S   UNL     1      -1.913  12.071  19.383  0.00  0.00    +0.000 S 
ATOM     24  O   UNL     1      -2.865  12.757  20.233  0.00  0.00    +0.000 OA
ATOM     25  O   UNL     1      -0.947  12.826  18.614  0.00  0.00    +0.000 OA
BRANCH  23  26
ATOM     26  N   UNL     1      -2.761  11.127  18.288  0.00  0.00    +0.000 NA
ATOM     27  C   UNL     1      -2.149  10.342  17.197  0.00  0.00    +0.000 C 
ATOM     28  C   UNL     1      -2.661  10.847  15.837  0.00  0.00    +0.000 C 
ATOM     29  O   UNL     1      -4.096  10.870  15.775  0.00  0.00    +0.000 OA
ATOM     30  C   UNL     1      -4.671  11.638  16.846  0.00  0.00    +0.000 C 
ATOM     31  C   UNL     1      -4.233  11.103  18.212  0.00  0.00    +0.000 C 
ENDBRANCH  23  26
ENDBRANCH   7  23
TORSDOF 4
ENDMDL
MODEL 3
REMARK VINA RESULT:      -8.8      3.203      9.061
REMARK  Name = 
REMARK  5 active torsions:
REMARK  status: ('A' for Active; 'I' for Inactive)
REMARK    1  A    between atoms: C_1  and  C_2
REMARK    2  A    between atoms: C_5  and  N_6
REMARK    3  A    between atoms: C_7  and  C_9
REMARK    4  A    between atoms: C_21  and  S_22
REMARK    5  A    between atoms: S_22  and  N_25
REMARK                            x       y       z     vdW  Elec       q    Type
REMARK                         _______ _______ _______ _____ _____    ______ ____
ROOT
ATOM      1  C   UNL     1      -0.642  12.367  22.236  0.00  0.00    +0.000 C 
ATOM      2  C   UNL     1      -0.376  11.080  21.519  0.00  0.00    +0.000 A 
ATOM      3  C   UNL     1       0.375  10.146  22.241  0.00  0.00    +0.000 A 
ATOM      4  C   UNL     1       1.054   9.126  21.596  0.00  0.00    +0.000 A 
ATOM      5  C   UNL     1       1.008   8.992  20.212  0.00  0.00    +0.000 A 
ATOM      6  C   UNL     1       0.150   9.842  19.488  0.00  0.00    +0.000 A 
ATOM      7  C   UNL     1      -0.591  10.861  20.148  0.00  0.00    +0.000 A 
ENDROOT
BRANCH   5   8
ATOM      8  N   UNL     1       1.856   8.070  19.539  0.00  0.00    +0.000 N 
ATOM      9  C   UNL     1       2.108   6.772  19.964  0.00  0.00    +0.000 C 
ATOM     10  O   UNL     1       1.557   6.198  20.900  0.00  0.00    +0.000 OA
ATOM     11  H   UNL     1       2.317   8.385  18.693  0.00  0.00    +0.000 HD
BRANCH   9  12
ATOM     12  C   UNL     1       3.117   6.025  19.147  0.00  0.00    +0.000 A 
ATOM     13  C   UNL     1       3.410   4.782  19.561  0.00  0.00    +0.000 A 
ATOM     14  C   UNL     1       4.325   3.956  18.768  0.00  0.00    +0.000 A 
ATOM     15  O   UNL     1       4.629   2.825  19.121  0.00  0.00    +0.000 OA
ATOM     16  C   UNL     1       4.826   4.561  17.528  0.00  0.00    +0.000 A 
ATOM     17  C   UNL     1       5.626   3.822  16.652  0.00  0.00    +0.000 A 
ATOM     18  C   UNL     1       6.074   4.414  15.473  0.00  0.00    +0.000 A 
ATOM     19  C   UNL     1       5.734   5.738  15.182  0.00  0.00    +0.000 A 
ATOM     20  C   UNL     1       4.937   6.473  16.061  0.00  0.00    +0.000 A 
ATOM     21  C   UNL     1       4.473   5.878  17.229  0.00  0.00    +0.000 A 
ATOM     22  O   UNL     1       3.658   6.636  18.032  0.00  0.00    +0.000 OA
ENDBRANCH   9  12
ENDBRANCH   5   8
BRANCH   7  23
ATOM     23  S   UNL     1      -1.609  11.968  19.151  0.00  0.00    +0.000 S 
ATOM     24  O   UNL     1      -2.461  12.686  20.077  0.00  0.00    +0.000 OA
ATOM     25  O   UNL     1      -0.697  12.689  18.290  0.00  0.00    +0.000 OA
BRANCH  23  26
ATOM     26  N   UNL     1      -2.580  11.040  18.147  0.00  0.00    +0.000 NA
ATOM     27  C   UNL     1      -2.096  10.263  16.987  0.00  0.00    +0.000 C 
ATOM     28  C   UNL     1      -2.752  10.786  15.697  0.00  0.00    +0.000 C 
ATOM     29  O   UNL     1      -4.185  10.817  15.794  0.00  0.00    +0.000 OA
ATOM     30  C   UNL     1      -4.634  11.576  16.930  0.00  0.00    +0.000 C 
ATOM     31  C   UNL     1      -4.051  11.023  18.233  0.00  0.00    +0.000 C 
ENDBRANCH  23  26
ENDBRANCH   7  23
TORSDOF 4
ENDMDL
MODEL 4
REMARK VINA RESULT:      -8.6      2.752      4.743
REMARK  Name = 
REMARK  5 active torsions:
REMARK  status: ('A' for Active; 'I' for Inactive)
REMARK    1  A    between atoms: C_1  and  C_2
REMARK    2  A    between atoms: C_5  and  N_6
REMARK    3  A    between atoms: C_7  and  C_9
REMARK    4  A    between atoms: C_21  and  S_22
REMARK    5  A    between atoms: S_22  and  N_25
REMARK                            x       y       z     vdW  Elec       q    Type
REMARK                         _______ _______ _______ _____ _____    ______ ____
ROOT
ATOM      1  C   UNL     1       2.124   2.766  19.944  0.00  0.00    +0.000 C 
ATOM      2  C   UNL     1       2.386   4.233  20.087  0.00  0.00    +0.000 A 
ATOM      3  C   UNL     1       1.506   4.910  20.938  0.00  0.00    +0.000 A 
ATOM      4  C   UNL     1       1.341   6.282  20.847  0.00  0.00    +0.000 A 
ATOM      5  C   UNL     1       2.046   7.033  19.911  0.00  0.00    +0.000 A 
ATOM      6  C   UNL     1       3.031   6.384  19.142  0.00  0.00    +0.000 A 
ATOM      7  C   UNL     1       3.244   4.983  19.264  0.00  0.00    +0.000 A 
ENDROOT
BRANCH   5   8
ATOM      8  N   UNL     1       1.735   8.403  19.688  0.00  0.00    +0.000 N 
ATOM      9  C   UNL     1       1.512   8.970  18.440  0.00  0.00    +0.000 C 
ATOM     10  O   UNL     1       1.435   8.365  17.374  0.00  0.00    +0.000 OA
ATOM     11  H   UNL     1       1.681   9.011  20.498  0.00  0.00    +0.000 HD
BRANCH   9  12
ATOM     12  C   UNL     1       1.303  10.453  18.450  0.00  0.00    +0.000 A 
ATOM     13  C   UNL     1       0.057  10.873  18.722  0.00  0.00    +0.000 A 
ATOM     14  C   UNL     1      -0.211  12.309  18.832  0.00  0.00    +0.000 A 
ATOM     15  O   UNL     1      -1.336  12.731  19.063  0.00  0.00    +0.000 OA
ATOM     16  C   UNL     1       0.949  13.194  18.672  0.00  0.00    +0.000 A 
ATOM     17  C   UNL     1       0.820  14.573  18.854  0.00  0.00    +0.000 A 
ATOM     18  C   UNL     1       1.940  15.389  18.713  0.00  0.00    +0.000 A 
ATOM     19  C   UNL     1       3.176  14.828  18.380  0.00  0.00    +0.000 A 
ATOM     20  C   UNL     1       3.300  13.450  18.196  0.00  0.00    +0.000 A 
ATOM     21  C   UNL     1       2.186  12.632  18.354  0.00  0.00    +0.000 A 
ATOM     22  O   UNL     1       2.380  11.282  18.204  0.00  0.00    +0.000 OA
ENDBRANCH   9  12
ENDBRANCH   5   8
BRANCH   7  23
ATOM     23  S   UNL     1       4.465   4.201  18.190  0.00  0.00    +0.000 S 
ATOM     24  O   UNL     1       5.437   3.574  19.063  0.00  0.00    +0.000 OA
ATOM     25  O   UNL     1       3.716   3.405  17.242  0.00  0.00    +0.000 OA
BRANCH  23  26
ATOM     26  N   UNL     1       5.238   5.395  17.304  0.00  0.00    +0.000 NA
ATOM     27  C   UNL     1       5.336   5.424  15.831  0.00  0.00    +0.000 C 
ATOM     28  C   UNL     1       6.814   5.362  15.403  0.00  0.00    +0.000 C 
ATOM     29  O   UNL     1       7.603   6.381  16.038  0.00  0.00    +0.000 OA
ATOM     30  C   UNL     1       7.491   6.336  17.471  0.00  0.00    +0.000 C 
ATOM     31  C   UNL     1       6.034   6.472  17.920  0.00  0.00    +0.000 C 
ENDBRANCH  23  26
ENDBRANCH   7  23
TORSDOF 4
ENDMDL
MODEL 5
REMARK VINA RESULT:      -8.5      3.275      8.993
REMARK  Name = 
REMARK  5 active torsions:
REMARK  status: ('A' for Active; 'I' for Inactive)
REMARK    1  A    between atoms: C_1  and  C_2
REMARK    2  A    between atoms: C_5  and  N_6
REMARK    3  A    between atoms: C_7  and  C_9
REMARK    4  A    between atoms: C_21  and  S_22
REMARK    5  A    between atoms: S_22  and  N_25
REMARK                            x       y       z     vdW  Elec       q    Type
REMARK                         _______ _______ _______ _____ _____    ______ ____
ROOT
ATOM      1  C   UNL     1      -0.478  13.019  21.918  0.00  0.00    +0.000 C 
ATOM      2  C   UNL     1      -0.400  11.602  21.441  0.00  0.00    +0.000 A 
ATOM      3  C   UNL     1       0.341  10.743  22.261  0.00  0.00    +0.000 A 
ATOM      4  C   UNL     1       0.860   9.558  21.766  0.00  0.00    +0.000 A 
ATOM      5  C   UNL     1       0.657   9.179  20.442  0.00  0.00    +0.000 A 
ATOM      6  C   UNL     1      -0.197   9.967  19.647  0.00  0.00    +0.000 A 
ATOM      7  C   UNL     1      -0.775  11.160  20.162  0.00  0.00    +0.000 A 
ENDROOT
BRANCH   5   8
ATOM      8  N   UNL     1       1.348   8.067  19.887  0.00  0.00    +0.000 N 
ATOM      9  C   UNL     1       2.042   8.087  18.684  0.00  0.00    +0.000 C 
ATOM     10  O   UNL     1       2.260   9.078  17.991  0.00  0.00    +0.000 OA
ATOM     11  H   UNL     1       1.323   7.193  20.400  0.00  0.00    +0.000 HD
BRANCH   9  12
ATOM     12  C   UNL     1       2.600   6.765  18.256  0.00  0.00    +0.000 A 
ATOM     13  C   UNL     1       3.798   6.798  17.650  0.00  0.00    +0.000 A 
ATOM     14  C   UNL     1       4.450   5.540  17.276  0.00  0.00    +0.000 A 
ATOM     15  O   UNL     1       5.534   5.529  16.709  0.00  0.00    +0.000 OA
ATOM     16  C   UNL     1       3.735   4.311  17.642  0.00  0.00    +0.000 A 
ATOM     17  C   UNL     1       4.315   3.060  17.418  0.00  0.00    +0.000 A 
ATOM     18  C   UNL     1       3.623   1.910  17.791  0.00  0.00    +0.000 A 
ATOM     19  C   UNL     1       2.355   2.013  18.372  0.00  0.00    +0.000 A 
ATOM     20  C   UNL     1       1.779   3.265  18.592  0.00  0.00    +0.000 A 
ATOM     21  C   UNL     1       2.477   4.415  18.237  0.00  0.00    +0.000 A 
ATOM     22  O   UNL     1       1.878   5.617  18.518  0.00  0.00    +0.000 OA
ENDBRANCH   9  12
ENDBRANCH   5   8
BRANCH   7  23
ATOM     23  S   UNL     1      -1.795  12.166  19.064  0.00  0.00    +0.000 S 
ATOM     24  O   UNL     1      -2.700  12.912  19.914  0.00  0.00    +0.000 OA
ATOM     25  O   UNL     1      -0.878  12.861  18.187  0.00  0.00    +0.000 OA
BRANCH  23  26
ATOM     26  N   UNL     1      -2.701  11.143  18.092  0.00  0.00    +0.000 NA
ATOM     27  C   UNL     1      -2.145  10.257  17.049  0.00  0.00    +0.000 C 
ATOM     28  C   UNL     1      -2.710  10.650  15.672  0.00  0.00    +0.000 C 
ATOM     29  O   UNL     1      -4.147  10.689  15.670  0.00  0.00    +0.000 OA
ATOM     30  C   UNL     1      -4.666  11.555  16.694  0.00  0.00    +0.000 C 
ATOM     31  C   UNL     1      -4.174  11.133  18.081  0.00  0.00    +0.000 C 
ENDBRANCH  23  26
ENDBRANCH   7  23
TORSDOF 4
ENDMDL
MODEL 6
REMARK VINA RESULT:      -8.5      2.407      4.465
REMARK  Name = 
REMARK  5 active torsions:
REMARK  status: ('A' for Active; 'I' for Inactive)
REMARK    1  A    between atoms: C_1  and  C_2
REMARK    2  A    between atoms: C_5  and  N_6
REMARK    3  A    between atoms: C_7  and  C_9
REMARK    4  A    between atoms: C_21  and  S_22
REMARK    5  A    between atoms: S_22  and  N_25
REMARK                            x       y       z     vdW  Elec       q    Type
REMARK                         _______ _______ _______ _____ _____    ______ ____
ROOT
ATOM      1  C   UNL     1       2.241   2.519  19.934  0.00  0.00    +0.000 C 
ATOM      2  C   UNL     1       2.456   3.994  20.070  0.00  0.00    +0.000 A 
ATOM      3  C   UNL     1       1.498   4.662  20.841  0.00  0.00    +0.000 A 
ATOM      4  C   UNL     1       1.307   6.028  20.713  0.00  0.00    +0.000 A 
ATOM      5  C   UNL     1       2.063   6.781  19.820  0.00  0.00    +0.000 A 
ATOM      6  C   UNL     1       3.119   6.145  19.139  0.00  0.00    +0.000 A 
ATOM      7  C   UNL     1       3.355   4.752  19.302  0.00  0.00    +0.000 A 
ENDROOT
BRANCH   5   8
ATOM      8  N   UNL     1       1.736   8.139  19.551  0.00  0.00    +0.000 N 
ATOM      9  C   UNL     1       1.139   9.004  20.458  0.00  0.00    +0.000 C 
ATOM     10  O   UNL     1       0.916   8.767  21.643  0.00  0.00    +0.000 OA
ATOM     11  H   UNL     1       1.944   8.498  18.625  0.00  0.00    +0.000 HD
BRANCH   9  12
ATOM     12  C   UNL     1       0.797  10.355  19.910  0.00  0.00    +0.000 A 
ATOM     13  C   UNL     1      -0.250  10.405  19.072  0.00  0.00    +0.000 A 
ATOM     14  C   UNL     1      -0.700  11.702  18.558  0.00  0.00    +0.000 A 
ATOM     15  O   UNL     1      -1.640  11.787  17.780  0.00  0.00    +0.000 OA
ATOM     16  C   UNL     1       0.030  12.877  19.051  0.00  0.00    +0.000 A 
ATOM     17  C   UNL     1      -0.380  14.165  18.699  0.00  0.00    +0.000 A 
ATOM     18  C   UNL     1       0.319  15.264  19.193  0.00  0.00    +0.000 A 
ATOM     19  C   UNL     1       1.428  15.071  20.024  0.00  0.00    +0.000 A 
ATOM     20  C   UNL     1       1.835  13.782  20.371  0.00  0.00    +0.000 A 
ATOM     21  C   UNL     1       1.127  12.685  19.892  0.00  0.00    +0.000 A 
ATOM     22  O   UNL     1       1.549  11.446  20.304  0.00  0.00    +0.000 OA
ENDBRANCH   9  12
ENDBRANCH   5   8
BRANCH   7  23
ATOM     23  S   UNL     1       4.673   3.985  18.338  0.00  0.00    +0.000 S 
ATOM     24  O   UNL     1       5.702   3.601  19.282  0.00  0.00    +0.000 OA
ATOM     25  O   UNL     1       4.036   2.985  17.508  0.00  0.00    +0.000 OA
BRANCH  23  26
ATOM     26  N   UNL     1       5.309   5.133  17.295  0.00  0.00    +0.000 NA
ATOM     27  C   UNL     1       5.367   5.000  15.825  0.00  0.00    +0.000 C 
ATOM     28  C   UNL     1       6.832   5.021  15.354  0.00  0.00    +0.000 C 
ATOM     29  O   UNL     1       7.539   6.174  15.842  0.00  0.00    +0.000 OA
ATOM     30  C   UNL     1       7.468   6.285  17.274  0.00  0.00    +0.000 C 
ATOM     31  C   UNL     1       6.016   6.341  17.757  0.00  0.00    +0.000 C 
ENDBRANCH  23  26
ENDBRANCH   7  23
TORSDOF 4
ENDMDL
MODEL 7
REMARK VINA RESULT:      -8.5      3.137      9.502
REMARK  Name = 
REMARK  5 active torsions:
REMARK  status: ('A' for Active; 'I' for Inactive)
REMARK    1  A    between atoms: C_1  and  C_2
REMARK    2  A    between atoms: C_5  and  N_6
REMARK    3  A    between atoms: C_7  and  C_9
REMARK    4  A    between atoms: C_21  and  S_22
REMARK    5  A    between atoms: S_22  and  N_25
REMARK                            x       y       z     vdW  Elec       q    Type
REMARK                         _______ _______ _______ _____ _____    ______ ____
ROOT
ATOM      1  C   UNL     1      -0.939  12.266  22.798  0.00  0.00    +0.000 C 
ATOM      2  C   UNL     1      -0.662  11.062  21.952  0.00  0.00    +0.000 A 
ATOM      3  C   UNL     1      -0.175   9.951  22.648  0.00  0.00    +0.000 A 
ATOM      4  C   UNL     1       0.517   8.946  21.991  0.00  0.00    +0.000 A 
ATOM      5  C   UNL     1       0.745   9.005  20.620  0.00  0.00    +0.000 A 
ATOM      6  C   UNL     1       0.145  10.049  19.889  0.00  0.00    +0.000 A 
ATOM      7  C   UNL     1      -0.610  11.058  20.548  0.00  0.00    +0.000 A 
ENDROOT
BRANCH   5   8
ATOM      8  N   UNL     1       1.616   8.078  19.983  0.00  0.00    +0.000 N 
ATOM      9  C   UNL     1       2.038   8.168  18.663  0.00  0.00    +0.000 C 
ATOM     10  O   UNL     1       1.823   9.104  17.897  0.00  0.00    +0.000 OA
ATOM     11  H   UNL     1       1.944   7.289  20.529  0.00  0.00    +0.000 HD
BRANCH   9  12
ATOM     12  C   UNL     1       2.870   7.017  18.188  0.00  0.00    +0.000 A 
ATOM     13  C   UNL     1       2.277   5.813  18.202  0.00  0.00    +0.000 A 
ATOM     14  C   UNL     1       2.996   4.649  17.675  0.00  0.00    +0.000 A 
ATOM     15  O   UNL     1       2.495   3.534  17.685  0.00  0.00    +0.000 OA
ATOM     16  C   UNL     1       4.329   4.915  17.121  0.00  0.00    +0.000 A 
ATOM     17  C   UNL     1       5.057   3.893  16.506  0.00  0.00    +0.000 A 
ATOM     18  C   UNL     1       6.313   4.175  15.973  0.00  0.00    +0.000 A 
ATOM     19  C   UNL     1       6.839   5.467  16.067  0.00  0.00    +0.000 A 
ATOM     20  C   UNL     1       6.109   6.484  16.685  0.00  0.00    +0.000 A 
ATOM     21  C   UNL     1       4.847   6.208  17.201  0.00  0.00    +0.000 A 
ATOM     22  O   UNL     1       4.160   7.258  17.756  0.00  0.00    +0.000 OA
ENDBRANCH   9  12
ENDBRANCH   5   8
BRANCH   7  23
ATOM     23  S   UNL     1      -1.283  12.411  19.562  0.00  0.00    +0.000 S 
ATOM     24  O   UNL     1      -1.140  12.018  18.175  0.00  0.00    +0.000 OA
ATOM     25  O   UNL     1      -2.593  12.695  20.108  0.00  0.00    +0.000 OA
BRANCH  23  26
ATOM     26  N   UNL     1      -0.350  13.779  19.826  0.00  0.00    +0.000 NA
ATOM     27  C   UNL     1      -0.873  15.158  19.894  0.00  0.00    +0.000 C 
ATOM     28  C   UNL     1      -0.253  16.010  18.773  0.00  0.00    +0.000 C 
ATOM     29  O   UNL     1       1.183  15.953  18.783  0.00  0.00    +0.000 OA
ATOM     30  C   UNL     1       1.671  14.602  18.719  0.00  0.00    +0.000 C 
ATOM     31  C   UNL     1       1.123  13.757  19.872  0.00  0.00    +0.000 C 
ENDBRANCH  23  26
ENDBRANCH   7  23
TORSDOF 4
ENDMDL
MODEL 8
REMARK VINA RESULT:      -8.4      3.913      9.545
REMARK  Name = 
REMARK  5 active torsions:
REMARK  status: ('A' for Active; 'I' for Inactive)
REMARK    1  A    between atoms: C_1  and  C_2
REMARK    2  A    between atoms: C_5  and  N_6
REMARK    3  A    between atoms: C_7  and  C_9
REMARK    4  A    between atoms: C_21  and  S_22
REMARK    5  A    between atoms: S_22  and  N_25
REMARK                            x       y       z     vdW  Elec       q    Type
REMARK                         _______ _______ _______ _____ _____    ______ ____
ROOT
ATOM      1  C   UNL     1      -1.780  13.617  20.224  0.00  0.00    +0.000 C 
ATOM      2  C   UNL     1      -0.764  12.625  19.749  0.00  0.00    +0.000 A 
ATOM      3  C   UNL     1      -1.278  11.578  18.977  0.00  0.00    +0.000 A 
ATOM      4  C   UNL     1      -0.579  10.390  18.833  0.00  0.00    +0.000 A 
ATOM      5  C   UNL     1       0.657  10.202  19.444  0.00  0.00    +0.000 A 
ATOM      6  C   UNL     1       1.244  11.295  20.111  0.00  0.00    +0.000 A 
ATOM      7  C   UNL     1       0.556  12.534  20.222  0.00  0.00    +0.000 A 
ENDROOT
BRANCH   5   8
ATOM      8  N   UNL     1       1.279   8.923  19.455  0.00  0.00    +0.000 N 
ATOM      9  C   UNL     1       2.070   8.419  18.430  0.00  0.00    +0.000 C 
ATOM     10  O   UNL     1       2.440   9.035  17.433  0.00  0.00    +0.000 OA
ATOM     11  H   UNL     1       1.126   8.332  20.265  0.00  0.00    +0.000 HD
BRANCH   9  12
ATOM     12  C   UNL     1       2.530   7.007  18.624  0.00  0.00    +0.000 A 
ATOM     13  C   UNL     1       3.467   6.568  17.769  0.00  0.00    +0.000 A 
ATOM     14  C   UNL     1       4.029   5.226  17.945  0.00  0.00    +0.000 A 
ATOM     15  O   UNL     1       4.873   4.784  17.178  0.00  0.00    +0.000 OA
ATOM     16  C   UNL     1       3.534   4.467  19.101  0.00  0.00    +0.000 A 
ATOM     17  C   UNL     1       4.076   3.218  19.413  0.00  0.00    +0.000 A 
ATOM     18  C   UNL     1       3.601   2.526  20.525  0.00  0.00    +0.000 A 
ATOM     19  C   UNL     1       2.583   3.077  21.309  0.00  0.00    +0.000 A 
ATOM     20  C   UNL     1       2.043   4.325  20.991  0.00  0.00    +0.000 A 
ATOM     21  C   UNL     1       2.529   5.025  19.892  0.00  0.00    +0.000 A 
ATOM     22  O   UNL     1       1.990   6.265  19.657  0.00  0.00    +0.000 OA
ENDBRANCH   9  12
ENDBRANCH   5   8
BRANCH   7  23
ATOM     23  S   UNL     1       1.330  13.868  21.159  0.00  0.00    +0.000 S 
ATOM     24  O   UNL     1       0.530  14.046  22.354  0.00  0.00    +0.000 OA
ATOM     25  O   UNL     1       2.732  13.525  21.265  0.00  0.00    +0.000 OA
BRANCH  23  26
ATOM     26  N   UNL     1       1.250  15.275  20.251  0.00  0.00    +0.000 NA
ATOM     27  C   UNL     1       1.470  15.352  18.792  0.00  0.00    +0.000 C 
ATOM     28  C   UNL     1       2.679  16.256  18.493  0.00  0.00    +0.000 C 
ATOM     29  O   UNL     1       2.555  17.547  19.111  0.00  0.00    +0.000 OA
ATOM     30  C   UNL     1       2.339  17.448  20.530  0.00  0.00    +0.000 C 
ATOM     31  C   UNL     1       1.095  16.613  20.846  0.00  0.00    +0.000 C 
ENDBRANCH  23  26
ENDBRANCH   7  23
TORSDOF 4
ENDMDL
MODEL 9
REMARK VINA RESULT:      -8.4      2.976      9.298
REMARK  Name = 
REMARK  5 active torsions:
REMARK  status: ('A' for Active; 'I' for Inactive)
REMARK    1  A    between atoms: C_1  and  C_2
REMARK    2  A    between atoms: C_5  and  N_6
REMARK    3  A    between atoms: C_7  and  C_9
REMARK    4  A    between atoms: C_21  and  S_22
REMARK    5  A    between atoms: S_22  and  N_25
REMARK                            x       y       z     vdW  Elec       q    Type
REMARK                         _______ _______ _______ _____ _____    ______ ____
ROOT
ATOM      1  C   UNL     1      -0.960  11.960  22.664  0.00  0.00    +0.000 C 
ATOM      2  C   UNL     1      -0.577  10.775  21.834  0.00  0.00    +0.000 A 
ATOM      3  C   UNL     1       0.116   9.772  22.521  0.00  0.00    +0.000 A 
ATOM      4  C   UNL     1       0.894   8.850  21.841  0.00  0.00    +0.000 A 
ATOM      5  C   UNL     1       1.008   8.884  20.455  0.00  0.00    +0.000 A 
ATOM      6  C   UNL     1       0.212   9.803  19.744  0.00  0.00    +0.000 A 
ATOM      7  C   UNL     1      -0.629  10.721  20.431  0.00  0.00    +0.000 A 
ENDROOT
BRANCH   5   8
ATOM      8  N   UNL     1       1.953   8.065  19.779  0.00  0.00    +0.000 N 
ATOM      9  C   UNL     1       2.071   6.691  19.945  0.00  0.00    +0.000 C 
ATOM     10  O   UNL     1       1.316   5.974  20.598  0.00  0.00    +0.000 OA
ATOM     11  H   UNL     1       2.595   8.517  19.137  0.00  0.00    +0.000 HD
BRANCH   9  12
ATOM     12  C   UNL     1       3.210   6.061  19.204  0.00  0.00    +0.000 A 
ATOM     13  C   UNL     1       3.749   4.968  19.766  0.00  0.00    +0.000 A 
ATOM     14  C   UNL     1       4.812   4.245  19.061  0.00  0.00    +0.000 A 
ATOM     15  O   UNL     1       5.338   3.255  19.548  0.00  0.00    +0.000 OA
ATOM     16  C   UNL     1       5.180   4.770  17.740  0.00  0.00    +0.000 A 
ATOM     17  C   UNL     1       6.112   4.099  16.946  0.00  0.00    +0.000 A 
ATOM     18  C   UNL     1       6.431   4.609  15.689  0.00  0.00    +0.000 A 
ATOM     19  C   UNL     1       5.830   5.789  15.240  0.00  0.00    +0.000 A 
ATOM     20  C   UNL     1       4.901   6.457  16.038  0.00  0.00    +0.000 A 
ATOM     21  C   UNL     1       4.567   5.939  17.286  0.00  0.00    +0.000 A 
ATOM     22  O   UNL     1       3.616   6.617  18.006  0.00  0.00    +0.000 OA
ENDBRANCH   9  12
ENDBRANCH   5   8
BRANCH   7  23
ATOM     23  S   UNL     1      -1.561  11.925  19.462  0.00  0.00    +0.000 S 
ATOM     24  O   UNL     1      -1.771  11.328  18.159  0.00  0.00    +0.000 OA
ATOM     25  O   UNL     1      -2.692  12.310  20.279  0.00  0.00    +0.000 OA
BRANCH  23  26
ATOM     26  N   UNL     1      -0.621  13.300  19.272  0.00  0.00    +0.000 NA
ATOM     27  C   UNL     1       0.634  13.364  18.496  0.00  0.00    +0.000 C 
ATOM     28  C   UNL     1       1.803  13.745  19.421  0.00  0.00    +0.000 C 
ATOM     29  O   UNL     1       1.538  14.949  20.159  0.00  0.00    +0.000 OA
ATOM     30  C   UNL     1       0.311  14.865  20.906  0.00  0.00    +0.000 C 
ATOM     31  C   UNL     1      -0.878  14.561  19.990  0.00  0.00    +0.000 C 
ENDBRANCH  23  26
ENDBRANCH   7  23
TORSDOF 4
ENDMDL
