MODEL 1
REMARK VINA RESULT:      -8.1      0.000      0.000
REMARK  Name = 
REMARK  5 active torsions:
REMARK  status: ('A' for Active; 'I' for Inactive)
REMARK    1  A    between atoms: C_1  and  C_2
REMARK    2  A    between atoms: C_5  and  C_6
REMARK    3  A    between atoms: C_11  and  C_12
REMARK    4  A    between atoms: C_21  and  N_22
REMARK    5  A    between atoms: C_23  and  C_25
REMARK                            x       y       z     vdW  Elec       q    Type
REMARK                         _______ _______ _______ _____ _____    ______ ____
ROOT
ATOM      1  C   UNL     1      -0.496  13.901  18.546  0.00  0.00    +0.000 C 
ATOM      2  C   UNL     1      -0.126  12.484  18.902  0.00  0.00    +0.000 A 
ATOM      3  C   UNL     1       1.238  12.136  18.882  0.00  0.00    +0.000 A 
ATOM      4  C   UNL     1       1.667  10.885  19.331  0.00  0.00    +0.000 A 
ATOM      5  C   UNL     1       0.738   9.954  19.802  0.00  0.00    +0.000 A 
ATOM      6  C   UNL     1      -0.627  10.246  19.677  0.00  0.00    +0.000 A 
ATOM      7  C   UNL     1      -1.079  11.508  19.255  0.00  0.00    +0.000 A 
ENDROOT
BRANCH   5   8
ATOM      8  C   UNL     1       1.232   8.652  20.359  0.00  0.00    +0.000 C 
ATOM      9  O   UNL     1       0.999   8.421  21.546  0.00  0.00    +0.000 OA
ATOM     10  N   UNL     1       1.926   7.742  19.541  0.00  0.00    +0.000 N 
ATOM     11  C   UNL     1       2.450   6.510  20.142  0.00  0.00    +0.000 C 
ATOM     12  C   UNL     1       3.777   6.067  19.500  0.00  0.00    +0.000 C 
ATOM     13  C   UNL     1       3.690   6.048  17.960  0.00  0.00    +0.000 C 
ATOM     14  C   UNL     1       3.183   7.412  17.464  0.00  0.00    +0.000 C 
ATOM     15  C   UNL     1       1.814   7.685  18.082  0.00  0.00    +0.000 C 
BRANCH  13  16
ATOM     16  C   UNL     1       4.972   5.612  17.264  0.00  0.00    +0.000 A 
ATOM     17  C   UNL     1       5.122   5.852  15.887  0.00  0.00    +0.000 A 
ATOM     18  C   UNL     1       6.275   5.451  15.205  0.00  0.00    +0.000 A 
ATOM     19  C   UNL     1       7.303   4.811  15.891  0.00  0.00    +0.000 A 
ATOM     20  C   UNL     1       7.181   4.586  17.260  0.00  0.00    +0.000 A 
ATOM     21  C   UNL     1       6.028   4.988  17.944  0.00  0.00    +0.000 A 
ENDBRANCH  13  16
ENDBRANCH   5   8
BRANCH   7  22
ATOM     22  N   UNL     1      -2.467  11.827  19.175  0.00  0.00    +0.000 N 
ATOM     23  C   UNL     1      -3.400  11.284  18.299  0.00  0.00    +0.000 C 
ATOM     24  O   UNL     1      -3.187  10.399  17.476  0.00  0.00    +0.000 OA
ATOM     25  H   UNL     1      -2.786  12.560  19.793  0.00  0.00    +0.000 HD
BRANCH  23  26
ATOM     26  C   UNL     1      -4.783  11.845  18.358  0.00  0.00    +0.000 A 
ATOM     27  C   UNL     1      -5.352  12.299  17.158  0.00  0.00    +0.000 A 
ATOM     28  C   UNL     1      -6.648  12.821  17.137  0.00  0.00    +0.000 A 
ATOM     29  C   UNL     1      -7.390  12.880  18.314  0.00  0.00    +0.000 A 
ATOM     30  C   UNL     1      -6.841  12.411  19.509  0.00  0.00    +0.000 A 
ATOM     31  C   UNL     1      -5.541  11.891  19.534  0.00  0.00    +0.000 A 
ENDBRANCH  23  26
ENDBRANCH   7  22
TORSDOF 4
ENDMDL
MODEL 2
REMARK VINA RESULT:      -7.9      1.101      1.365
REMARK  Name = 
REMARK  5 active torsions:
REMARK  status: ('A' for Active; 'I' for Inactive)
REMARK    1  A    between atoms: C_1  and  C_2
REMARK    2  A    between atoms: C_5  and  C_6
REMARK    3  A    between atoms: C_11  and  C_12
REMARK    4  A    between atoms: C_21  and  N_22
REMARK    5  A    between atoms: C_23  and  C_25
REMARK                            x       y       z     vdW  Elec       q    Type
REMARK                         _______ _______ _______ _____ _____    ______ ____
ROOT
ATOM      1  C   UNL     1      -0.486  14.252  18.720  0.00  0.00    +0.000 C 
ATOM      2  C   UNL     1      -0.149  12.813  19.013  0.00  0.00    +0.000 A 
ATOM      3  C   UNL     1       1.208  12.480  19.194  0.00  0.00    +0.000 A 
ATOM      4  C   UNL     1       1.584  11.198  19.603  0.00  0.00    +0.000 A 
ATOM      5  C   UNL     1       0.611  10.221  19.830  0.00  0.00    +0.000 A 
ATOM      6  C   UNL     1      -0.721  10.512  19.502  0.00  0.00    +0.000 A 
ATOM      7  C   UNL     1      -1.125  11.802  19.117  0.00  0.00    +0.000 A 
ENDROOT
BRANCH   5   8
ATOM      8  C   UNL     1       1.034   8.880  20.351  0.00  0.00    +0.000 C 
ATOM      9  O   UNL     1       0.747   8.612  21.518  0.00  0.00    +0.000 OA
ATOM     10  N   UNL     1       1.725   7.977  19.523  0.00  0.00    +0.000 N 
ATOM     11  C   UNL     1       2.178   6.703  20.091  0.00  0.00    +0.000 C 
ATOM     12  C   UNL     1       3.512   6.235  19.481  0.00  0.00    +0.000 C 
ATOM     13  C   UNL     1       3.483   6.281  17.938  0.00  0.00    +0.000 C 
ATOM     14  C   UNL     1       3.047   7.682  17.482  0.00  0.00    +0.000 C 
ATOM     15  C   UNL     1       1.667   7.983  18.059  0.00  0.00    +0.000 C 
BRANCH  13  16
ATOM     16  C   UNL     1       4.774   5.823  17.273  0.00  0.00    +0.000 A 
ATOM     17  C   UNL     1       4.791   4.603  16.574  0.00  0.00    +0.000 A 
ATOM     18  C   UNL     1       5.959   4.136  15.964  0.00  0.00    +0.000 A 
ATOM     19  C   UNL     1       7.130   4.886  16.035  0.00  0.00    +0.000 A 
ATOM     20  C   UNL     1       7.125   6.108  16.703  0.00  0.00    +0.000 A 
ATOM     21  C   UNL     1       5.955   6.577  17.313  0.00  0.00    +0.000 A 
ENDBRANCH  13  16
ENDBRANCH   5   8
BRANCH   7  22
ATOM     22  N   UNL     1      -2.487  12.115  18.831  0.00  0.00    +0.000 N 
ATOM     23  C   UNL     1      -3.486  12.415  19.749  0.00  0.00    +0.000 C 
ATOM     24  O   UNL     1      -3.345  12.507  20.965  0.00  0.00    +0.000 OA
ATOM     25  H   UNL     1      -2.754  12.063  17.858  0.00  0.00    +0.000 HD
BRANCH  23  26
ATOM     26  C   UNL     1      -4.859  12.628  19.202  0.00  0.00    +0.000 A 
ATOM     27  C   UNL     1      -5.737  13.433  19.945  0.00  0.00    +0.000 A 
ATOM     28  C   UNL     1      -7.032  13.688  19.485  0.00  0.00    +0.000 A 
ATOM     29  C   UNL     1      -7.453  13.152  18.271  0.00  0.00    +0.000 A 
ATOM     30  C   UNL     1      -6.580  12.369  17.514  0.00  0.00    +0.000 A 
ATOM     31  C   UNL     1      -5.283  12.108  17.974  0.00  0.00    +0.000 A 
ENDBRANCH  23  26
ENDBRANCH   7  22
TORSDOF 4
ENDMDL
MODEL 3
REMARK VINA RESULT:      -7.9      1.822     10.346
REMARK  Name = 
REMARK  5 active torsions:
REMARK  status: ('A' for Active; 'I' for Inactive)
REMARK    1  A    between atoms: C_1  and  C_2
REMARK    2  A    between atoms: C_5  and  C_6
REMARK    3  A    between atoms: C_11  and  C_12
REMARK    4  A    between atoms: C_21  and  N_22
REMARK    5  A    between atoms: C_23  and  C_25
REMARK                            x       y       z     vdW  Elec       q    Type
REMARK                         _______ _______ _______ _____ _____    ______ ____
ROOT
ATOM      1  C   UNL     1       2.776   5.195  20.447  0.00  0.00    +0.000 C 
ATOM      2  C   UNL     1       2.258   6.517  19.943  0.00  0.00    +0.000 A 
ATOM      3  C   UNL     1       1.446   7.278  20.807  0.00  0.00    +0.000 A 
ATOM      4  C   UNL     1       1.044   8.570  20.463  0.00  0.00    +0.000 A 
ATOM      5  C   UNL     1       1.438   9.125  19.242  0.00  0.00    +0.000 A 
ATOM      6  C   UNL     1       2.115   8.311  18.323  0.00  0.00    +0.000 A 
ATOM      7  C   UNL     1       2.554   7.019  18.660  0.00  0.00    +0.000 A 
ENDROOT
BRANCH   5   8
ATOM      8  C   UNL     1       1.065  10.544  18.934  0.00  0.00    +0.000 C 
ATOM      9  O   UNL     1       1.946  11.397  19.050  0.00  0.00    +0.000 OA
ATOM     10  N   UNL     1      -0.241  10.867  18.526  0.00  0.00    +0.000 N 
ATOM     11  C   UNL     1      -0.582  12.276  18.298  0.00  0.00    +0.000 C 
ATOM     12  C   UNL     1      -2.039  12.592  18.682  0.00  0.00    +0.000 C 
ATOM     13  C   UNL     1      -3.027  11.581  18.063  0.00  0.00    +0.000 C 
ATOM     14  C   UNL     1      -2.583  10.155  18.424  0.00  0.00    +0.000 C 
ATOM     15  C   UNL     1      -1.170   9.926  17.894  0.00  0.00    +0.000 C 
BRANCH  13  16
ATOM     16  C   UNL     1      -4.487  11.844  18.400  0.00  0.00    +0.000 A 
ATOM     17  C   UNL     1      -5.463  11.678  17.402  0.00  0.00    +0.000 A 
ATOM     18  C   UNL     1      -6.815  11.927  17.664  0.00  0.00    +0.000 A 
ATOM     19  C   UNL     1      -7.214  12.337  18.933  0.00  0.00    +0.000 A 
ATOM     20  C   UNL     1      -6.264  12.482  19.940  0.00  0.00    +0.000 A 
ATOM     21  C   UNL     1      -4.911  12.233  19.680  0.00  0.00    +0.000 A 
ENDBRANCH  13  16
ENDBRANCH   5   8
BRANCH   7  22
ATOM     22  N   UNL     1       3.287   6.207  17.745  0.00  0.00    +0.000 N 
ATOM     23  C   UNL     1       4.615   6.365  17.365  0.00  0.00    +0.000 C 
ATOM     24  O   UNL     1       5.393   7.210  17.797  0.00  0.00    +0.000 OA
ATOM     25  H   UNL     1       2.763   5.469  17.295  0.00  0.00    +0.000 HD
BRANCH  23  26
ATOM     26  C   UNL     1       5.132   5.428  16.324  0.00  0.00    +0.000 A 
ATOM     27  C   UNL     1       5.587   5.982  15.117  0.00  0.00    +0.000 A 
ATOM     28  C   UNL     1       6.099   5.165  14.106  0.00  0.00    +0.000 A 
ATOM     29  C   UNL     1       6.172   3.788  14.299  0.00  0.00    +0.000 A 
ATOM     30  C   UNL     1       5.743   3.229  15.504  0.00  0.00    +0.000 A 
ATOM     31  C   UNL     1       5.226   4.045  16.518  0.00  0.00    +0.000 A 
ENDBRANCH  23  26
ENDBRANCH   7  22
TORSDOF 4
ENDMDL
MODEL 4
REMARK VINA RESULT:      -7.8      0.848      1.221
REMARK  Name = 
REMARK  5 active torsions:
REMARK  status: ('A' for Active; 'I' for Inactive)
REMARK    1  A    between atoms: C_1  and  C_2
REMARK    2  A    between atoms: C_5  and  C_6
REMARK    3  A    between atoms: C_11  and  C_12
REMARK    4  A    between atoms: C_21  and  N_22
REMARK    5  A    between atoms: C_23  and  C_25
REMARK                            x       y       z     vdW  Elec       q    Type
REMARK                         _______ _______ _______ _____ _____    ______ ____
ROOT
ATOM      1  C   UNL     1      -0.562  13.797  18.551  0.00  0.00    +0.000 C 
ATOM      2  C   UNL     1      -0.147  12.388  18.886  0.00  0.00    +0.000 A 
ATOM      3  C   UNL     1       1.228  12.128  19.044  0.00  0.00    +0.000 A 
ATOM      4  C   UNL     1       1.677  10.882  19.488  0.00  0.00    +0.000 A 
ATOM      5  C   UNL     1       0.759   9.868  19.775  0.00  0.00    +0.000 A 
ATOM      6  C   UNL     1      -0.593  10.081  19.471  0.00  0.00    +0.000 A 
ATOM      7  C   UNL     1      -1.069  11.335  19.052  0.00  0.00    +0.000 A 
ENDROOT
BRANCH   5   8
ATOM      8  C   UNL     1       1.261   8.569  20.332  0.00  0.00    +0.000 C 
ATOM      9  O   UNL     1       1.036   8.341  21.521  0.00  0.00    +0.000 OA
ATOM     10  N   UNL     1       1.951   7.659  19.512  0.00  0.00    +0.000 N 
ATOM     11  C   UNL     1       2.483   6.430  20.112  0.00  0.00    +0.000 C 
ATOM     12  C   UNL     1       3.807   5.990  19.462  0.00  0.00    +0.000 C 
ATOM     13  C   UNL     1       3.709   5.966  17.922  0.00  0.00    +0.000 C 
ATOM     14  C   UNL     1       3.195   7.327  17.427  0.00  0.00    +0.000 C 
ATOM     15  C   UNL     1       1.829   7.598  18.053  0.00  0.00    +0.000 C 
BRANCH  13  16
ATOM     16  C   UNL     1       4.987   5.531  17.218  0.00  0.00    +0.000 A 
ATOM     17  C   UNL     1       6.021   4.948  17.971  0.00  0.00    +0.000 A 
ATOM     18  C   UNL     1       7.219   4.551  17.368  0.00  0.00    +0.000 A 
ATOM     19  C   UNL     1       7.400   4.723  15.999  0.00  0.00    +0.000 A 
ATOM     20  C   UNL     1       6.376   5.276  15.234  0.00  0.00    +0.000 A 
ATOM     21  C   UNL     1       5.176   5.673  15.836  0.00  0.00    +0.000 A 
ENDBRANCH  13  16
ENDBRANCH   5   8
BRANCH   7  22
ATOM     22  N   UNL     1      -2.452  11.571  18.790  0.00  0.00    +0.000 N 
ATOM     23  C   UNL     1      -3.384  12.125  19.660  0.00  0.00    +0.000 C 
ATOM     24  O   UNL     1      -3.155  12.549  20.788  0.00  0.00    +0.000 OA
ATOM     25  H   UNL     1      -2.789  11.254  17.892  0.00  0.00    +0.000 HD
BRANCH  23  26
ATOM     26  C   UNL     1      -4.795  12.193  19.176  0.00  0.00    +0.000 A 
ATOM     27  C   UNL     1      -5.007  12.218  17.789  0.00  0.00    +0.000 A 
ATOM     28  C   UNL     1      -6.302  12.265  17.266  0.00  0.00    +0.000 A 
ATOM     29  C   UNL     1      -7.396  12.274  18.127  0.00  0.00    +0.000 A 
ATOM     30  C   UNL     1      -7.197  12.228  19.508  0.00  0.00    +0.000 A 
ATOM     31  C   UNL     1      -5.900  12.184  20.035  0.00  0.00    +0.000 A 
ENDBRANCH  23  26
ENDBRANCH   7  22
TORSDOF 4
ENDMDL
MODEL 5
REMARK VINA RESULT:      -7.7      2.005     10.261
REMARK  Name = 
REMARK  5 active torsions:
REMARK  status: ('A' for Active; 'I' for Inactive)
REMARK    1  A    between atoms: C_1  and  C_2
REMARK    2  A    between atoms: C_5  and  C_6
REMARK    3  A    between atoms: C_11  and  C_12
REMARK    4  A    between atoms: C_21  and  N_22
REMARK    5  A    between atoms: C_23  and  C_25
REMARK                            x       y       z     vdW  Elec       q    Type
REMARK                         _______ _______ _______ _____ _____    ______ ____
ROOT
ATOM      1  C   UNL     1       2.528   3.446  19.492  0.00  0.00    +0.000 C 
ATOM      2  C   UNL     1       2.159   4.894  19.679  0.00  0.00    +0.000 A 
ATOM      3  C   UNL     1       1.222   5.211  20.683  0.00  0.00    +0.000 A 
ATOM      4  C   UNL     1       0.935   6.539  21.004  0.00  0.00    +0.000 A 
ATOM      5  C   UNL     1       1.573   7.579  20.323  0.00  0.00    +0.000 A 
ATOM      6  C   UNL     1       2.385   7.262  19.225  0.00  0.00    +0.000 A 
ATOM      7  C   UNL     1       2.710   5.933  18.902  0.00  0.00    +0.000 A 
ENDROOT
BRANCH   5   8
ATOM      8  C   UNL     1       1.312   8.994  20.746  0.00  0.00    +0.000 C 
ATOM      9  O   UNL     1       1.931   9.413  21.724  0.00  0.00    +0.000 OA
ATOM     10  N   UNL     1       0.399   9.795  20.037  0.00  0.00    +0.000 N 
ATOM     11  C   UNL     1       0.124  11.152  20.524  0.00  0.00    +0.000 C 
ATOM     12  C   UNL     1      -1.335  11.575  20.273  0.00  0.00    +0.000 C 
ATOM     13  C   UNL     1      -1.766  11.313  18.815  0.00  0.00    +0.000 C 
ATOM     14  C   UNL     1      -1.473   9.846  18.457  0.00  0.00    +0.000 C 
ATOM     15  C   UNL     1       0.019   9.581  18.638  0.00  0.00    +0.000 C 
BRANCH  13  16
ATOM     16  C   UNL     1      -3.199  11.717  18.502  0.00  0.00    +0.000 A 
ATOM     17  C   UNL     1      -3.976  12.325  19.504  0.00  0.00    +0.000 A 
ATOM     18  C   UNL     1      -5.303  12.696  19.264  0.00  0.00    +0.000 A 
ATOM     19  C   UNL     1      -5.874  12.473  18.015  0.00  0.00    +0.000 A 
ATOM     20  C   UNL     1      -5.111  11.895  17.003  0.00  0.00    +0.000 A 
ATOM     21  C   UNL     1      -3.782  11.525  17.241  0.00  0.00    +0.000 A 
ENDBRANCH  13  16
ENDBRANCH   5   8
BRANCH   7  22
ATOM     22  N   UNL     1       3.577   5.608  17.817  0.00  0.00    +0.000 N 
ATOM     23  C   UNL     1       4.935   5.319  17.890  0.00  0.00    +0.000 C 
ATOM     24  O   UNL     1       5.603   5.249  18.916  0.00  0.00    +0.000 OA
ATOM     25  H   UNL     1       3.161   5.641  16.897  0.00  0.00    +0.000 HD
BRANCH  23  26
ATOM     26  C   UNL     1       5.642   5.088  16.595  0.00  0.00    +0.000 A 
ATOM     27  C   UNL     1       4.947   4.403  15.587  0.00  0.00    +0.000 A 
ATOM     28  C   UNL     1       5.543   4.166  14.345  0.00  0.00    +0.000 A 
ATOM     29  C   UNL     1       6.833   4.625  14.098  0.00  0.00    +0.000 A 
ATOM     30  C   UNL     1       7.525   5.327  15.086  0.00  0.00    +0.000 A 
ATOM     31  C   UNL     1       6.933   5.563  16.333  0.00  0.00    +0.000 A 
ENDBRANCH  23  26
ENDBRANCH   7  22
TORSDOF 4
ENDMDL
MODEL 6
REMARK VINA RESULT:      -7.7      0.711      1.231
REMARK  Name = 
REMARK  5 active torsions:
REMARK  status: ('A' for Active; 'I' for Inactive)
REMARK    1  A    between atoms: C_1  and  C_2
REMARK    2  A    between atoms: C_5  and  C_6
REMARK    3  A    between atoms: C_11  and  C_12
REMARK    4  A    between atoms: C_21  and  N_22
REMARK    5  A    between atoms: C_23  and  C_25
REMARK                            x       y       z     vdW  Elec       q    Type
REMARK                         _______ _______ _______ _____ _____    ______ ____
ROOT
ATOM      1  C   UNL     1      -0.489  14.061  19.699  0.00  0.00    +0.000 C 
ATOM      2  C   UNL     1      -0.136  12.601  19.818  0.00  0.00    +0.000 A 
ATOM      3  C   UNL     1       1.223  12.263  19.969  0.00  0.00    +0.000 A 
ATOM      4  C   UNL     1       1.612  10.946  20.222  0.00  0.00    +0.000 A 
ATOM      5  C   UNL     1       0.650   9.938  20.321  0.00  0.00    +0.000 A 
ATOM      6  C   UNL     1      -0.683  10.251  20.019  0.00  0.00    +0.000 A 
ATOM      7  C   UNL     1      -1.100  11.573  19.791  0.00  0.00    +0.000 A 
ENDROOT
BRANCH   5   8
ATOM      8  C   UNL     1       1.087   8.548  20.679  0.00  0.00    +0.000 C 
ATOM      9  O   UNL     1       0.822   8.148  21.813  0.00  0.00    +0.000 OA
ATOM     10  N   UNL     1       1.764   7.748  19.741  0.00  0.00    +0.000 N 
ATOM     11  C   UNL     1       2.232   6.420  20.153  0.00  0.00    +0.000 C 
ATOM     12  C   UNL     1       3.555   6.031  19.470  0.00  0.00    +0.000 C 
ATOM     13  C   UNL     1       3.498   6.250  17.943  0.00  0.00    +0.000 C 
ATOM     14  C   UNL     1       3.049   7.692  17.656  0.00  0.00    +0.000 C 
ATOM     15  C   UNL     1       1.679   7.920  18.289  0.00  0.00    +0.000 C 
BRANCH  13  16
ATOM     16  C   UNL     1       4.776   5.877  17.207  0.00  0.00    +0.000 A 
ATOM     17  C   UNL     1       5.949   6.613  17.451  0.00  0.00    +0.000 A 
ATOM     18  C   UNL     1       7.141   6.316  16.783  0.00  0.00    +0.000 A 
ATOM     19  C   UNL     1       7.183   5.270  15.866  0.00  0.00    +0.000 A 
ATOM     20  C   UNL     1       6.037   4.514  15.630  0.00  0.00    +0.000 A 
ATOM     21  C   UNL     1       4.844   4.810  16.300  0.00  0.00    +0.000 A 
ENDBRANCH  13  16
ENDBRANCH   5   8
BRANCH   7  22
ATOM     22  N   UNL     1      -2.464  11.903  19.533  0.00  0.00    +0.000 N 
ATOM     23  C   UNL     1      -3.251  11.441  18.485  0.00  0.00    +0.000 C 
ATOM     24  O   UNL     1      -2.911  10.630  17.630  0.00  0.00    +0.000 OA
ATOM     25  H   UNL     1      -2.877  12.580  20.158  0.00  0.00    +0.000 HD
BRANCH  23  26
ATOM     26  C   UNL     1      -4.633  11.999  18.387  0.00  0.00    +0.000 A 
ATOM     27  C   UNL     1      -5.242  12.441  19.572  0.00  0.00    +0.000 A 
ATOM     28  C   UNL     1      -6.527  12.989  19.552  0.00  0.00    +0.000 A 
ATOM     29  C   UNL     1      -7.208  13.112  18.344  0.00  0.00    +0.000 A 
ATOM     30  C   UNL     1      -6.603  12.697  17.156  0.00  0.00    +0.000 A 
ATOM     31  C   UNL     1      -5.316  12.143  17.174  0.00  0.00    +0.000 A 
ENDBRANCH  23  26
ENDBRANCH   7  22
TORSDOF 4
ENDMDL
MODEL 7
REMARK VINA RESULT:      -7.6      1.993     10.203
REMARK  Name = 
REMARK  5 active torsions:
REMARK  status: ('A' for Active; 'I' for Inactive)
REMARK    1  A    between atoms: C_1  and  C_2
REMARK    2  A    between atoms: C_5  and  C_6
REMARK    3  A    between atoms: C_11  and  C_12
REMARK    4  A    between atoms: C_21  and  N_22
REMARK    5  A    between atoms: C_23  and  C_25
REMARK                            x       y       z     vdW  Elec       q    Type
REMARK                         _______ _______ _______ _____ _____    ______ ____
ROOT
ATOM      1  C   UNL     1       2.666   3.576  19.701  0.00  0.00    +0.000 C 
ATOM      2  C   UNL     1       2.271   5.024  19.832  0.00  0.00    +0.000 A 
ATOM      3  C   UNL     1       1.383   5.372  20.870  0.00  0.00    +0.000 A 
ATOM      4  C   UNL     1       1.081   6.708  21.138  0.00  0.00    +0.000 A 
ATOM      5  C   UNL     1       1.654   7.725  20.369  0.00  0.00    +0.000 A 
ATOM      6  C   UNL     1       2.412   7.369  19.245  0.00  0.00    +0.000 A 
ATOM      7  C   UNL     1       2.752   6.032  18.974  0.00  0.00    +0.000 A 
ENDROOT
BRANCH   5   8
ATOM      8  C   UNL     1       1.381   9.154  20.732  0.00  0.00    +0.000 C 
ATOM      9  O   UNL     1       2.014   9.627  21.678  0.00  0.00    +0.000 OA
ATOM     10  N   UNL     1       0.442   9.909  20.007  0.00  0.00    +0.000 N 
ATOM     11  C   UNL     1       0.157  11.283  20.437  0.00  0.00    +0.000 C 
ATOM     12  C   UNL     1      -1.313  11.674  20.198  0.00  0.00    +0.000 C 
ATOM     13  C   UNL     1      -1.769  11.339  18.763  0.00  0.00    +0.000 C 
ATOM     14  C   UNL     1      -1.462   9.863  18.466  0.00  0.00    +0.000 C 
ATOM     15  C   UNL     1       0.037   9.626  18.628  0.00  0.00    +0.000 C 
BRANCH  13  16
ATOM     16  C   UNL     1      -3.214  11.710  18.462  0.00  0.00    +0.000 A 
ATOM     17  C   UNL     1      -3.722  11.498  17.168  0.00  0.00    +0.000 A 
ATOM     18  C   UNL     1      -5.038  11.841  16.843  0.00  0.00    +0.000 A 
ATOM     19  C   UNL     1      -5.873  12.393  17.810  0.00  0.00    +0.000 A 
ATOM     20  C   UNL     1      -5.394  12.586  19.104  0.00  0.00    +0.000 A 
ATOM     21  C   UNL     1      -4.077  12.242  19.430  0.00  0.00    +0.000 A 
ENDBRANCH  13  16
ENDBRANCH   5   8
BRANCH   7  22
ATOM     22  N   UNL     1       3.566   5.670  17.860  0.00  0.00    +0.000 N 
ATOM     23  C   UNL     1       4.955   5.617  17.822  0.00  0.00    +0.000 C 
ATOM     24  O   UNL     1       5.711   5.830  18.764  0.00  0.00    +0.000 OA
ATOM     25  H   UNL     1       3.073   5.479  16.999  0.00  0.00    +0.000 HD
BRANCH  23  26
ATOM     26  C   UNL     1       5.578   5.285  16.506  0.00  0.00    +0.000 A 
ATOM     27  C   UNL     1       6.960   5.491  16.370  0.00  0.00    +0.000 A 
ATOM     28  C   UNL     1       7.612   5.187  15.172  0.00  0.00    +0.000 A 
ATOM     29  C   UNL     1       6.889   4.662  14.105  0.00  0.00    +0.000 A 
ATOM     30  C   UNL     1       5.518   4.434  14.236  0.00  0.00    +0.000 A 
ATOM     31  C   UNL     1       4.861   4.741  15.434  0.00  0.00    +0.000 A 
ENDBRANCH  23  26
ENDBRANCH   7  22
TORSDOF 4
ENDMDL
MODEL 8
REMARK VINA RESULT:      -7.6      1.785     10.470
REMARK  Name = 
REMARK  5 active torsions:
REMARK  status: ('A' for Active; 'I' for Inactive)
REMARK    1  A    between atoms: C_1  and  C_2
REMARK    2  A    between atoms: C_5  and  C_6
REMARK    3  A    between atoms: C_11  and  C_12
REMARK    4  A    between atoms: C_21  and  N_22
REMARK    5  A    between atoms: C_23  and  C_25
REMARK                            x       y       z     vdW  Elec       q    Type
REMARK                         _______ _______ _______ _____ _____    ______ ____
ROOT
ATOM      1  C   UNL     1       2.835   5.257  20.264  0.00  0.00    +0.000 C 
ATOM      2  C   UNL     1       2.310   6.583  19.777  0.00  0.00    +0.000 A 
ATOM      3  C   UNL     1       1.400   7.273  20.602  0.00  0.00    +0.000 A 
ATOM      4  C   UNL     1       0.978   8.565  20.283  0.00  0.00    +0.000 A 
ATOM      5  C   UNL     1       1.451   9.191  19.127  0.00  0.00    +0.000 A 
ATOM      6  C   UNL     1       2.234   8.447  18.233  0.00  0.00    +0.000 A 
ATOM      7  C   UNL     1       2.693   7.157  18.548  0.00  0.00    +0.000 A 
ENDROOT
BRANCH   5   8
ATOM      8  C   UNL     1       1.051  10.611  18.852  0.00  0.00    +0.000 C 
ATOM      9  O   UNL     1       1.919  11.476  18.974  0.00  0.00    +0.000 OA
ATOM     10  N   UNL     1      -0.266  10.919  18.466  0.00  0.00    +0.000 N 
ATOM     11  C   UNL     1      -0.633  12.327  18.272  0.00  0.00    +0.000 C 
ATOM     12  C   UNL     1      -2.090  12.610  18.680  0.00  0.00    +0.000 C 
ATOM     13  C   UNL     1      -3.069  11.595  18.052  0.00  0.00    +0.000 C 
ATOM     14  C   UNL     1      -2.597  10.169  18.379  0.00  0.00    +0.000 C 
ATOM     15  C   UNL     1      -1.187   9.976  17.828  0.00  0.00    +0.000 C 
BRANCH  13  16
ATOM     16  C   UNL     1      -4.529  11.826  18.413  0.00  0.00    +0.000 A 
ATOM     17  C   UNL     1      -4.854  12.280  19.703  0.00  0.00    +0.000 A 
ATOM     18  C   UNL     1      -6.184  12.488  20.082  0.00  0.00    +0.000 A 
ATOM     19  C   UNL     1      -7.212  12.253  19.174  0.00  0.00    +0.000 A 
ATOM     20  C   UNL     1      -6.907  11.826  17.884  0.00  0.00    +0.000 A 
ATOM     21  C   UNL     1      -5.576  11.620  17.502  0.00  0.00    +0.000 A 
ENDBRANCH  13  16
ENDBRANCH   5   8
BRANCH   7  22
ATOM     22  N   UNL     1       3.531   6.415  17.664  0.00  0.00    +0.000 N 
ATOM     23  C   UNL     1       4.854   6.691  17.339  0.00  0.00    +0.000 C 
ATOM     24  O   UNL     1       5.537   7.599  17.803  0.00  0.00    +0.000 OA
ATOM     25  H   UNL     1       3.093   5.637  17.192  0.00  0.00    +0.000 HD
BRANCH  23  26
ATOM     26  C   UNL     1       5.494   5.806  16.320  0.00  0.00    +0.000 A 
ATOM     27  C   UNL     1       6.650   5.107  16.699  0.00  0.00    +0.000 A 
ATOM     28  C   UNL     1       7.292   4.249  15.801  0.00  0.00    +0.000 A 
ATOM     29  C   UNL     1       6.773   4.074  14.521  0.00  0.00    +0.000 A 
ATOM     30  C   UNL     1       5.612   4.748  14.141  0.00  0.00    +0.000 A 
ATOM     31  C   UNL     1       4.969   5.611  15.037  0.00  0.00    +0.000 A 
ENDBRANCH  23  26
ENDBRANCH   7  22
TORSDOF 4
ENDMDL
MODEL 9
REMARK VINA RESULT:      -7.5      1.402      1.575
REMARK  Name = 
REMARK  5 active torsions:
REMARK  status: ('A' for Active; 'I' for Inactive)
REMARK    1  A    between atoms: C_1  and  C_2
REMARK    2  A    between atoms: C_5  and  C_6
REMARK    3  A    between atoms: C_11  and  C_12
REMARK    4  A    between atoms: C_21  and  N_22
REMARK    5  A    between atoms: C_23  and  C_25
REMARK                            x       y       z     vdW  Elec       q    Type
REMARK                         _______ _______ _______ _____ _____    ______ ____
ROOT
ATOM      1  C   UNL     1      -0.385  14.014  18.798  0.00  0.00    +0.000 C 
ATOM      2  C   UNL     1      -0.070  12.574  19.111  0.00  0.00    +0.000 A 
ATOM      3  C   UNL     1       1.255  12.135  18.926  0.00  0.00    +0.000 A 
ATOM      4  C   UNL     1       1.650  10.856  19.324  0.00  0.00    +0.000 A 
ATOM      5  C   UNL     1       0.725   9.987  19.907  0.00  0.00    +0.000 A 
ATOM      6  C   UNL     1      -0.623  10.370  19.948  0.00  0.00    +0.000 A 
ATOM      7  C   UNL     1      -1.037  11.662  19.580  0.00  0.00    +0.000 A 
ENDROOT
BRANCH   5   8
ATOM      8  C   UNL     1       1.194   8.652  20.405  0.00  0.00    +0.000 C 
ATOM      9  O   UNL     1       0.971   8.378  21.585  0.00  0.00    +0.000 OA
ATOM     10  N   UNL     1       1.855   7.759  19.541  0.00  0.00    +0.000 N 
ATOM     11  C   UNL     1       2.356   6.492  20.084  0.00  0.00    +0.000 C 
ATOM     12  C   UNL     1       3.664   6.044  19.406  0.00  0.00    +0.000 C 
ATOM     13  C   UNL     1       3.556   6.090  17.867  0.00  0.00    +0.000 C 
ATOM     14  C   UNL     1       3.076   7.485  17.435  0.00  0.00    +0.000 C 
ATOM     15  C   UNL     1       1.722   7.765  18.082  0.00  0.00    +0.000 C 
BRANCH  13  16
ATOM     16  C   UNL     1       4.817   5.652  17.137  0.00  0.00    +0.000 A 
ATOM     17  C   UNL     1       4.781   4.497  16.335  0.00  0.00    +0.000 A 
ATOM     18  C   UNL     1       5.921   4.049  15.661  0.00  0.00    +0.000 A 
ATOM     19  C   UNL     1       7.116   4.753  15.770  0.00  0.00    +0.000 A 
ATOM     20  C   UNL     1       7.165   5.912  16.540  0.00  0.00    +0.000 A 
ATOM     21  C   UNL     1       6.023   6.363  17.214  0.00  0.00    +0.000 A 
ENDBRANCH  13  16
ENDBRANCH   5   8
BRANCH   7  22
ATOM     22  N   UNL     1      -2.400  12.073  19.668  0.00  0.00    +0.000 N 
ATOM     23  C   UNL     1      -3.065  12.524  20.802  0.00  0.00    +0.000 C 
ATOM     24  O   UNL     1      -2.569  12.688  21.913  0.00  0.00    +0.000 OA
ATOM     25  H   UNL     1      -2.943  11.978  18.822  0.00  0.00    +0.000 HD
BRANCH  23  26
ATOM     26  C   UNL     1      -4.521  12.820  20.654  0.00  0.00    +0.000 A 
ATOM     27  C   UNL     1      -5.093  12.650  19.383  0.00  0.00    +0.000 A 
ATOM     28  C   UNL     1      -6.453  12.893  19.175  0.00  0.00    +0.000 A 
ATOM     29  C   UNL     1      -7.255  13.296  20.239  0.00  0.00    +0.000 A 
ATOM     30  C   UNL     1      -6.701  13.447  21.512  0.00  0.00    +0.000 A 
ATOM     31  C   UNL     1      -5.337  13.207  21.723  0.00  0.00    +0.000 A 
ENDBRANCH  23  26
ENDBRANCH   7  22
TORSDOF 4
ENDMDL
