MODEL 1
REMARK VINA RESULT:      -8.0      0.000      0.000
REMARK  Name = 
REMARK  6 active torsions:
REMARK  status: ('A' for Active; 'I' for Inactive)
REMARK    1  A    between atoms: C_2  and  C_3
REMARK    2  A    between atoms: C_3  and  C_4
REMARK    3  A    between atoms: N_13  and  C_14
REMARK    4  A    between atoms: N_13  and  C_25
REMARK    5  A    between atoms: C_14  and  C_15
REMARK    6  A    between atoms: C_20  and  C_21
REMARK                            x       y       z     vdW  Elec       q    Type
REMARK                         _______ _______ _______ _____ _____    ______ ____
ROOT
ATOM      1  O   UNL     1       3.956   7.895  17.822  0.00  0.00    +0.000 OA
ATOM      2  C   UNL     1       2.983   7.291  18.282  0.00  0.00    +0.000 C 
ATOM      3  N   UNL     1       3.135   6.091  19.004  0.00  0.00    +0.000 N 
ENDROOT
BRANCH   3   4
ATOM      4  C   UNL     1       2.134   5.683  19.967  0.00  0.00    +0.000 C 
ATOM      5  C   UNL     1       2.309   4.571  20.968  0.00  0.00    +0.000 C 
ATOM      6  C   UNL     1       1.400   4.376  19.796  0.00  0.00    +0.000 C 
ENDBRANCH   3   4
BRANCH   2   7
ATOM      7  C   UNL     1       1.564   7.859  18.161  0.00  0.00    +0.000 C 
BRANCH   7   8
ATOM      8  C   UNL     1       1.369   9.155  18.887  0.00  0.00    +0.000 A 
ATOM      9  C   UNL     1       1.647  10.420  18.386  0.00  0.00    +0.000 A 
ATOM     10  N   UNL     1       1.301  11.347  19.337  0.00  0.00    +0.000 N 
ATOM     11  C   UNL     1       0.791  10.718  20.436  0.00  0.00    +0.000 A 
ATOM     12  N   UNL     1       0.357  11.353  21.539  0.00  0.00    +0.000 NA
ATOM     13  C   UNL     1      -0.106  10.505  22.484  0.00  0.00    +0.000 A 
ATOM     14  C   UNL     1      -0.151   9.120  22.376  0.00  0.00    +0.000 A 
ATOM     15  C   UNL     1       0.310   8.517  21.206  0.00  0.00    +0.000 A 
ATOM     16  C   UNL     1       0.810   9.351  20.191  0.00  0.00    +0.000 A 
ATOM     17  H   UNL     1       1.391  12.346  19.264  0.00  0.00    +0.000 HD
ENDBRANCH   7   8
ENDBRANCH   2   7
BRANCH   3  18
ATOM     18  C   UNL     1       4.509   5.592  19.195  0.00  0.00    +0.000 C 
BRANCH  18  19
ATOM     19  C   UNL     1       5.168   4.988  17.958  0.00  0.00    +0.000 A 
ATOM     20  C   UNL     1       4.403   4.288  17.007  0.00  0.00    +0.000 A 
ATOM     21  C   UNL     1       4.970   3.832  15.813  0.00  0.00    +0.000 A 
ATOM     22  C   UNL     1       6.312   4.069  15.541  0.00  0.00    +0.000 A 
ATOM     23  C   UNL     1       7.108   4.678  16.505  0.00  0.00    +0.000 A 
ATOM     24  C   UNL     1       6.565   5.090  17.742  0.00  0.00    +0.000 A 
BRANCH  24  25
ATOM     25  C   UNL     1       7.550   5.578  18.784  0.00  0.00    +0.000 C 
ATOM     26  F   UNL     1       8.693   4.841  18.878  0.00  0.00    +0.000 F 
ATOM     27  F   UNL     1       7.977   6.849  18.516  0.00  0.00    +0.000 F 
ATOM     28  F   UNL     1       7.026   5.624  20.038  0.00  0.00    +0.000 F 
ENDBRANCH  24  25
ENDBRANCH  18  19
ENDBRANCH   3  18
TORSDOF 6
ENDMDL
MODEL 2
REMARK VINA RESULT:      -7.7      1.928      2.509
REMARK  Name = 
REMARK  6 active torsions:
REMARK  status: ('A' for Active; 'I' for Inactive)
REMARK    1  A    between atoms: C_2  and  C_3
REMARK    2  A    between atoms: C_3  and  C_4
REMARK    3  A    between atoms: N_13  and  C_14
REMARK    4  A    between atoms: N_13  and  C_25
REMARK    5  A    between atoms: C_14  and  C_15
REMARK    6  A    between atoms: C_20  and  C_21
REMARK                            x       y       z     vdW  Elec       q    Type
REMARK                         _______ _______ _______ _____ _____    ______ ____
ROOT
ATOM      1  O   UNL     1       3.081   7.914  18.330  0.00  0.00    +0.000 OA
ATOM      2  C   UNL     1       2.538   7.075  19.053  0.00  0.00    +0.000 C 
ATOM      3  N   UNL     1       2.676   5.695  18.812  0.00  0.00    +0.000 N 
ENDROOT
BRANCH   3   4
ATOM      4  C   UNL     1       2.522   4.742  19.892  0.00  0.00    +0.000 C 
ATOM      5  C   UNL     1       2.512   3.246  19.723  0.00  0.00    +0.000 C 
ATOM      6  C   UNL     1       1.239   3.964  20.044  0.00  0.00    +0.000 C 
ENDBRANCH   3   4
BRANCH   2   7
ATOM      7  C   UNL     1       1.747   7.491  20.299  0.00  0.00    +0.000 C 
BRANCH   7   8
ATOM      8  C   UNL     1       1.070   8.821  20.167  0.00  0.00    +0.000 A 
ATOM      9  C   UNL     1       0.994   9.587  19.012  0.00  0.00    +0.000 A 
ATOM     10  N   UNL     1       0.263  10.715  19.288  0.00  0.00    +0.000 N 
ATOM     11  C   UNL     1      -0.152  10.694  20.588  0.00  0.00    +0.000 A 
ATOM     12  N   UNL     1      -0.892  11.658  21.163  0.00  0.00    +0.000 NA
ATOM     13  C   UNL     1      -1.174  11.399  22.460  0.00  0.00    +0.000 A 
ATOM     14  C   UNL     1      -0.769  10.273  23.167  0.00  0.00    +0.000 A 
ATOM     15  C   UNL     1      -0.005   9.305  22.516  0.00  0.00    +0.000 A 
ATOM     16  C   UNL     1       0.325   9.526  21.168  0.00  0.00    +0.000 A 
ATOM     17  H   UNL     1       0.042  11.460  18.650  0.00  0.00    +0.000 HD
ENDBRANCH   7   8
ENDBRANCH   2   7
BRANCH   3  18
ATOM     18  C   UNL     1       3.510   5.294  17.664  0.00  0.00    +0.000 C 
BRANCH  18  19
ATOM     19  C   UNL     1       5.017   5.321  17.905  0.00  0.00    +0.000 A 
ATOM     20  C   UNL     1       5.534   5.467  19.205  0.00  0.00    +0.000 A 
ATOM     21  C   UNL     1       6.907   5.375  19.455  0.00  0.00    +0.000 A 
ATOM     22  C   UNL     1       7.792   5.131  18.412  0.00  0.00    +0.000 A 
ATOM     23  C   UNL     1       7.314   5.074  17.108  0.00  0.00    +0.000 A 
ATOM     24  C   UNL     1       5.937   5.226  16.830  0.00  0.00    +0.000 A 
BRANCH  24  25
ATOM     25  C   UNL     1       5.548   5.325  15.370  0.00  0.00    +0.000 C 
ATOM     26  F   UNL     1       6.591   5.252  14.495  0.00  0.00    +0.000 F 
ATOM     27  F   UNL     1       4.714   4.307  15.002  0.00  0.00    +0.000 F 
ATOM     28  F   UNL     1       4.881   6.472  15.069  0.00  0.00    +0.000 F 
ENDBRANCH  24  25
ENDBRANCH  18  19
ENDBRANCH   3  18
TORSDOF 6
ENDMDL
MODEL 3
REMARK VINA RESULT:      -7.6      1.212      1.779
REMARK  Name = 
REMARK  6 active torsions:
REMARK  status: ('A' for Active; 'I' for Inactive)
REMARK    1  A    between atoms: C_2  and  C_3
REMARK    2  A    between atoms: C_3  and  C_4
REMARK    3  A    between atoms: N_13  and  C_14
REMARK    4  A    between atoms: N_13  and  C_25
REMARK    5  A    between atoms: C_14  and  C_15
REMARK    6  A    between atoms: C_20  and  C_21
REMARK                            x       y       z     vdW  Elec       q    Type
REMARK                         _______ _______ _______ _____ _____    ______ ____
ROOT
ATOM      1  O   UNL     1       4.418   6.602  19.316  0.00  0.00    +0.000 OA
ATOM      2  C   UNL     1       3.404   5.906  19.223  0.00  0.00    +0.000 C 
ATOM      3  N   UNL     1       3.477   4.538  18.893  0.00  0.00    +0.000 N 
ENDROOT
BRANCH   3   4
ATOM      4  C   UNL     1       2.424   3.629  19.295  0.00  0.00    +0.000 C 
ATOM      5  C   UNL     1       2.382   2.162  18.961  0.00  0.00    +0.000 C 
ATOM      6  C   UNL     1       1.442   3.104  18.278  0.00  0.00    +0.000 C 
ENDBRANCH   3   4
BRANCH   2   7
ATOM      7  C   UNL     1       2.016   6.475  19.540  0.00  0.00    +0.000 C 
BRANCH   7   8
ATOM      8  C   UNL     1       1.824   7.888  19.079  0.00  0.00    +0.000 A 
ATOM      9  C   UNL     1       2.076   8.370  17.803  0.00  0.00    +0.000 A 
ATOM     10  N   UNL     1       1.743   9.701  17.771  0.00  0.00    +0.000 N 
ATOM     11  C   UNL     1       1.264  10.091  18.988  0.00  0.00    +0.000 A 
ATOM     12  N   UNL     1       0.849  11.336  19.276  0.00  0.00    +0.000 NA
ATOM     13  C   UNL     1       0.417  11.464  20.551  0.00  0.00    +0.000 A 
ATOM     14  C   UNL     1       0.385  10.448  21.499  0.00  0.00    +0.000 A 
ATOM     15  C   UNL     1       0.825   9.175  21.141  0.00  0.00    +0.000 A 
ATOM     16  C   UNL     1       1.293   8.987  19.830  0.00  0.00    +0.000 A 
ATOM     17  H   UNL     1       1.820  10.322  16.983  0.00  0.00    +0.000 HD
ENDBRANCH   7   8
ENDBRANCH   2   7
BRANCH   3  18
ATOM     18  C   UNL     1       4.821   3.972  18.674  0.00  0.00    +0.000 C 
BRANCH  18  19
ATOM     19  C   UNL     1       5.449   4.274  17.317  0.00  0.00    +0.000 A 
ATOM     20  C   UNL     1       4.843   3.826  16.129  0.00  0.00    +0.000 A 
ATOM     21  C   UNL     1       5.342   4.195  14.876  0.00  0.00    +0.000 A 
ATOM     22  C   UNL     1       6.454   5.022  14.782  0.00  0.00    +0.000 A 
ATOM     23  C   UNL     1       7.123   5.402  15.940  0.00  0.00    +0.000 A 
ATOM     24  C   UNL     1       6.669   4.988  17.212  0.00  0.00    +0.000 A 
BRANCH  24  25
ATOM     25  C   UNL     1       7.568   5.308  18.388  0.00  0.00    +0.000 C 
ATOM     26  F   UNL     1       6.957   5.255  19.605  0.00  0.00    +0.000 F 
ATOM     27  F   UNL     1       8.606   4.423  18.482  0.00  0.00    +0.000 F 
ATOM     28  F   UNL     1       8.142   6.539  18.306  0.00  0.00    +0.000 F 
ENDBRANCH  24  25
ENDBRANCH  18  19
ENDBRANCH   3  18
TORSDOF 6
ENDMDL
MODEL 4
REMARK VINA RESULT:      -7.6      1.992      2.567
REMARK  Name = 
REMARK  6 active torsions:
REMARK  status: ('A' for Active; 'I' for Inactive)
REMARK    1  A    between atoms: C_2  and  C_3
REMARK    2  A    between atoms: C_3  and  C_4
REMARK    3  A    between atoms: N_13  and  C_14
REMARK    4  A    between atoms: N_13  and  C_25
REMARK    5  A    between atoms: C_14  and  C_15
REMARK    6  A    between atoms: C_20  and  C_21
REMARK                            x       y       z     vdW  Elec       q    Type
REMARK                         _______ _______ _______ _____ _____    ______ ____
ROOT
ATOM      1  O   UNL     1       3.263   7.948  17.888  0.00  0.00    +0.000 OA
ATOM      2  C   UNL     1       2.660   7.281  18.732  0.00  0.00    +0.000 C 
ATOM      3  N   UNL     1       2.718   5.873  18.737  0.00  0.00    +0.000 N 
ENDROOT
BRANCH   3   4
ATOM      4  C   UNL     1       2.492   5.134  19.962  0.00  0.00    +0.000 C 
ATOM      5  C   UNL     1       2.476   3.633  20.068  0.00  0.00    +0.000 C 
ATOM      6  C   UNL     1       1.195   4.396  20.177  0.00  0.00    +0.000 C 
ENDBRANCH   3   4
BRANCH   2   7
ATOM      7  C   UNL     1       1.880   7.952  19.868  0.00  0.00    +0.000 C 
BRANCH   7   8
ATOM      8  C   UNL     1       1.068   9.132  19.428  0.00  0.00    +0.000 A 
ATOM      9  C   UNL     1       0.859   9.533  18.115  0.00  0.00    +0.000 A 
ATOM     10  N   UNL     1       0.035  10.631  18.126  0.00  0.00    +0.000 N 
ATOM     11  C   UNL     1      -0.309  10.943  19.409  0.00  0.00    +0.000 A 
ATOM     12  N   UNL     1      -1.110  11.966  19.751  0.00  0.00    +0.000 NA
ATOM     13  C   UNL     1      -1.300  12.061  21.086  0.00  0.00    +0.000 A 
ATOM     14  C   UNL     1      -0.749  11.216  22.043  0.00  0.00    +0.000 A 
ATOM     15  C   UNL     1       0.072  10.168  21.628  0.00  0.00    +0.000 A 
ATOM     16  C   UNL     1       0.310  10.027  20.250  0.00  0.00    +0.000 A 
ATOM     17  H   UNL     1      -0.290  11.146  17.326  0.00  0.00    +0.000 HD
ENDBRANCH   7   8
ENDBRANCH   2   7
BRANCH   3  18
ATOM     18  C   UNL     1       3.542   5.232  17.696  0.00  0.00    +0.000 C 
BRANCH  18  19
ATOM     19  C   UNL     1       5.050   5.285  17.925  0.00  0.00    +0.000 A 
ATOM     20  C   UNL     1       5.574   5.441  19.221  0.00  0.00    +0.000 A 
ATOM     21  C   UNL     1       6.950   5.373  19.460  0.00  0.00    +0.000 A 
ATOM     22  C   UNL     1       7.831   5.143  18.411  0.00  0.00    +0.000 A 
ATOM     23  C   UNL     1       7.344   5.076  17.110  0.00  0.00    +0.000 A 
ATOM     24  C   UNL     1       5.963   5.204  16.843  0.00  0.00    +0.000 A 
BRANCH  24  25
ATOM     25  C   UNL     1       5.561   5.296  15.386  0.00  0.00    +0.000 C 
ATOM     26  F   UNL     1       4.933   6.454  15.038  0.00  0.00    +0.000 F 
ATOM     27  F   UNL     1       6.649   5.229  14.560  0.00  0.00    +0.000 F 
ATOM     28  F   UNL     1       4.739   4.286  14.992  0.00  0.00    +0.000 F 
ENDBRANCH  24  25
ENDBRANCH  18  19
ENDBRANCH   3  18
TORSDOF 6
ENDMDL
MODEL 5
REMARK VINA RESULT:      -7.6      1.204      1.815
REMARK  Name = 
REMARK  6 active torsions:
REMARK  status: ('A' for Active; 'I' for Inactive)
REMARK    1  A    between atoms: C_2  and  C_3
REMARK    2  A    between atoms: C_3  and  C_4
REMARK    3  A    between atoms: N_13  and  C_14
REMARK    4  A    between atoms: N_13  and  C_25
REMARK    5  A    between atoms: C_14  and  C_15
REMARK    6  A    between atoms: C_20  and  C_21
REMARK                            x       y       z     vdW  Elec       q    Type
REMARK                         _______ _______ _______ _____ _____    ______ ____
ROOT
ATOM      1  O   UNL     1       4.401   7.331  18.119  0.00  0.00    +0.000 OA
ATOM      2  C   UNL     1       3.327   6.723  18.115  0.00  0.00    +0.000 C 
ATOM      3  N   UNL     1       3.276   5.318  18.196  0.00  0.00    +0.000 N 
ENDROOT
BRANCH   3   4
ATOM      4  C   UNL     1       2.099   4.656  18.720  0.00  0.00    +0.000 C 
ATOM      5  C   UNL     1       2.004   3.183  19.018  0.00  0.00    +0.000 C 
ATOM      6  C   UNL     1       1.280   3.749  17.837  0.00  0.00    +0.000 C 
ENDBRANCH   3   4
BRANCH   2   7
ATOM      7  C   UNL     1       1.989   7.472  18.102  0.00  0.00    +0.000 C 
BRANCH   7   8
ATOM      8  C   UNL     1       1.669   8.159  19.394  0.00  0.00    +0.000 A 
ATOM      9  C   UNL     1       1.782   7.604  20.662  0.00  0.00    +0.000 A 
ATOM     10  N   UNL     1       1.432   8.559  21.583  0.00  0.00    +0.000 N 
ATOM     11  C   UNL     1       1.111   9.723  20.949  0.00  0.00    +0.000 A 
ATOM     12  N   UNL     1       0.731  10.849  21.577  0.00  0.00    +0.000 NA
ATOM     13  C   UNL     1       0.473  11.866  20.723  0.00  0.00    +0.000 A 
ATOM     14  C   UNL     1       0.577  11.804  19.339  0.00  0.00    +0.000 A 
ATOM     15  C   UNL     1       0.980  10.610  18.743  0.00  0.00    +0.000 A 
ATOM     16  C   UNL     1       1.254   9.517  19.583  0.00  0.00    +0.000 A 
ATOM     17  H   UNL     1       1.410   8.451  22.583  0.00  0.00    +0.000 HD
ENDBRANCH   7   8
ENDBRANCH   2   7
BRANCH   3  18
ATOM     18  C   UNL     1       4.562   4.605  18.298  0.00  0.00    +0.000 C 
BRANCH  18  19
ATOM     19  C   UNL     1       5.408   4.589  17.028  0.00  0.00    +0.000 A 
ATOM     20  C   UNL     1       4.901   4.041  15.835  0.00  0.00    +0.000 A 
ATOM     21  C   UNL     1       5.617   4.125  14.636  0.00  0.00    +0.000 A 
ATOM     22  C   UNL     1       6.851   4.761  14.603  0.00  0.00    +0.000 A 
ATOM     23  C   UNL     1       7.412   5.229  15.786  0.00  0.00    +0.000 A 
ATOM     24  C   UNL     1       6.731   5.098  17.016  0.00  0.00    +0.000 A 
BRANCH  24  25
ATOM     25  C   UNL     1       7.504   5.477  18.262  0.00  0.00    +0.000 C 
ATOM     26  F   UNL     1       8.494   4.606  18.607  0.00  0.00    +0.000 F 
ATOM     27  F   UNL     1       8.136   6.680  18.114  0.00  0.00    +0.000 F 
ATOM     28  F   UNL     1       6.716   5.610  19.363  0.00  0.00    +0.000 F 
ENDBRANCH  24  25
ENDBRANCH  18  19
ENDBRANCH   3  18
TORSDOF 6
ENDMDL
MODEL 6
REMARK VINA RESULT:      -7.5      0.850      1.145
REMARK  Name = 
REMARK  6 active torsions:
REMARK  status: ('A' for Active; 'I' for Inactive)
REMARK    1  A    between atoms: C_2  and  C_3
REMARK    2  A    between atoms: C_3  and  C_4
REMARK    3  A    between atoms: N_13  and  C_14
REMARK    4  A    between atoms: N_13  and  C_25
REMARK    5  A    between atoms: C_14  and  C_15
REMARK    6  A    between atoms: C_20  and  C_21
REMARK                            x       y       z     vdW  Elec       q    Type
REMARK                         _______ _______ _______ _____ _____    ______ ____
ROOT
ATOM      1  O   UNL     1       4.119   7.580  18.006  0.00  0.00    +0.000 OA
ATOM      2  C   UNL     1       3.120   6.858  18.055  0.00  0.00    +0.000 C 
ATOM      3  N   UNL     1       3.220   5.477  18.312  0.00  0.00    +0.000 N 
ENDROOT
BRANCH   3   4
ATOM      4  C   UNL     1       2.105   4.755  18.889  0.00  0.00    +0.000 C 
ATOM      5  C   UNL     1       2.133   3.301  19.278  0.00  0.00    +0.000 C 
ATOM      6  C   UNL     1       1.356   3.731  18.073  0.00  0.00    +0.000 C 
ENDBRANCH   3   4
BRANCH   2   7
ATOM      7  C   UNL     1       1.709   7.443  17.918  0.00  0.00    +0.000 C 
BRANCH   7   8
ATOM      8  C   UNL     1       1.585   8.846  18.429  0.00  0.00    +0.000 A 
ATOM      9  C   UNL     1       1.876  10.002  17.717  0.00  0.00    +0.000 A 
ATOM     10  N   UNL     1       1.601  11.082  18.518  0.00  0.00    +0.000 N 
ATOM     11  C   UNL     1       1.124  10.659  19.724  0.00  0.00    +0.000 A 
ATOM     12  N   UNL     1       0.759  11.479  20.725  0.00  0.00    +0.000 NA
ATOM     13  C   UNL     1       0.315  10.812  21.814  0.00  0.00    +0.000 A 
ATOM     14  C   UNL     1       0.225   9.430  21.935  0.00  0.00    +0.000 A 
ATOM     15  C   UNL     1       0.615   8.630  20.862  0.00  0.00    +0.000 A 
ATOM     16  C   UNL     1       1.092   9.271  19.706  0.00  0.00    +0.000 A 
ATOM     17  H   UNL     1       1.717  12.052  18.279  0.00  0.00    +0.000 HD
ENDBRANCH   7   8
ENDBRANCH   2   7
BRANCH   3  18
ATOM     18  C   UNL     1       4.573   4.932  18.531  0.00  0.00    +0.000 C 
BRANCH  18  19
ATOM     19  C   UNL     1       5.428   4.772  17.278  0.00  0.00    +0.000 A 
ATOM     20  C   UNL     1       4.909   4.146  16.129  0.00  0.00    +0.000 A 
ATOM     21  C   UNL     1       5.639   4.097  14.937  0.00  0.00    +0.000 A 
ATOM     22  C   UNL     1       6.900   4.676  14.865  0.00  0.00    +0.000 A 
ATOM     23  C   UNL     1       7.470   5.218  16.012  0.00  0.00    +0.000 A 
ATOM     24  C   UNL     1       6.772   5.222  17.240  0.00  0.00    +0.000 A 
BRANCH  24  25
ATOM     25  C   UNL     1       7.550   5.673  18.459  0.00  0.00    +0.000 C 
ATOM     26  F   UNL     1       8.152   6.889  18.334  0.00  0.00    +0.000 F 
ATOM     27  F   UNL     1       6.740   5.797  19.553  0.00  0.00    +0.000 F 
ATOM     28  F   UNL     1       8.528   4.801  18.824  0.00  0.00    +0.000 F 
ENDBRANCH  24  25
ENDBRANCH  18  19
ENDBRANCH   3  18
TORSDOF 6
ENDMDL
MODEL 7
REMARK VINA RESULT:      -7.5      4.430      8.142
REMARK  Name = 
REMARK  6 active torsions:
REMARK  status: ('A' for Active; 'I' for Inactive)
REMARK    1  A    between atoms: C_2  and  C_3
REMARK    2  A    between atoms: C_3  and  C_4
REMARK    3  A    between atoms: N_13  and  C_14
REMARK    4  A    between atoms: N_13  and  C_25
REMARK    5  A    between atoms: C_14  and  C_15
REMARK    6  A    between atoms: C_20  and  C_21
REMARK                            x       y       z     vdW  Elec       q    Type
REMARK                         _______ _______ _______ _____ _____    ______ ____
ROOT
ATOM      1  O   UNL     1       2.096   8.726  17.571  0.00  0.00    +0.000 OA
ATOM      2  C   UNL     1       1.863   8.594  18.775  0.00  0.00    +0.000 C 
ATOM      3  N   UNL     1       1.179   9.584  19.507  0.00  0.00    +0.000 N 
ENDROOT
BRANCH   3   4
ATOM      4  C   UNL     1       0.450   9.236  20.709  0.00  0.00    +0.000 C 
ATOM      5  C   UNL     1       0.018  10.218  21.765  0.00  0.00    +0.000 C 
ATOM      6  C   UNL     1       1.137   9.268  22.052  0.00  0.00    +0.000 C 
ENDBRANCH   3   4
BRANCH   2   7
ATOM      7  C   UNL     1       2.237   7.308  19.522  0.00  0.00    +0.000 C 
BRANCH   7   8
ATOM      8  C   UNL     1       2.931   6.293  18.664  0.00  0.00    +0.000 A 
ATOM      9  C   UNL     1       4.109   6.492  17.957  0.00  0.00    +0.000 A 
ATOM     10  N   UNL     1       4.437   5.318  17.327  0.00  0.00    +0.000 N 
ATOM     11  C   UNL     1       3.513   4.358  17.620  0.00  0.00    +0.000 A 
ATOM     12  N   UNL     1       3.558   3.096  17.157  0.00  0.00    +0.000 NA
ATOM     13  C   UNL     1       2.527   2.339  17.597  0.00  0.00    +0.000 A 
ATOM     14  C   UNL     1       1.509   2.771  18.438  0.00  0.00    +0.000 A 
ATOM     15  C   UNL     1       1.517   4.090  18.890  0.00  0.00    +0.000 A 
ATOM     16  C   UNL     1       2.561   4.925  18.457  0.00  0.00    +0.000 A 
ATOM     17  H   UNL     1       5.235   5.155  16.737  0.00  0.00    +0.000 HD
ENDBRANCH   7   8
ENDBRANCH   2   7
BRANCH   3  18
ATOM     18  C   UNL     1       0.742  10.782  18.767  0.00  0.00    +0.000 C 
BRANCH  18  19
ATOM     19  C   UNL     1      -0.733  10.811  18.374  0.00  0.00    +0.000 A 
ATOM     20  C   UNL     1      -1.277   9.805  17.554  0.00  0.00    +0.000 A 
ATOM     21  C   UNL     1      -2.648   9.753  17.283  0.00  0.00    +0.000 A 
ATOM     22  C   UNL     1      -3.504  10.702  17.827  0.00  0.00    +0.000 A 
ATOM     23  C   UNL     1      -2.978  11.757  18.563  0.00  0.00    +0.000 A 
ATOM     24  C   UNL     1      -1.588  11.859  18.797  0.00  0.00    +0.000 A 
BRANCH  24  25
ATOM     25  C   UNL     1      -1.105  13.135  19.455  0.00  0.00    +0.000 C 
ATOM     26  F   UNL     1      -0.141  12.959  20.402  0.00  0.00    +0.000 F 
ATOM     27  F   UNL     1      -0.546  13.989  18.545  0.00  0.00    +0.000 F 
ATOM     28  F   UNL     1      -2.102  13.840  20.055  0.00  0.00    +0.000 F 
ENDBRANCH  24  25
ENDBRANCH  18  19
ENDBRANCH   3  18
TORSDOF 6
ENDMDL
MODEL 8
REMARK VINA RESULT:      -7.5      4.183      7.834
REMARK  Name = 
REMARK  6 active torsions:
REMARK  status: ('A' for Active; 'I' for Inactive)
REMARK    1  A    between atoms: C_2  and  C_3
REMARK    2  A    between atoms: C_3  and  C_4
REMARK    3  A    between atoms: N_13  and  C_14
REMARK    4  A    between atoms: N_13  and  C_25
REMARK    5  A    between atoms: C_14  and  C_15
REMARK    6  A    between atoms: C_20  and  C_21
REMARK                            x       y       z     vdW  Elec       q    Type
REMARK                         _______ _______ _______ _____ _____    ______ ____
ROOT
ATOM      1  O   UNL     1       2.272   8.328  17.175  0.00  0.00    +0.000 OA
ATOM      2  C   UNL     1       2.324   8.144  18.393  0.00  0.00    +0.000 C 
ATOM      3  N   UNL     1       1.467   8.825  19.279  0.00  0.00    +0.000 N 
ENDROOT
BRANCH   3   4
ATOM      4  C   UNL     1       1.146   8.257  20.572  0.00  0.00    +0.000 C 
ATOM      5  C   UNL     1      -0.027   8.667  21.423  0.00  0.00    +0.000 C 
ATOM      6  C   UNL     1       1.358   9.061  21.831  0.00  0.00    +0.000 C 
ENDBRANCH   3   4
BRANCH   2   7
ATOM      7  C   UNL     1       3.272   7.103  19.001  0.00  0.00    +0.000 C 
BRANCH   7   8
ATOM      8  C   UNL     1       3.185   5.756  18.351  0.00  0.00    +0.000 A 
ATOM      9  C   UNL     1       3.961   5.310  17.290  0.00  0.00    +0.000 A 
ATOM     10  N   UNL     1       3.604   4.015  17.008  0.00  0.00    +0.000 N 
ATOM     11  C   UNL     1       2.629   3.603  17.868  0.00  0.00    +0.000 A 
ATOM     12  N   UNL     1       2.071   2.380  17.852  0.00  0.00    +0.000 NA
ATOM     13  C   UNL     1       1.131   2.219  18.810  0.00  0.00    +0.000 A 
ATOM     14  C   UNL     1       0.748   3.182  19.737  0.00  0.00    +0.000 A 
ATOM     15  C   UNL     1       1.364   4.432  19.708  0.00  0.00    +0.000 A 
ATOM     16  C   UNL     1       2.345   4.657  18.726  0.00  0.00    +0.000 A 
ATOM     17  H   UNL     1       3.989   3.429  16.287  0.00  0.00    +0.000 HD
ENDBRANCH   7   8
ENDBRANCH   2   7
BRANCH   3  18
ATOM     18  C   UNL     1       0.496   9.762  18.685  0.00  0.00    +0.000 C 
BRANCH  18  19
ATOM     19  C   UNL     1       0.886  11.236  18.738  0.00  0.00    +0.000 A 
ATOM     20  C   UNL     1       2.200  11.642  18.439  0.00  0.00    +0.000 A 
ATOM     21  C   UNL     1       2.542  12.996  18.368  0.00  0.00    +0.000 A 
ATOM     22  C   UNL     1       1.579  13.973  18.591  0.00  0.00    +0.000 A 
ATOM     23  C   UNL     1       0.298  13.596  18.977  0.00  0.00    +0.000 A 
ATOM     24  C   UNL     1      -0.049  12.233  19.113  0.00  0.00    +0.000 A 
BRANCH  24  25
ATOM     25  C   UNL     1      -1.410  11.938  19.709  0.00  0.00    +0.000 C 
ATOM     26  F   UNL     1      -2.115  10.964  19.068  0.00  0.00    +0.000 F 
ATOM     27  F   UNL     1      -1.309  11.501  21.000  0.00  0.00    +0.000 F 
ATOM     28  F   UNL     1      -2.224  13.027  19.754  0.00  0.00    +0.000 F 
ENDBRANCH  24  25
ENDBRANCH  18  19
ENDBRANCH   3  18
TORSDOF 6
ENDMDL
MODEL 9
REMARK VINA RESULT:      -7.4      0.757      1.203
REMARK  Name = 
REMARK  6 active torsions:
REMARK  status: ('A' for Active; 'I' for Inactive)
REMARK    1  A    between atoms: C_2  and  C_3
REMARK    2  A    between atoms: C_3  and  C_4
REMARK    3  A    between atoms: N_13  and  C_14
REMARK    4  A    between atoms: N_13  and  C_25
REMARK    5  A    between atoms: C_14  and  C_15
REMARK    6  A    between atoms: C_20  and  C_21
REMARK                            x       y       z     vdW  Elec       q    Type
REMARK                         _______ _______ _______ _____ _____    ______ ____
ROOT
ATOM      1  O   UNL     1       3.896   8.296  17.749  0.00  0.00    +0.000 OA
ATOM      2  C   UNL     1       2.986   7.586  18.182  0.00  0.00    +0.000 C 
ATOM      3  N   UNL     1       3.244   6.331  18.767  0.00  0.00    +0.000 N 
ENDROOT
BRANCH   3   4
ATOM      4  C   UNL     1       2.316   5.761  19.721  0.00  0.00    +0.000 C 
ATOM      5  C   UNL     1       2.585   4.536  20.554  0.00  0.00    +0.000 C 
ATOM      6  C   UNL     1       1.615   4.460  19.418  0.00  0.00    +0.000 C 
ENDBRANCH   3   4
BRANCH   2   7
ATOM      7  C   UNL     1       1.530   8.068  18.177  0.00  0.00    +0.000 C 
BRANCH   7   8
ATOM      8  C   UNL     1       1.300   9.300  18.998  0.00  0.00    +0.000 A 
ATOM      9  C   UNL     1       1.554  10.605  18.598  0.00  0.00    +0.000 A 
ATOM     10  N   UNL     1       1.179  11.448  19.614  0.00  0.00    +0.000 N 
ATOM     11  C   UNL     1       0.674  10.726  20.656  0.00  0.00    +0.000 A 
ATOM     12  N   UNL     1       0.216  11.264  21.800  0.00  0.00    +0.000 NA
ATOM     13  C   UNL     1      -0.236  10.336  22.673  0.00  0.00    +0.000 A 
ATOM     14  C   UNL     1      -0.249   8.963  22.458  0.00  0.00    +0.000 A 
ATOM     15  C   UNL     1       0.235   8.462  21.250  0.00  0.00    +0.000 A 
ATOM     16  C   UNL     1       0.725   9.383  20.308  0.00  0.00    +0.000 A 
ATOM     17  H   UNL     1       1.247  12.451  19.619  0.00  0.00    +0.000 HD
ENDBRANCH   7   8
ENDBRANCH   2   7
BRANCH   3  18
ATOM     18  C   UNL     1       4.654   5.908  18.850  0.00  0.00    +0.000 C 
BRANCH  18  19
ATOM     19  C   UNL     1       5.236   5.304  17.574  0.00  0.00    +0.000 A 
ATOM     20  C   UNL     1       4.661   4.158  16.995  0.00  0.00    +0.000 A 
ATOM     21  C   UNL     1       5.109   3.664  15.766  0.00  0.00    +0.000 A 
ATOM     22  C   UNL     1       6.137   4.306  15.087  0.00  0.00    +0.000 A 
ATOM     23  C   UNL     1       6.781   5.385  15.683  0.00  0.00    +0.000 A 
ATOM     24  C   UNL     1       6.382   5.860  16.952  0.00  0.00    +0.000 A 
BRANCH  24  25
ATOM     25  C   UNL     1       7.261   6.919  17.585  0.00  0.00    +0.000 C 
ATOM     26  F   UNL     1       6.600   8.037  17.998  0.00  0.00    +0.000 F 
ATOM     27  F   UNL     1       7.884   6.450  18.707  0.00  0.00    +0.000 F 
ATOM     28  F   UNL     1       8.258   7.349  16.765  0.00  0.00    +0.000 F 
ENDBRANCH  24  25
ENDBRANCH  18  19
ENDBRANCH   3  18
TORSDOF 6
ENDMDL
