MODEL 1
REMARK VINA RESULT:      -7.8      0.000      0.000
REMARK  Name = 
REMARK  8 active torsions:
REMARK  status: ('A' for Active; 'I' for Inactive)
REMARK    1  A    between atoms: C_1  and  N_2
REMARK    2  A    between atoms: C_6  and  C_7
REMARK    3  A    between atoms: C_7  and  C_8
REMARK    4  A    between atoms: C_8  and  C_9
REMARK    5  A    between atoms: C_13  and  N_14
REMARK    6  A    between atoms: C_17  and  C_18
REMARK    7  A    between atoms: C_18  and  C_20
REMARK    8  A    between atoms: C_20  and  C_21
REMARK                            x       y       z     vdW  Elec       q    Type
REMARK                         _______ _______ _______ _____ _____    ______ ____
ROOT
ATOM      1  C   UNL     1       2.438   7.502  18.920  0.00  0.00    +0.000 A 
ATOM      2  C   UNL     1       2.641   8.318  17.795  0.00  0.00    +0.000 A 
ATOM      3  C   UNL     1       2.003   9.548  17.666  0.00  0.00    +0.000 A 
ATOM      4  C   UNL     1       1.157  10.010  18.675  0.00  0.00    +0.000 A 
ATOM      5  C   UNL     1       0.957   9.279  19.850  0.00  0.00    +0.000 A 
ATOM      6  C   UNL     1       1.598   8.029  19.926  0.00  0.00    +0.000 A 
ENDROOT
BRANCH   5   7
ATOM      7  N   UNL     1       0.162   9.731  20.884  0.00  0.00    +0.000 N 
ATOM      8  C   UNL     1       0.150   9.026  22.173  0.00  0.00    +0.000 C 
ATOM      9  C   UNL     1      -0.497  10.018  23.073  0.00  0.00    +0.000 C 
ATOM     10  C   UNL     1      -0.763  11.161  22.428  0.00  0.00    +0.000 C 
ATOM     11  C   UNL     1      -0.298  11.113  21.016  0.00  0.00    +0.000 C 
BRANCH  10  12
ATOM     12  C   UNL     1      -1.385  12.342  23.070  0.00  0.00    +0.000 C 
ATOM     13  O   UNL     1      -0.782  13.418  23.106  0.00  0.00    +0.000 OA
BRANCH  12  14
ATOM     14  C   UNL     1      -2.807  12.236  23.605  0.00  0.00    +0.000 C 
BRANCH  14  15
ATOM     15  C   UNL     1      -3.739  12.471  22.514  0.00  0.00    +0.000 C 
ATOM     16  C   UNL     1      -3.721  12.992  21.325  0.00  0.00    +0.000 C 
ATOM     17  C   UNL     1      -5.079  12.786  22.265  0.00  0.00    +0.000 C 
ATOM     18  O   UNL     1      -6.027  12.335  21.665  0.00  0.00    +0.000 OA
ENDBRANCH  14  15
ENDBRANCH  12  14
ENDBRANCH  10  12
ENDBRANCH   5   7
BRANCH   1  19
ATOM     19  C   UNL     1       3.084   6.034  19.049  0.00  0.00    +0.000 C 
ATOM     20  C   UNL     1       3.390   5.258  17.732  0.00  0.00    +0.000 C 
ATOM     21  O   UNL     1       4.809   5.243  17.995  0.00  0.00    +0.000 OA
ATOM     22  C   UNL     1       4.635   6.012  19.198  0.00  0.00    +0.000 C 
BRANCH  19  23
ATOM     23  C   UNL     1       2.376   5.209  20.148  0.00  0.00    +0.000 C 
BRANCH  23  29
ATOM     24  C   UNL     1       4.029   2.464  20.106  0.00  0.00    +0.000 C 
ATOM     25  N   UNL     1       2.675   2.693  19.683  0.00  0.00    +0.000 N 
ATOM     26  C   UNL     1       1.877   1.741  19.123  0.00  0.00    +0.000 A 
ATOM     27  N   UNL     1       0.707   2.254  18.840  0.00  0.00    +0.000 NA
ATOM     28  N   UNL     1       0.735   3.574  19.210  0.00  0.00    +0.000 NA
ATOM     29  C   UNL     1       1.924   3.847  19.714  0.00  0.00    +0.000 A 
ENDBRANCH  23  29
ENDBRANCH  19  23
ENDBRANCH   1  19
TORSDOF 7
ENDMDL
MODEL 2
REMARK VINA RESULT:      -7.8      1.235      1.441
REMARK  Name = 
REMARK  8 active torsions:
REMARK  status: ('A' for Active; 'I' for Inactive)
REMARK    1  A    between atoms: C_1  and  N_2
REMARK    2  A    between atoms: C_6  and  C_7
REMARK    3  A    between atoms: C_7  and  C_8
REMARK    4  A    between atoms: C_8  and  C_9
REMARK    5  A    between atoms: C_13  and  N_14
REMARK    6  A    between atoms: C_17  and  C_18
REMARK    7  A    between atoms: C_18  and  C_20
REMARK    8  A    between atoms: C_20  and  C_21
REMARK                            x       y       z     vdW  Elec       q    Type
REMARK                         _______ _______ _______ _____ _____    ______ ____
ROOT
ATOM      1  C   UNL     1       2.569   7.356  18.617  0.00  0.00    +0.000 A 
ATOM      2  C   UNL     1       2.806   8.267  17.574  0.00  0.00    +0.000 A 
ATOM      3  C   UNL     1       2.230   9.534  17.571  0.00  0.00    +0.000 A 
ATOM      4  C   UNL     1       1.414   9.936  18.629  0.00  0.00    +0.000 A 
ATOM      5  C   UNL     1       1.184   9.106  19.729  0.00  0.00    +0.000 A 
ATOM      6  C   UNL     1       1.761   7.823  19.677  0.00  0.00    +0.000 A 
ENDROOT
BRANCH   5   7
ATOM      7  N   UNL     1       0.418   9.493  20.811  0.00  0.00    +0.000 N 
ATOM      8  C   UNL     1       0.552   8.803  22.100  0.00  0.00    +0.000 C 
ATOM      9  C   UNL     1      -0.125   9.741  23.036  0.00  0.00    +0.000 C 
ATOM     10  C   UNL     1      -0.535  10.848  22.404  0.00  0.00    +0.000 C 
ATOM     11  C   UNL     1      -0.158  10.828  20.965  0.00  0.00    +0.000 C 
BRANCH  10  12
ATOM     12  C   UNL     1      -1.222  11.973  23.079  0.00  0.00    +0.000 C 
ATOM     13  O   UNL     1      -0.602  13.006  23.348  0.00  0.00    +0.000 OA
BRANCH  12  14
ATOM     14  C   UNL     1      -2.716  11.876  23.358  0.00  0.00    +0.000 C 
BRANCH  14  15
ATOM     15  C   UNL     1      -3.291  13.210  23.315  0.00  0.00    +0.000 C 
ATOM     16  C   UNL     1      -3.923  14.014  24.115  0.00  0.00    +0.000 C 
ATOM     17  C   UNL     1      -3.949  14.093  22.453  0.00  0.00    +0.000 C 
ATOM     18  O   UNL     1      -3.812  15.211  22.012  0.00  0.00    +0.000 OA
ENDBRANCH  14  15
ENDBRANCH  12  14
ENDBRANCH  10  12
ENDBRANCH   5   7
BRANCH   1  19
ATOM     19  C   UNL     1       3.140   5.852  18.596  0.00  0.00    +0.000 C 
ATOM     20  C   UNL     1       4.103   5.458  17.435  0.00  0.00    +0.000 C 
ATOM     21  O   UNL     1       5.200   5.216  18.340  0.00  0.00    +0.000 OA
ATOM     22  C   UNL     1       4.409   5.623  19.471  0.00  0.00    +0.000 C 
BRANCH  19  23
ATOM     23  C   UNL     1       2.023   4.828  18.900  0.00  0.00    +0.000 C 
BRANCH  23  29
ATOM     24  C   UNL     1       3.522   1.999  19.036  0.00  0.00    +0.000 C 
ATOM     25  N   UNL     1       2.903   2.730  20.108  0.00  0.00    +0.000 N 
ATOM     26  C   UNL     1       2.812   2.277  21.390  0.00  0.00    +0.000 A 
ATOM     27  N   UNL     1       2.192   3.162  22.129  0.00  0.00    +0.000 NA
ATOM     28  N   UNL     1       1.858   4.216  21.318  0.00  0.00    +0.000 NA
ATOM     29  C   UNL     1       2.280   3.958  20.093  0.00  0.00    +0.000 A 
ENDBRANCH  23  29
ENDBRANCH  19  23
ENDBRANCH   1  19
TORSDOF 7
ENDMDL
MODEL 3
REMARK VINA RESULT:      -7.7      3.028      9.423
REMARK  Name = 
REMARK  8 active torsions:
REMARK  status: ('A' for Active; 'I' for Inactive)
REMARK    1  A    between atoms: C_1  and  N_2
REMARK    2  A    between atoms: C_6  and  C_7
REMARK    3  A    between atoms: C_7  and  C_8
REMARK    4  A    between atoms: C_8  and  C_9
REMARK    5  A    between atoms: C_13  and  N_14
REMARK    6  A    between atoms: C_17  and  C_18
REMARK    7  A    between atoms: C_18  and  C_20
REMARK    8  A    between atoms: C_20  and  C_21
REMARK                            x       y       z     vdW  Elec       q    Type
REMARK                         _______ _______ _______ _____ _____    ______ ____
ROOT
ATOM      1  C   UNL     1      -0.438  11.048  20.195  0.00  0.00    +0.000 A 
ATOM      2  C   UNL     1      -0.344  10.913  21.590  0.00  0.00    +0.000 A 
ATOM      3  C   UNL     1       0.380   9.876  22.172  0.00  0.00    +0.000 A 
ATOM      4  C   UNL     1       1.053   8.954  21.370  0.00  0.00    +0.000 A 
ATOM      5  C   UNL     1       1.054   9.063  19.977  0.00  0.00    +0.000 A 
ATOM      6  C   UNL     1       0.286  10.108  19.430  0.00  0.00    +0.000 A 
ENDROOT
BRANCH   5   7
ATOM      7  N   UNL     1       1.748   8.193  19.160  0.00  0.00    +0.000 N 
ATOM      8  C   UNL     1       2.422   8.687  17.952  0.00  0.00    +0.000 C 
ATOM      9  C   UNL     1       3.324   7.555  17.605  0.00  0.00    +0.000 C 
ATOM     10  C   UNL     1       3.243   6.572  18.511  0.00  0.00    +0.000 C 
ATOM     11  C   UNL     1       2.307   6.919  19.613  0.00  0.00    +0.000 C 
BRANCH  10  12
ATOM     12  C   UNL     1       4.040   5.326  18.444  0.00  0.00    +0.000 C 
ATOM     13  O   UNL     1       3.807   4.486  17.571  0.00  0.00    +0.000 OA
BRANCH  12  14
ATOM     14  C   UNL     1       5.204   5.133  19.408  0.00  0.00    +0.000 C 
BRANCH  14  15
ATOM     15  C   UNL     1       6.451   5.258  18.671  0.00  0.00    +0.000 C 
ATOM     16  C   UNL     1       7.153   6.199  18.115  0.00  0.00    +0.000 C 
ATOM     17  C   UNL     1       7.252   4.579  17.747  0.00  0.00    +0.000 C 
ATOM     18  O   UNL     1       8.384   4.166  17.650  0.00  0.00    +0.000 OA
ENDBRANCH  14  15
ENDBRANCH  12  14
ENDBRANCH  10  12
ENDBRANCH   5   7
BRANCH   1  19
ATOM     19  C   UNL     1      -1.349  12.176  19.497  0.00  0.00    +0.000 C 
ATOM     20  C   UNL     1      -1.356  13.599  20.134  0.00  0.00    +0.000 C 
ATOM     21  O   UNL     1      -0.777  14.200  18.956  0.00  0.00    +0.000 OA
ATOM     22  C   UNL     1      -0.670  12.920  18.308  0.00  0.00    +0.000 C 
BRANCH  19  23
ATOM     23  C   UNL     1      -2.740  11.616  19.123  0.00  0.00    +0.000 C 
BRANCH  23  29
ATOM     24  C   UNL     1      -5.234  12.130  17.178  0.00  0.00    +0.000 C 
ATOM     25  N   UNL     1      -4.000  11.454  16.883  0.00  0.00    +0.000 N 
ATOM     26  C   UNL     1      -3.722  10.857  15.690  0.00  0.00    +0.000 A 
ATOM     27  N   UNL     1      -2.527  10.324  15.730  0.00  0.00    +0.000 NA
ATOM     28  N   UNL     1      -2.009  10.566  16.976  0.00  0.00    +0.000 NA
ATOM     29  C   UNL     1      -2.898  11.243  17.681  0.00  0.00    +0.000 A 
ENDBRANCH  23  29
ENDBRANCH  19  23
ENDBRANCH   1  19
TORSDOF 7
ENDMDL
MODEL 4
REMARK VINA RESULT:      -7.7      2.308      3.313
REMARK  Name = 
REMARK  8 active torsions:
REMARK  status: ('A' for Active; 'I' for Inactive)
REMARK    1  A    between atoms: C_1  and  N_2
REMARK    2  A    between atoms: C_6  and  C_7
REMARK    3  A    between atoms: C_7  and  C_8
REMARK    4  A    between atoms: C_8  and  C_9
REMARK    5  A    between atoms: C_13  and  N_14
REMARK    6  A    between atoms: C_17  and  C_18
REMARK    7  A    between atoms: C_18  and  C_20
REMARK    8  A    between atoms: C_20  and  C_21
REMARK                            x       y       z     vdW  Elec       q    Type
REMARK                         _______ _______ _______ _____ _____    ______ ____
ROOT
ATOM      1  C   UNL     1       2.948   5.951  18.718  0.00  0.00    +0.000 A 
ATOM      2  C   UNL     1       3.527   6.672  17.660  0.00  0.00    +0.000 A 
ATOM      3  C   UNL     1       3.241   8.018  17.457  0.00  0.00    +0.000 A 
ATOM      4  C   UNL     1       2.380   8.692  18.325  0.00  0.00    +0.000 A 
ATOM      5  C   UNL     1       1.817   8.054  19.433  0.00  0.00    +0.000 A 
ATOM      6  C   UNL     1       2.110   6.686  19.584  0.00  0.00    +0.000 A 
ENDROOT
BRANCH   5   7
ATOM      7  N   UNL     1       0.999   8.706  20.335  0.00  0.00    +0.000 N 
ATOM      8  C   UNL     1       1.275   8.634  21.775  0.00  0.00    +0.000 C 
ATOM      9  C   UNL     1       0.435   9.736  22.317  0.00  0.00    +0.000 C 
ATOM     10  C   UNL     1      -0.188  10.401  21.336  0.00  0.00    +0.000 C 
ATOM     11  C   UNL     1       0.174   9.866  19.996  0.00  0.00    +0.000 C 
BRANCH  10  12
ATOM     12  C   UNL     1      -1.076  11.564  21.566  0.00  0.00    +0.000 C 
ATOM     13  O   UNL     1      -1.860  11.929  20.686  0.00  0.00    +0.000 OA
BRANCH  12  14
ATOM     14  C   UNL     1      -1.073  12.246  22.928  0.00  0.00    +0.000 C 
BRANCH  14  15
ATOM     15  C   UNL     1      -2.403  12.767  23.197  0.00  0.00    +0.000 C 
ATOM     16  C   UNL     1      -2.952  13.907  23.490  0.00  0.00    +0.000 C 
ATOM     17  C   UNL     1      -3.622  12.412  23.784  0.00  0.00    +0.000 C 
ATOM     18  O   UNL     1      -4.790  12.331  23.484  0.00  0.00    +0.000 OA
ENDBRANCH  14  15
ENDBRANCH  12  14
ENDBRANCH  10  12
ENDBRANCH   5   7
BRANCH   1  19
ATOM     19  C   UNL     1       3.183   4.372  18.917  0.00  0.00    +0.000 C 
ATOM     20  C   UNL     1       2.999   3.786  20.351  0.00  0.00    +0.000 C 
ATOM     21  O   UNL     1       1.893   2.955  19.939  0.00  0.00    +0.000 OA
ATOM     22  C   UNL     1       1.942   3.482  18.602  0.00  0.00    +0.000 C 
BRANCH  19  23
ATOM     23  C   UNL     1       4.451   3.898  18.172  0.00  0.00    +0.000 C 
BRANCH  23  29
ATOM     24  C   UNL     1       6.888   4.873  16.334  0.00  0.00    +0.000 C 
ATOM     25  N   UNL     1       6.755   4.973  17.762  0.00  0.00    +0.000 N 
ATOM     26  C   UNL     1       7.718   5.473  18.586  0.00  0.00    +0.000 A 
ATOM     27  N   UNL     1       7.305   5.427  19.827  0.00  0.00    +0.000 NA
ATOM     28  N   UNL     1       6.049   4.878  19.824  0.00  0.00    +0.000 NA
ATOM     29  C   UNL     1       5.713   4.595  18.579  0.00  0.00    +0.000 A 
ENDBRANCH  23  29
ENDBRANCH  19  23
ENDBRANCH   1  19
TORSDOF 7
ENDMDL
MODEL 5
REMARK VINA RESULT:      -7.6      3.116      4.582
REMARK  Name = 
REMARK  8 active torsions:
REMARK  status: ('A' for Active; 'I' for Inactive)
REMARK    1  A    between atoms: C_1  and  N_2
REMARK    2  A    between atoms: C_6  and  C_7
REMARK    3  A    between atoms: C_7  and  C_8
REMARK    4  A    between atoms: C_8  and  C_9
REMARK    5  A    between atoms: C_13  and  N_14
REMARK    6  A    between atoms: C_17  and  C_18
REMARK    7  A    between atoms: C_18  and  C_20
REMARK    8  A    between atoms: C_20  and  C_21
REMARK                            x       y       z     vdW  Elec       q    Type
REMARK                         _______ _______ _______ _____ _____    ______ ____
ROOT
ATOM      1  C   UNL     1       2.660   4.650  18.950  0.00  0.00    +0.000 A 
ATOM      2  C   UNL     1       2.065   4.157  20.123  0.00  0.00    +0.000 A 
ATOM      3  C   UNL     1       1.468   5.008  21.048  0.00  0.00    +0.000 A 
ATOM      4  C   UNL     1       1.430   6.383  20.813  0.00  0.00    +0.000 A 
ATOM      5  C   UNL     1       1.947   6.937  19.639  0.00  0.00    +0.000 A 
ATOM      6  C   UNL     1       2.567   6.043  18.745  0.00  0.00    +0.000 A 
ENDROOT
BRANCH   5   7
ATOM      7  N   UNL     1       1.883   8.287  19.358  0.00  0.00    +0.000 N 
ATOM      8  C   UNL     1       2.158   8.777  18.001  0.00  0.00    +0.000 C 
ATOM      9  C   UNL     1       1.621  10.165  18.047  0.00  0.00    +0.000 C 
ATOM     10  C   UNL     1       1.053  10.427  19.231  0.00  0.00    +0.000 C 
ATOM     11  C   UNL     1       1.094   9.245  20.133  0.00  0.00    +0.000 C 
BRANCH  10  12
ATOM     12  C   UNL     1       0.412  11.720  19.566  0.00  0.00    +0.000 C 
ATOM     13  O   UNL     1       0.435  12.141  20.725  0.00  0.00    +0.000 OA
BRANCH  12  14
ATOM     14  C   UNL     1      -0.198  12.560  18.452  0.00  0.00    +0.000 C 
BRANCH  14  15
ATOM     15  C   UNL     1      -1.534  12.065  18.166  0.00  0.00    +0.000 C 
ATOM     16  C   UNL     1      -2.601  11.731  18.827  0.00  0.00    +0.000 C 
ATOM     17  C   UNL     1      -2.230  11.233  17.283  0.00  0.00    +0.000 C 
ATOM     18  O   UNL     1      -3.159  11.294  16.511  0.00  0.00    +0.000 OA
ENDBRANCH  14  15
ENDBRANCH  12  14
ENDBRANCH  10  12
ENDBRANCH   5   7
BRANCH   1  19
ATOM     19  C   UNL     1       3.443   3.700  17.914  0.00  0.00    +0.000 C 
ATOM     20  C   UNL     1       4.217   2.477  18.495  0.00  0.00    +0.000 C 
ATOM     21  O   UNL     1       3.383   1.532  17.792  0.00  0.00    +0.000 OA
ATOM     22  C   UNL     1       2.569   2.590  17.255  0.00  0.00    +0.000 C 
BRANCH  19  23
ATOM     23  C   UNL     1       4.220   4.534  16.871  0.00  0.00    +0.000 C 
BRANCH  23  29
ATOM     24  C   UNL     1       6.077   5.442  19.319  0.00  0.00    +0.000 C 
ATOM     25  N   UNL     1       6.480   4.889  18.055  0.00  0.00    +0.000 N 
ATOM     26  C   UNL     1       7.777   4.714  17.675  0.00  0.00    +0.000 A 
ATOM     27  N   UNL     1       7.820   4.198  16.473  0.00  0.00    +0.000 NA
ATOM     28  N   UNL     1       6.527   4.037  16.046  0.00  0.00    +0.000 NA
ATOM     29  C   UNL     1       5.711   4.460  16.996  0.00  0.00    +0.000 A 
ENDBRANCH  23  29
ENDBRANCH  19  23
ENDBRANCH   1  19
TORSDOF 7
ENDMDL
MODEL 6
REMARK VINA RESULT:      -7.6      3.739      5.303
REMARK  Name = 
REMARK  8 active torsions:
REMARK  status: ('A' for Active; 'I' for Inactive)
REMARK    1  A    between atoms: C_1  and  N_2
REMARK    2  A    between atoms: C_6  and  C_7
REMARK    3  A    between atoms: C_7  and  C_8
REMARK    4  A    between atoms: C_8  and  C_9
REMARK    5  A    between atoms: C_13  and  N_14
REMARK    6  A    between atoms: C_17  and  C_18
REMARK    7  A    between atoms: C_18  and  C_20
REMARK    8  A    between atoms: C_20  and  C_21
REMARK                            x       y       z     vdW  Elec       q    Type
REMARK                         _______ _______ _______ _____ _____    ______ ____
ROOT
ATOM      1  C   UNL     1       5.461   5.287  18.684  0.00  0.00    +0.000 A 
ATOM      2  C   UNL     1       5.120   3.983  19.076  0.00  0.00    +0.000 A 
ATOM      3  C   UNL     1       3.891   3.700  19.666  0.00  0.00    +0.000 A 
ATOM      4  C   UNL     1       2.955   4.716  19.861  0.00  0.00    +0.000 A 
ATOM      5  C   UNL     1       3.203   6.025  19.440  0.00  0.00    +0.000 A 
ATOM      6  C   UNL     1       4.468   6.273  18.875  0.00  0.00    +0.000 A 
ENDROOT
BRANCH   5   7
ATOM      7  N   UNL     1       2.279   7.042  19.578  0.00  0.00    +0.000 N 
ATOM      8  C   UNL     1       1.652   7.303  20.880  0.00  0.00    +0.000 C 
ATOM      9  C   UNL     1       1.058   8.654  20.683  0.00  0.00    +0.000 C 
ATOM     10  C   UNL     1       1.351   9.142  19.472  0.00  0.00    +0.000 C 
ATOM     11  C   UNL     1       2.213   8.209  18.698  0.00  0.00    +0.000 C 
BRANCH  10  12
ATOM     12  C   UNL     1       0.916  10.476  18.997  0.00  0.00    +0.000 C 
ATOM     13  O   UNL     1       1.585  11.084  18.157  0.00  0.00    +0.000 OA
BRANCH  12  14
ATOM     14  C   UNL     1      -0.407  11.048  19.489  0.00  0.00    +0.000 C 
BRANCH  14  15
ATOM     15  C   UNL     1      -1.400  10.910  18.437  0.00  0.00    +0.000 C 
ATOM     16  C   UNL     1      -2.562  11.406  18.136  0.00  0.00    +0.000 C 
ATOM     17  C   UNL     1      -1.956   9.963  17.570  0.00  0.00    +0.000 C 
ATOM     18  O   UNL     1      -2.116   9.794  16.384  0.00  0.00    +0.000 OA
ENDBRANCH  14  15
ENDBRANCH  12  14
ENDBRANCH  10  12
ENDBRANCH   5   7
BRANCH   1  19
ATOM     19  C   UNL     1       6.910   5.660  18.093  0.00  0.00    +0.000 C 
ATOM     20  C   UNL     1       7.122   7.106  17.549  0.00  0.00    +0.000 C 
ATOM     21  O   UNL     1       8.123   7.403  18.545  0.00  0.00    +0.000 OA
ATOM     22  C   UNL     1       7.955   6.112  19.157  0.00  0.00    +0.000 C 
BRANCH  19  23
ATOM     23  C   UNL     1       7.448   4.531  17.184  0.00  0.00    +0.000 C 
BRANCH  23  29
ATOM     24  C   UNL     1       4.887   3.276  15.724  0.00  0.00    +0.000 C 
ATOM     25  N   UNL     1       5.946   4.059  15.146  0.00  0.00    +0.000 N 
ATOM     26  C   UNL     1       6.046   4.347  13.818  0.00  0.00    +0.000 A 
ATOM     27  N   UNL     1       7.117   5.068  13.602  0.00  0.00    +0.000 NA
ATOM     28  N   UNL     1       7.741   5.252  14.809  0.00  0.00    +0.000 NA
ATOM     29  C   UNL     1       7.041   4.638  15.746  0.00  0.00    +0.000 A 
ENDBRANCH  23  29
ENDBRANCH  19  23
ENDBRANCH   1  19
TORSDOF 7
ENDMDL
MODEL 7
REMARK VINA RESULT:      -7.5      1.145      1.202
REMARK  Name = 
REMARK  8 active torsions:
REMARK  status: ('A' for Active; 'I' for Inactive)
REMARK    1  A    between atoms: C_1  and  N_2
REMARK    2  A    between atoms: C_6  and  C_7
REMARK    3  A    between atoms: C_7  and  C_8
REMARK    4  A    between atoms: C_8  and  C_9
REMARK    5  A    between atoms: C_13  and  N_14
REMARK    6  A    between atoms: C_17  and  C_18
REMARK    7  A    between atoms: C_18  and  C_20
REMARK    8  A    between atoms: C_20  and  C_21
REMARK                            x       y       z     vdW  Elec       q    Type
REMARK                         _______ _______ _______ _____ _____    ______ ____
ROOT
ATOM      1  C   UNL     1       2.381   7.315  18.705  0.00  0.00    +0.000 A 
ATOM      2  C   UNL     1       2.713   8.207  17.672  0.00  0.00    +0.000 A 
ATOM      3  C   UNL     1       2.203   9.502  17.638  0.00  0.00    +0.000 A 
ATOM      4  C   UNL     1       1.360   9.951  18.656  0.00  0.00    +0.000 A 
ATOM      5  C   UNL     1       1.038   9.139  19.746  0.00  0.00    +0.000 A 
ATOM      6  C   UNL     1       1.551   7.828  19.725  0.00  0.00    +0.000 A 
ENDROOT
BRANCH   5   7
ATOM      7  N   UNL     1       0.244   9.570  20.790  0.00  0.00    +0.000 N 
ATOM      8  C   UNL     1       0.197   8.815  22.049  0.00  0.00    +0.000 C 
ATOM      9  C   UNL     1      -0.433   9.788  22.982  0.00  0.00    +0.000 C 
ATOM     10  C   UNL     1      -0.659  10.963  22.381  0.00  0.00    +0.000 C 
ATOM     11  C   UNL     1      -0.180  10.958  20.972  0.00  0.00    +0.000 C 
BRANCH  10  12
ATOM     12  C   UNL     1      -1.257  12.134  23.063  0.00  0.00    +0.000 C 
ATOM     13  O   UNL     1      -0.558  13.110  23.345  0.00  0.00    +0.000 OA
BRANCH  12  14
ATOM     14  C   UNL     1      -2.756  12.154  23.333  0.00  0.00    +0.000 C 
BRANCH  14  15
ATOM     15  C   UNL     1      -3.447  12.550  22.117  0.00  0.00    +0.000 C 
ATOM     16  C   UNL     1      -3.290  13.405  21.153  0.00  0.00    +0.000 C 
ATOM     17  C   UNL     1      -4.732  12.697  21.584  0.00  0.00    +0.000 C 
ATOM     18  O   UNL     1      -5.383  12.297  20.646  0.00  0.00    +0.000 OA
ENDBRANCH  14  15
ENDBRANCH  12  14
ENDBRANCH  10  12
ENDBRANCH   5   7
BRANCH   1  19
ATOM     19  C   UNL     1       2.875   5.784  18.715  0.00  0.00    +0.000 C 
ATOM     20  C   UNL     1       1.930   4.713  18.089  0.00  0.00    +0.000 C 
ATOM     21  O   UNL     1       2.885   4.379  17.059  0.00  0.00    +0.000 OA
ATOM     22  C   UNL     1       3.800   5.387  17.525  0.00  0.00    +0.000 C 
BRANCH  19  23
ATOM     23  C   UNL     1       3.482   5.403  20.084  0.00  0.00    +0.000 C 
BRANCH  23  29
ATOM     24  C   UNL     1       4.346   2.331  19.796  0.00  0.00    +0.000 C 
ATOM     25  N   UNL     1       3.254   2.881  20.553  0.00  0.00    +0.000 N 
ATOM     26  C   UNL     1       2.352   2.133  21.247  0.00  0.00    +0.000 A 
ATOM     27  N   UNL     1       1.478   2.918  21.825  0.00  0.00    +0.000 NA
ATOM     28  N   UNL     1       1.804   4.209  21.499  0.00  0.00    +0.000 NA
ATOM     29  C   UNL     1       2.874   4.193  20.724  0.00  0.00    +0.000 A 
ENDBRANCH  23  29
ENDBRANCH  19  23
ENDBRANCH   1  19
TORSDOF 7
ENDMDL
MODEL 8
REMARK VINA RESULT:      -7.5      1.929      2.460
REMARK  Name = 
REMARK  8 active torsions:
REMARK  status: ('A' for Active; 'I' for Inactive)
REMARK    1  A    between atoms: C_1  and  N_2
REMARK    2  A    between atoms: C_6  and  C_7
REMARK    3  A    between atoms: C_7  and  C_8
REMARK    4  A    between atoms: C_8  and  C_9
REMARK    5  A    between atoms: C_13  and  N_14
REMARK    6  A    between atoms: C_17  and  C_18
REMARK    7  A    between atoms: C_18  and  C_20
REMARK    8  A    between atoms: C_20  and  C_21
REMARK                            x       y       z     vdW  Elec       q    Type
REMARK                         _______ _______ _______ _____ _____    ______ ____
ROOT
ATOM      1  C   UNL     1       2.042   7.551  19.318  0.00  0.00    +0.000 A 
ATOM      2  C   UNL     1       2.404   8.249  18.154  0.00  0.00    +0.000 A 
ATOM      3  C   UNL     1       1.923   9.530  17.897  0.00  0.00    +0.000 A 
ATOM      4  C   UNL     1       1.081  10.161  18.813  0.00  0.00    +0.000 A 
ATOM      5  C   UNL     1       0.728   9.550  20.019  0.00  0.00    +0.000 A 
ATOM      6  C   UNL     1       1.212   8.245  20.225  0.00  0.00    +0.000 A 
ENDROOT
BRANCH   5   7
ATOM      7  N   UNL     1      -0.066  10.167  20.965  0.00  0.00    +0.000 N 
ATOM      8  C   UNL     1      -0.274   9.546  22.280  0.00  0.00    +0.000 C 
ATOM      9  C   UNL     1      -0.836  10.670  23.078  0.00  0.00    +0.000 C 
ATOM     10  C   UNL     1      -0.886  11.799  22.361  0.00  0.00    +0.000 C 
ATOM     11  C   UNL     1      -0.331  11.605  20.994  0.00  0.00    +0.000 C 
BRANCH  10  12
ATOM     12  C   UNL     1      -1.378  13.090  22.895  0.00  0.00    +0.000 C 
ATOM     13  O   UNL     1      -0.725  13.697  23.748  0.00  0.00    +0.000 OA
BRANCH  12  14
ATOM     14  C   UNL     1      -2.648  13.701  22.318  0.00  0.00    +0.000 C 
BRANCH  14  15
ATOM     15  C   UNL     1      -3.755  13.423  23.218  0.00  0.00    +0.000 C 
ATOM     16  C   UNL     1      -4.763  14.060  23.733  0.00  0.00    +0.000 C 
ATOM     17  C   UNL     1      -4.086  12.671  24.350  0.00  0.00    +0.000 C 
ATOM     18  O   UNL     1      -4.895  11.839  24.688  0.00  0.00    +0.000 OA
ENDBRANCH  14  15
ENDBRANCH  12  14
ENDBRANCH  10  12
ENDBRANCH   5   7
BRANCH   1  19
ATOM     19  C   UNL     1       2.501   6.033  19.592  0.00  0.00    +0.000 C 
ATOM     20  C   UNL     1       1.921   5.316  20.850  0.00  0.00    +0.000 C 
ATOM     21  O   UNL     1       1.241   4.326  20.051  0.00  0.00    +0.000 OA
ATOM     22  C   UNL     1       1.675   4.953  18.831  0.00  0.00    +0.000 C 
BRANCH  19  23
ATOM     23  C   UNL     1       4.023   5.865  19.383  0.00  0.00    +0.000 C 
BRANCH  23  29
ATOM     24  C   UNL     1       4.480   2.729  18.914  0.00  0.00    +0.000 C 
ATOM     25  N   UNL     1       4.624   3.800  17.966  0.00  0.00    +0.000 N 
ATOM     26  C   UNL     1       5.050   3.634  16.683  0.00  0.00    +0.000 A 
ATOM     27  N   UNL     1       5.082   4.792  16.074  0.00  0.00    +0.000 NA
ATOM     28  N   UNL     1       4.679   5.743  16.975  0.00  0.00    +0.000 NA
ATOM     29  C   UNL     1       4.407   5.151  18.124  0.00  0.00    +0.000 A 
ENDBRANCH  23  29
ENDBRANCH  19  23
ENDBRANCH   1  19
TORSDOF 7
ENDMDL
MODEL 9
REMARK VINA RESULT:      -7.5      2.970      8.811
REMARK  Name = 
REMARK  8 active torsions:
REMARK  status: ('A' for Active; 'I' for Inactive)
REMARK    1  A    between atoms: C_1  and  N_2
REMARK    2  A    between atoms: C_6  and  C_7
REMARK    3  A    between atoms: C_7  and  C_8
REMARK    4  A    between atoms: C_8  and  C_9
REMARK    5  A    between atoms: C_13  and  N_14
REMARK    6  A    between atoms: C_17  and  C_18
REMARK    7  A    between atoms: C_18  and  C_20
REMARK    8  A    between atoms: C_20  and  C_21
REMARK                            x       y       z     vdW  Elec       q    Type
REMARK                         _______ _______ _______ _____ _____    ______ ____
ROOT
ATOM      1  C   UNL     1      -0.601  11.139  20.397  0.00  0.00    +0.000 A 
ATOM      2  C   UNL     1      -0.625  11.049  21.798  0.00  0.00    +0.000 A 
ATOM      3  C   UNL     1      -0.014   9.992  22.468  0.00  0.00    +0.000 A 
ATOM      4  C   UNL     1       0.661   9.003  21.752  0.00  0.00    +0.000 A 
ATOM      5  C   UNL     1       0.778   9.062  20.361  0.00  0.00    +0.000 A 
ATOM      6  C   UNL     1       0.121  10.131  19.722  0.00  0.00    +0.000 A 
ENDROOT
BRANCH   5   7
ATOM      7  N   UNL     1       1.478   8.124  19.629  0.00  0.00    +0.000 N 
ATOM      8  C   UNL     1       2.089   8.489  18.344  0.00  0.00    +0.000 C 
ATOM      9  C   UNL     1       3.024   7.356  18.102  0.00  0.00    +0.000 C 
ATOM     10  C   UNL     1       3.014   6.491  19.124  0.00  0.00    +0.000 C 
ATOM     11  C   UNL     1       2.103   6.937  20.212  0.00  0.00    +0.000 C 
BRANCH  10  12
ATOM     12  C   UNL     1       3.859   5.275  19.179  0.00  0.00    +0.000 C 
ATOM     13  O   UNL     1       4.967   5.314  19.722  0.00  0.00    +0.000 OA
BRANCH  12  14
ATOM     14  C   UNL     1       3.311   3.961  18.637  0.00  0.00    +0.000 C 
BRANCH  14  15
ATOM     15  C   UNL     1       2.669   3.237  19.721  0.00  0.00    +0.000 C 
ATOM     16  C   UNL     1       1.683   2.406  19.874  0.00  0.00    +0.000 C 
ATOM     17  C   UNL     1       2.336   3.356  21.074  0.00  0.00    +0.000 C 
ATOM     18  O   UNL     1       2.524   2.772  22.116  0.00  0.00    +0.000 OA
ENDBRANCH  14  15
ENDBRANCH  12  14
ENDBRANCH  10  12
ENDBRANCH   5   7
BRANCH   1  19
ATOM     19  C   UNL     1      -1.382  12.293  19.593  0.00  0.00    +0.000 C 
ATOM     20  C   UNL     1      -1.299  13.748  20.150  0.00  0.00    +0.000 C 
ATOM     21  O   UNL     1      -0.620  14.229  18.971  0.00  0.00    +0.000 OA
ATOM     22  C   UNL     1      -0.591  12.909  18.400  0.00  0.00    +0.000 C 
BRANCH  19  23
ATOM     23  C   UNL     1      -2.797  11.827  19.183  0.00  0.00    +0.000 C 
BRANCH  23  29
ATOM     24  C   UNL     1      -5.281  12.077  17.175  0.00  0.00    +0.000 C 
ATOM     25  N   UNL     1      -4.010  11.447  16.943  0.00  0.00    +0.000 N 
ATOM     26  C   UNL     1      -3.683  10.784  15.799  0.00  0.00    +0.000 A 
ATOM     27  N   UNL     1      -2.463  10.316  15.891  0.00  0.00    +0.000 NA
ATOM     28  N   UNL     1      -1.979  10.669  17.125  0.00  0.00    +0.000 NA
ATOM     29  C   UNL     1      -2.912  11.347  17.768  0.00  0.00    +0.000 A 
ENDBRANCH  23  29
ENDBRANCH  19  23
ENDBRANCH   1  19
TORSDOF 7
ENDMDL
