MODEL 1
REMARK VINA RESULT:      -8.7      0.000      0.000
REMARK  Name = 
REMARK  7 active torsions:
REMARK  status: ('A' for Active; 'I' for Inactive)
REMARK    1  A    between atoms: C_1  and  C_2
REMARK    2  A    between atoms: C_2  and  N_3
REMARK    3  A    between atoms: C_7  and  C_8
REMARK    4  A    between atoms: C_8  and  C_9
REMARK    5  A    between atoms: C_9  and  C_10
REMARK    6  A    between atoms: C_14  and  N_15
REMARK    7  A    between atoms: C_22  and  C_23
REMARK                            x       y       z     vdW  Elec       q    Type
REMARK                         _______ _______ _______ _____ _____    ______ ____
ROOT
ATOM      1  C   UNL     1       1.833   7.203  19.982  0.00  0.00    +0.000 A 
ATOM      2  C   UNL     1       2.298   8.137  19.045  0.00  0.00    +0.000 A 
ATOM      3  C   UNL     1       2.990   7.721  17.913  0.00  0.00    +0.000 A 
ATOM      4  C   UNL     1       3.334   6.383  17.771  0.00  0.00    +0.000 A 
ATOM      5  C   UNL     1       3.108   5.493  18.834  0.00  0.00    +0.000 A 
ATOM      6  C   UNL     1       2.223   5.866  19.855  0.00  0.00    +0.000 A 
ENDROOT
BRANCH   5   7
ATOM      7  N   UNL     1       4.115   4.486  19.150  0.00  0.00    +0.000 N 
ATOM      8  C   UNL     1       5.453   5.120  19.257  0.00  0.00    +0.000 C 
ATOM      9  C   UNL     1       5.964   5.007  17.852  0.00  0.00    +0.000 A 
ATOM     10  C   UNL     1       5.347   3.892  17.275  0.00  0.00    +0.000 A 
ATOM     11  C   UNL     1       5.459   3.579  15.934  0.00  0.00    +0.000 A 
ATOM     12  C   UNL     1       6.207   4.445  15.138  0.00  0.00    +0.000 A 
ATOM     13  C   UNL     1       6.818   5.584  15.700  0.00  0.00    +0.000 A 
ATOM     14  C   UNL     1       6.710   5.889  17.073  0.00  0.00    +0.000 A 
ATOM     15  C   UNL     1       4.266   3.455  18.188  0.00  0.00    +0.000 C 
ATOM     16  O   UNL     1       3.545   2.506  17.979  0.00  0.00    +0.000 OA
BRANCH  14  17
ATOM     17  C   UNL     1       7.290   7.181  17.590  0.00  0.00    +0.000 C 
ATOM     18  F   UNL     1       6.365   8.141  17.858  0.00  0.00    +0.000 F 
ATOM     19  F   UNL     1       7.983   7.004  18.747  0.00  0.00    +0.000 F 
ATOM     20  F   UNL     1       8.167   7.743  16.712  0.00  0.00    +0.000 F 
ENDBRANCH  14  17
ENDBRANCH   5   7
BRANCH   1  21
ATOM     21  C   UNL     1       1.042   7.654  21.185  0.00  0.00    +0.000 C 
BRANCH  21  22
ATOM     22  C   UNL     1       1.583   8.966  21.758  0.00  0.00    +0.000 C 
BRANCH  22  27
ATOM     23  N   UNL     1      -0.140  10.782  21.295  0.00  0.00    +0.000 N 
ATOM     24  C   UNL     1      -1.042  11.451  22.067  0.00  0.00    +0.000 A 
ATOM     25  N   UNL     1      -1.002  10.990  23.293  0.00  0.00    +0.000 NA
ATOM     26  N   UNL     1      -0.041  10.011  23.334  0.00  0.00    +0.000 NA
ATOM     27  C   UNL     1       0.480   9.888  22.128  0.00  0.00    +0.000 A 
BRANCH  23  29
ATOM     28  C   UNL     1      -0.970  10.302  19.021  0.00  0.00    +0.000 C 
ATOM     29  C   UNL     1       0.066  11.005  19.882  0.00  0.00    +0.000 C 
ENDBRANCH  23  29
ENDBRANCH  22  27
ENDBRANCH  21  22
ENDBRANCH   1  21
TORSDOF 6
ENDMDL
MODEL 2
REMARK VINA RESULT:      -8.4      4.469      6.792
REMARK  Name = 
REMARK  7 active torsions:
REMARK  status: ('A' for Active; 'I' for Inactive)
REMARK    1  A    between atoms: C_1  and  C_2
REMARK    2  A    between atoms: C_2  and  N_3
REMARK    3  A    between atoms: C_7  and  C_8
REMARK    4  A    between atoms: C_8  and  C_9
REMARK    5  A    between atoms: C_9  and  C_10
REMARK    6  A    between atoms: C_14  and  N_15
REMARK    7  A    between atoms: C_22  and  C_23
REMARK                            x       y       z     vdW  Elec       q    Type
REMARK                         _______ _______ _______ _____ _____    ______ ____
ROOT
ATOM      1  C   UNL     1       7.837   7.652  17.802  0.00  0.00    +0.000 A 
ATOM      2  C   UNL     1       7.864   6.829  18.936  0.00  0.00    +0.000 A 
ATOM      3  C   UNL     1       7.731   5.450  18.813  0.00  0.00    +0.000 A 
ATOM      4  C   UNL     1       7.443   4.894  17.572  0.00  0.00    +0.000 A 
ATOM      5  C   UNL     1       7.148   5.737  16.489  0.00  0.00    +0.000 A 
ATOM      6  C   UNL     1       7.502   7.091  16.565  0.00  0.00    +0.000 A 
ENDROOT
BRANCH   5   7
ATOM      7  N   UNL     1       6.075   5.373  15.571  0.00  0.00    +0.000 N 
ATOM      8  C   UNL     1       4.899   6.253  15.788  0.00  0.00    +0.000 C 
ATOM      9  C   UNL     1       4.117   5.482  16.809  0.00  0.00    +0.000 A 
ATOM     10  C   UNL     1       4.427   4.130  16.633  0.00  0.00    +0.000 A 
ATOM     11  C   UNL     1       4.012   3.142  17.506  0.00  0.00    +0.000 A 
ATOM     12  C   UNL     1       3.273   3.543  18.617  0.00  0.00    +0.000 A 
ATOM     13  C   UNL     1       2.969   4.904  18.819  0.00  0.00    +0.000 A 
ATOM     14  C   UNL     1       3.384   5.905  17.916  0.00  0.00    +0.000 A 
ATOM     15  C   UNL     1       5.580   4.051  15.707  0.00  0.00    +0.000 C 
ATOM     16  O   UNL     1       6.089   3.014  15.345  0.00  0.00    +0.000 OA
BRANCH  14  17
ATOM     17  C   UNL     1       3.126   7.353  18.249  0.00  0.00    +0.000 C 
ATOM     18  F   UNL     1       2.149   7.933  17.501  0.00  0.00    +0.000 F 
ATOM     19  F   UNL     1       2.745   7.519  19.544  0.00  0.00    +0.000 F 
ATOM     20  F   UNL     1       4.234   8.128  18.082  0.00  0.00    +0.000 F 
ENDBRANCH  14  17
ENDBRANCH   5   7
BRANCH   1  21
ATOM     21  C   UNL     1       8.030   9.144  17.934  0.00  0.00    +0.000 C 
BRANCH  21  22
ATOM     22  C   UNL     1       9.021   9.488  19.047  0.00  0.00    +0.000 C 
BRANCH  22  27
ATOM     23  N   UNL     1       9.550  11.841  19.862  0.00  0.00    +0.000 N 
ATOM     24  C   UNL     1      10.064  12.956  19.270  0.00  0.00    +0.000 A 
ATOM     25  N   UNL     1      10.376  12.690  18.024  0.00  0.00    +0.000 NA
ATOM     26  N   UNL     1      10.043  11.381  17.786  0.00  0.00    +0.000 NA
ATOM     27  C   UNL     1       9.543  10.870  18.896  0.00  0.00    +0.000 A 
BRANCH  23  29
ATOM     28  C   UNL     1       9.356  13.053  22.003  0.00  0.00    +0.000 C 
ATOM     29  C   UNL     1       9.129  11.758  21.242  0.00  0.00    +0.000 C 
ENDBRANCH  23  29
ENDBRANCH  22  27
ENDBRANCH  21  22
ENDBRANCH   1  21
TORSDOF 6
ENDMDL
MODEL 3
REMARK VINA RESULT:      -8.3      0.911      1.258
REMARK  Name = 
REMARK  7 active torsions:
REMARK  status: ('A' for Active; 'I' for Inactive)
REMARK    1  A    between atoms: C_1  and  C_2
REMARK    2  A    between atoms: C_2  and  N_3
REMARK    3  A    between atoms: C_7  and  C_8
REMARK    4  A    between atoms: C_8  and  C_9
REMARK    5  A    between atoms: C_9  and  C_10
REMARK    6  A    between atoms: C_14  and  N_15
REMARK    7  A    between atoms: C_22  and  C_23
REMARK                            x       y       z     vdW  Elec       q    Type
REMARK                         _______ _______ _______ _____ _____    ______ ____
ROOT
ATOM      1  C   UNL     1       2.009   7.479  19.992  0.00  0.00    +0.000 A 
ATOM      2  C   UNL     1       2.377   8.256  18.886  0.00  0.00    +0.000 A 
ATOM      3  C   UNL     1       2.861   7.656  17.728  0.00  0.00    +0.000 A 
ATOM      4  C   UNL     1       3.100   6.288  17.710  0.00  0.00    +0.000 A 
ATOM      5  C   UNL     1       2.989   5.551  18.900  0.00  0.00    +0.000 A 
ATOM      6  C   UNL     1       2.295   6.110  19.983  0.00  0.00    +0.000 A 
ENDROOT
BRANCH   5   7
ATOM      7  N   UNL     1       3.971   4.514  19.194  0.00  0.00    +0.000 N 
ATOM      8  C   UNL     1       5.329   5.108  19.283  0.00  0.00    +0.000 C 
ATOM      9  C   UNL     1       5.813   4.990  17.869  0.00  0.00    +0.000 A 
ATOM     10  C   UNL     1       5.156   3.897  17.296  0.00  0.00    +0.000 A 
ATOM     11  C   UNL     1       5.237   3.590  15.950  0.00  0.00    +0.000 A 
ATOM     12  C   UNL     1       5.996   4.439  15.148  0.00  0.00    +0.000 A 
ATOM     13  C   UNL     1       6.648   5.557  15.707  0.00  0.00    +0.000 A 
ATOM     14  C   UNL     1       6.572   5.855  17.083  0.00  0.00    +0.000 A 
ATOM     15  C   UNL     1       4.078   3.485  18.223  0.00  0.00    +0.000 C 
ATOM     16  O   UNL     1       3.326   2.559  18.021  0.00  0.00    +0.000 OA
BRANCH  14  17
ATOM     17  C   UNL     1       7.197   7.127  17.598  0.00  0.00    +0.000 C 
ATOM     18  F   UNL     1       8.082   7.703  16.740  0.00  0.00    +0.000 F 
ATOM     19  F   UNL     1       6.266   8.084  17.862  0.00  0.00    +0.000 F 
ATOM     20  F   UNL     1       7.876   6.937  18.763  0.00  0.00    +0.000 F 
ENDBRANCH  14  17
ENDBRANCH   5   7
BRANCH   1  21
ATOM     21  C   UNL     1       1.440   8.129  21.230  0.00  0.00    +0.000 C 
BRANCH  21  22
ATOM     22  C   UNL     1       0.096   8.803  20.946  0.00  0.00    +0.000 C 
BRANCH  22  27
ATOM     23  N   UNL     1      -0.443  11.128  20.060  0.00  0.00    +0.000 N 
ATOM     24  C   UNL     1       0.037  12.376  20.321  0.00  0.00    +0.000 A 
ATOM     25  N   UNL     1       0.936  12.314  21.272  0.00  0.00    +0.000 NA
ATOM     26  N   UNL     1       1.065  10.995  21.631  0.00  0.00    +0.000 NA
ATOM     27  C   UNL     1       0.234  10.281  20.897  0.00  0.00    +0.000 A 
BRANCH  23  29
ATOM     28  C   UNL     1      -0.915  10.197  17.823  0.00  0.00    +0.000 C 
ATOM     29  C   UNL     1      -1.471  10.823  19.091  0.00  0.00    +0.000 C 
ENDBRANCH  23  29
ENDBRANCH  22  27
ENDBRANCH  21  22
ENDBRANCH   1  21
TORSDOF 6
ENDMDL
MODEL 4
REMARK VINA RESULT:      -8.3      0.788      1.114
REMARK  Name = 
REMARK  7 active torsions:
REMARK  status: ('A' for Active; 'I' for Inactive)
REMARK    1  A    between atoms: C_1  and  C_2
REMARK    2  A    between atoms: C_2  and  N_3
REMARK    3  A    between atoms: C_7  and  C_8
REMARK    4  A    between atoms: C_8  and  C_9
REMARK    5  A    between atoms: C_9  and  C_10
REMARK    6  A    between atoms: C_14  and  N_15
REMARK    7  A    between atoms: C_22  and  C_23
REMARK                            x       y       z     vdW  Elec       q    Type
REMARK                         _______ _______ _______ _____ _____    ______ ____
ROOT
ATOM      1  C   UNL     1       2.080   7.600  19.604  0.00  0.00    +0.000 A 
ATOM      2  C   UNL     1       2.520   8.312  18.479  0.00  0.00    +0.000 A 
ATOM      3  C   UNL     1       3.096   7.647  17.401  0.00  0.00    +0.000 A 
ATOM      4  C   UNL     1       3.352   6.285  17.490  0.00  0.00    +0.000 A 
ATOM      5  C   UNL     1       3.162   5.624  18.714  0.00  0.00    +0.000 A 
ATOM      6  C   UNL     1       2.383   6.239  19.704  0.00  0.00    +0.000 A 
ENDROOT
BRANCH   5   7
ATOM      7  N   UNL     1       4.132   4.624  19.145  0.00  0.00    +0.000 N 
ATOM      8  C   UNL     1       5.472   5.245  19.294  0.00  0.00    +0.000 C 
ATOM      9  C   UNL     1       6.061   5.045  17.929  0.00  0.00    +0.000 A 
ATOM     10  C   UNL     1       5.461   3.906  17.383  0.00  0.00    +0.000 A 
ATOM     11  C   UNL     1       5.645   3.516  16.069  0.00  0.00    +0.000 A 
ATOM     12  C   UNL     1       6.451   4.324  15.271  0.00  0.00    +0.000 A 
ATOM     13  C   UNL     1       7.046   5.486  15.802  0.00  0.00    +0.000 A 
ATOM     14  C   UNL     1       6.865   5.871  17.147  0.00  0.00    +0.000 A 
ATOM     15  C   UNL     1       4.322   3.537  18.254  0.00  0.00    +0.000 C 
ATOM     16  O   UNL     1       3.599   2.587  18.058  0.00  0.00    +0.000 OA
BRANCH  14  17
ATOM     17  C   UNL     1       7.435   7.183  17.622  0.00  0.00    +0.000 C 
ATOM     18  F   UNL     1       8.174   7.093  18.760  0.00  0.00    +0.000 F 
ATOM     19  F   UNL     1       8.254   7.750  16.696  0.00  0.00    +0.000 F 
ATOM     20  F   UNL     1       6.466   8.106  17.878  0.00  0.00    +0.000 F 
ENDBRANCH  14  17
ENDBRANCH   5   7
BRANCH   1  21
ATOM     21  C   UNL     1       1.413   8.319  20.751  0.00  0.00    +0.000 C 
BRANCH  21  22
ATOM     22  C   UNL     1       0.719   9.601  20.287  0.00  0.00    +0.000 C 
BRANCH  22  27
ATOM     23  N   UNL     1      -0.858  11.318  21.309  0.00  0.00    +0.000 N 
ATOM     24  C   UNL     1      -1.200  11.649  22.586  0.00  0.00    +0.000 A 
ATOM     25  N   UNL     1      -0.590  10.850  23.428  0.00  0.00    +0.000 NA
ATOM     26  N   UNL     1       0.184   9.989  22.691  0.00  0.00    +0.000 NA
ATOM     27  C   UNL     1       0.023  10.274  21.413  0.00  0.00    +0.000 A 
BRANCH  23  29
ATOM     28  C   UNL     1      -2.742  12.580  20.334  0.00  0.00    +0.000 C 
ATOM     29  C   UNL     1      -1.368  11.967  20.123  0.00  0.00    +0.000 C 
ENDBRANCH  23  29
ENDBRANCH  22  27
ENDBRANCH  21  22
ENDBRANCH   1  21
TORSDOF 6
ENDMDL
MODEL 5
REMARK VINA RESULT:      -8.2      4.420      6.925
REMARK  Name = 
REMARK  7 active torsions:
REMARK  status: ('A' for Active; 'I' for Inactive)
REMARK    1  A    between atoms: C_1  and  C_2
REMARK    2  A    between atoms: C_2  and  N_3
REMARK    3  A    between atoms: C_7  and  C_8
REMARK    4  A    between atoms: C_8  and  C_9
REMARK    5  A    between atoms: C_9  and  C_10
REMARK    6  A    between atoms: C_14  and  N_15
REMARK    7  A    between atoms: C_22  and  C_23
REMARK                            x       y       z     vdW  Elec       q    Type
REMARK                         _______ _______ _______ _____ _____    ______ ____
ROOT
ATOM      1  C   UNL     1       7.647   7.741  17.764  0.00  0.00    +0.000 A 
ATOM      2  C   UNL     1       7.831   6.940  18.900  0.00  0.00    +0.000 A 
ATOM      3  C   UNL     1       7.823   5.553  18.797  0.00  0.00    +0.000 A 
ATOM      4  C   UNL     1       7.506   4.954  17.584  0.00  0.00    +0.000 A 
ATOM      5  C   UNL     1       7.057   5.749  16.518  0.00  0.00    +0.000 A 
ATOM      6  C   UNL     1       7.283   7.132  16.559  0.00  0.00    +0.000 A 
ENDROOT
BRANCH   5   7
ATOM      7  N   UNL     1       5.963   5.271  15.680  0.00  0.00    +0.000 N 
ATOM      8  C   UNL     1       4.760   6.118  15.880  0.00  0.00    +0.000 C 
ATOM      9  C   UNL     1       4.056   5.401  16.992  0.00  0.00    +0.000 A 
ATOM     10  C   UNL     1       4.416   4.052  16.908  0.00  0.00    +0.000 A 
ATOM     11  C   UNL     1       4.080   3.122  17.874  0.00  0.00    +0.000 A 
ATOM     12  C   UNL     1       3.371   3.581  18.982  0.00  0.00    +0.000 A 
ATOM     13  C   UNL     1       3.018   4.941  19.090  0.00  0.00    +0.000 A 
ATOM     14  C   UNL     1       3.352   5.882  18.094  0.00  0.00    +0.000 A 
ATOM     15  C   UNL     1       5.532   3.945  15.941  0.00  0.00    +0.000 C 
ATOM     16  O   UNL     1       6.069   2.904  15.638  0.00  0.00    +0.000 OA
BRANCH  14  17
ATOM     17  C   UNL     1       3.046   7.340  18.324  0.00  0.00    +0.000 C 
ATOM     18  F   UNL     1       4.110   8.169  18.151  0.00  0.00    +0.000 F 
ATOM     19  F   UNL     1       2.082   7.800  17.481  0.00  0.00    +0.000 F 
ATOM     20  F   UNL     1       2.586   7.581  19.583  0.00  0.00    +0.000 F 
ENDBRANCH  14  17
ENDBRANCH   5   7
BRANCH   1  21
ATOM     21  C   UNL     1       7.703   9.245  17.871  0.00  0.00    +0.000 C 
BRANCH  21  22
ATOM     22  C   UNL     1       9.037   9.721  18.449  0.00  0.00    +0.000 C 
BRANCH  22  27
ATOM     23  N   UNL     1       9.947  11.979  19.193  0.00  0.00    +0.000 N 
ATOM     24  C   UNL     1       9.692  13.268  18.832  0.00  0.00    +0.000 A 
ATOM     25  N   UNL     1       8.813  13.290  17.861  0.00  0.00    +0.000 NA
ATOM     26  N   UNL     1       8.468  11.990  17.588  0.00  0.00    +0.000 NA
ATOM     27  C   UNL     1       9.152  11.200  18.394  0.00  0.00    +0.000 A 
BRANCH  23  29
ATOM     28  C   UNL     1      12.333  11.831  19.807  0.00  0.00    +0.000 C 
ATOM     29  C   UNL     1      10.890  11.576  20.211  0.00  0.00    +0.000 C 
ENDBRANCH  23  29
ENDBRANCH  22  27
ENDBRANCH  21  22
ENDBRANCH   1  21
TORSDOF 6
ENDMDL
MODEL 6
REMARK VINA RESULT:      -8.2      4.310      6.555
REMARK  Name = 
REMARK  7 active torsions:
REMARK  status: ('A' for Active; 'I' for Inactive)
REMARK    1  A    between atoms: C_1  and  C_2
REMARK    2  A    between atoms: C_2  and  N_3
REMARK    3  A    between atoms: C_7  and  C_8
REMARK    4  A    between atoms: C_8  and  C_9
REMARK    5  A    between atoms: C_9  and  C_10
REMARK    6  A    between atoms: C_14  and  N_15
REMARK    7  A    between atoms: C_22  and  C_23
REMARK                            x       y       z     vdW  Elec       q    Type
REMARK                         _______ _______ _______ _____ _____    ______ ____
ROOT
ATOM      1  C   UNL     1       7.798   7.695  17.894  0.00  0.00    +0.000 A 
ATOM      2  C   UNL     1       7.845   6.829  18.997  0.00  0.00    +0.000 A 
ATOM      3  C   UNL     1       7.747   5.453  18.821  0.00  0.00    +0.000 A 
ATOM      4  C   UNL     1       7.476   4.938  17.560  0.00  0.00    +0.000 A 
ATOM      5  C   UNL     1       7.159   5.813  16.509  0.00  0.00    +0.000 A 
ATOM      6  C   UNL     1       7.478   7.172  16.637  0.00  0.00    +0.000 A 
ENDROOT
BRANCH   5   7
ATOM      7  N   UNL     1       6.097   5.456  15.576  0.00  0.00    +0.000 N 
ATOM      8  C   UNL     1       4.902   6.303  15.817  0.00  0.00    +0.000 C 
ATOM      9  C   UNL     1       4.134   5.482  16.810  0.00  0.00    +0.000 A 
ATOM     10  C   UNL     1       4.474   4.144  16.590  0.00  0.00    +0.000 A 
ATOM     11  C   UNL     1       4.078   3.119  17.430  0.00  0.00    +0.000 A 
ATOM     12  C   UNL     1       3.326   3.468  18.550  0.00  0.00    +0.000 A 
ATOM     13  C   UNL     1       2.993   4.815  18.796  0.00  0.00    +0.000 A 
ATOM     14  C   UNL     1       3.389   5.854  17.927  0.00  0.00    +0.000 A 
ATOM     15  C   UNL     1       5.631   4.120  15.667  0.00  0.00    +0.000 C 
ATOM     16  O   UNL     1       6.162   3.107  15.273  0.00  0.00    +0.000 OA
BRANCH  14  17
ATOM     17  C   UNL     1       3.099   7.284  18.306  0.00  0.00    +0.000 C 
ATOM     18  F   UNL     1       2.781   7.462  19.616  0.00  0.00    +0.000 F 
ATOM     19  F   UNL     1       4.161   8.100  18.071  0.00  0.00    +0.000 F 
ATOM     20  F   UNL     1       2.061   7.808  17.596  0.00  0.00    +0.000 F 
ENDBRANCH  14  17
ENDBRANCH   5   7
BRANCH   1  21
ATOM     21  C   UNL     1       7.951   9.184  18.083  0.00  0.00    +0.000 C 
BRANCH  21  22
ATOM     22  C   UNL     1       9.305   9.538  18.700  0.00  0.00    +0.000 C 
BRANCH  22  27
ATOM     23  N   UNL     1       9.223  12.055  19.072  0.00  0.00    +0.000 N 
ATOM     24  C   UNL     1       9.178  12.849  20.179  0.00  0.00    +0.000 A 
ATOM     25  N   UNL     1       9.123  12.103  21.255  0.00  0.00    +0.000 NA
ATOM     26  N   UNL     1       9.152  10.792  20.850  0.00  0.00    +0.000 NA
ATOM     27  C   UNL     1       9.214  10.765  19.532  0.00  0.00    +0.000 A 
BRANCH  23  29
ATOM     28  C   UNL     1      10.645  12.977  17.278  0.00  0.00    +0.000 C 
ATOM     29  C   UNL     1       9.257  12.537  17.710  0.00  0.00    +0.000 C 
ENDBRANCH  23  29
ENDBRANCH  22  27
ENDBRANCH  21  22
ENDBRANCH   1  21
TORSDOF 6
ENDMDL
MODEL 7
REMARK VINA RESULT:      -8.1      2.208      3.019
REMARK  Name = 
REMARK  7 active torsions:
REMARK  status: ('A' for Active; 'I' for Inactive)
REMARK    1  A    between atoms: C_1  and  C_2
REMARK    2  A    between atoms: C_2  and  N_3
REMARK    3  A    between atoms: C_7  and  C_8
REMARK    4  A    between atoms: C_8  and  C_9
REMARK    5  A    between atoms: C_9  and  C_10
REMARK    6  A    between atoms: C_14  and  N_15
REMARK    7  A    between atoms: C_22  and  C_23
REMARK                            x       y       z     vdW  Elec       q    Type
REMARK                         _______ _______ _______ _____ _____    ______ ____
ROOT
ATOM      1  C   UNL     1       1.179   8.788  20.004  0.00  0.00    +0.000 A 
ATOM      2  C   UNL     1       1.704   9.325  18.820  0.00  0.00    +0.000 A 
ATOM      3  C   UNL     1       2.377   8.514  17.913  0.00  0.00    +0.000 A 
ATOM      4  C   UNL     1       2.643   7.190  18.238  0.00  0.00    +0.000 A 
ATOM      5  C   UNL     1       2.358   6.725  19.532  0.00  0.00    +0.000 A 
ATOM      6  C   UNL     1       1.490   7.468  20.345  0.00  0.00    +0.000 A 
ENDROOT
BRANCH   5   7
ATOM      7  N   UNL     1       3.301   5.832  20.195  0.00  0.00    +0.000 N 
ATOM      8  C   UNL     1       4.453   5.553  19.301  0.00  0.00    +0.000 C 
ATOM      9  C   UNL     1       3.992   4.324  18.575  0.00  0.00    +0.000 A 
ATOM     10  C   UNL     1       3.103   3.653  19.420  0.00  0.00    +0.000 A 
ATOM     11  C   UNL     1       2.357   2.562  19.015  0.00  0.00    +0.000 A 
ATOM     12  C   UNL     1       2.500   2.148  17.692  0.00  0.00    +0.000 A 
ATOM     13  C   UNL     1       3.378   2.826  16.823  0.00  0.00    +0.000 A 
ATOM     14  C   UNL     1       4.146   3.930  17.248  0.00  0.00    +0.000 A 
ATOM     15  C   UNL     1       2.786   4.558  20.548  0.00  0.00    +0.000 C 
ATOM     16  O   UNL     1       2.046   4.271  21.461  0.00  0.00    +0.000 OA
BRANCH  14  17
ATOM     17  C   UNL     1       4.978   4.682  16.240  0.00  0.00    +0.000 C 
ATOM     18  F   UNL     1       4.624   5.986  16.084  0.00  0.00    +0.000 F 
ATOM     19  F   UNL     1       6.297   4.697  16.574  0.00  0.00    +0.000 F 
ATOM     20  F   UNL     1       4.914   4.127  14.998  0.00  0.00    +0.000 F 
ENDBRANCH  14  17
ENDBRANCH   5   7
BRANCH   1  21
ATOM     21  C   UNL     1       0.408   9.661  20.965  0.00  0.00    +0.000 C 
BRANCH  21  22
ATOM     22  C   UNL     1       0.405  11.125  20.519  0.00  0.00    +0.000 C 
BRANCH  22  27
ATOM     23  N   UNL     1      -1.773  11.905  19.457  0.00  0.00    +0.000 N 
ATOM     24  C   UNL     1      -2.907  12.488  19.939  0.00  0.00    +0.000 A 
ATOM     25  N   UNL     1      -2.821  12.611  21.241  0.00  0.00    +0.000 NA
ATOM     26  N   UNL     1      -1.599  12.116  21.622  0.00  0.00    +0.000 NA
ATOM     27  C   UNL     1      -0.967  11.693  20.544  0.00  0.00    +0.000 A 
BRANCH  23  29
ATOM     28  C   UNL     1      -1.856  10.139  17.735  0.00  0.00    +0.000 C 
ATOM     29  C   UNL     1      -1.534  11.586  18.068  0.00  0.00    +0.000 C 
ENDBRANCH  23  29
ENDBRANCH  22  27
ENDBRANCH  21  22
ENDBRANCH   1  21
TORSDOF 6
ENDMDL
MODEL 8
REMARK VINA RESULT:      -8.1      3.589      4.858
REMARK  Name = 
REMARK  7 active torsions:
REMARK  status: ('A' for Active; 'I' for Inactive)
REMARK    1  A    between atoms: C_1  and  C_2
REMARK    2  A    between atoms: C_2  and  N_3
REMARK    3  A    between atoms: C_7  and  C_8
REMARK    4  A    between atoms: C_8  and  C_9
REMARK    5  A    between atoms: C_9  and  C_10
REMARK    6  A    between atoms: C_14  and  N_15
REMARK    7  A    between atoms: C_22  and  C_23
REMARK                            x       y       z     vdW  Elec       q    Type
REMARK                         _______ _______ _______ _____ _____    ______ ____
ROOT
ATOM      1  C   UNL     1       1.439   9.138  19.110  0.00  0.00    +0.000 A 
ATOM      2  C   UNL     1       1.098   8.572  20.347  0.00  0.00    +0.000 A 
ATOM      3  C   UNL     1       1.704   7.397  20.779  0.00  0.00    +0.000 A 
ATOM      4  C   UNL     1       2.560   6.710  19.927  0.00  0.00    +0.000 A 
ATOM      5  C   UNL     1       2.691   7.129  18.593  0.00  0.00    +0.000 A 
ATOM      6  C   UNL     1       2.265   8.418  18.241  0.00  0.00    +0.000 A 
ENDROOT
BRANCH   5   7
ATOM      7  N   UNL     1       2.761   6.130  17.533  0.00  0.00    +0.000 N 
ATOM      8  C   UNL     1       1.799   5.032  17.804  0.00  0.00    +0.000 C 
ATOM      9  C   UNL     1       2.638   4.071  18.592  0.00  0.00    +0.000 A 
ATOM     10  C   UNL     1       3.966   4.261  18.198  0.00  0.00    +0.000 A 
ATOM     11  C   UNL     1       5.034   3.657  18.835  0.00  0.00    +0.000 A 
ATOM     12  C   UNL     1       4.746   2.846  19.931  0.00  0.00    +0.000 A 
ATOM     13  C   UNL     1       3.415   2.660  20.352  0.00  0.00    +0.000 A 
ATOM     14  C   UNL     1       2.329   3.269  19.688  0.00  0.00    +0.000 A 
ATOM     15  C   UNL     1       4.019   5.494  17.380  0.00  0.00    +0.000 C 
ATOM     16  O   UNL     1       5.030   5.932  16.879  0.00  0.00    +0.000 OA
BRANCH  14  17
ATOM     17  C   UNL     1       0.940   3.123  20.258  0.00  0.00    +0.000 C 
ATOM     18  F   UNL     1       0.301   4.303  20.481  0.00  0.00    +0.000 F 
ATOM     19  F   UNL     1       0.123   2.412  19.436  0.00  0.00    +0.000 F 
ATOM     20  F   UNL     1       0.936   2.465  21.450  0.00  0.00    +0.000 F 
ENDBRANCH  14  17
ENDBRANCH   5   7
BRANCH   1  21
ATOM     21  C   UNL     1       0.815  10.438  18.665  0.00  0.00    +0.000 C 
BRANCH  21  22
ATOM     22  C   UNL     1      -0.437  10.202  17.818  0.00  0.00    +0.000 C 
BRANCH  22  27
ATOM     23  N   UNL     1      -2.878  10.921  17.863  0.00  0.00    +0.000 N 
ATOM     24  C   UNL     1      -3.606  11.755  18.658  0.00  0.00    +0.000 A 
ATOM     25  N   UNL     1      -2.846  12.228  19.615  0.00  0.00    +0.000 NA
ATOM     26  N   UNL     1      -1.588  11.710  19.436  0.00  0.00    +0.000 NA
ATOM     27  C   UNL     1      -1.609  10.923  18.377  0.00  0.00    +0.000 A 
BRANCH  23  29
ATOM     28  C   UNL     1      -3.103  10.883  15.405  0.00  0.00    +0.000 C 
ATOM     29  C   UNL     1      -3.401  10.196  16.727  0.00  0.00    +0.000 C 
ENDBRANCH  23  29
ENDBRANCH  22  27
ENDBRANCH  21  22
ENDBRANCH   1  21
TORSDOF 6
ENDMDL
MODEL 9
REMARK VINA RESULT:      -8.1      3.666      4.963
REMARK  Name = 
REMARK  7 active torsions:
REMARK  status: ('A' for Active; 'I' for Inactive)
REMARK    1  A    between atoms: C_1  and  C_2
REMARK    2  A    between atoms: C_2  and  N_3
REMARK    3  A    between atoms: C_7  and  C_8
REMARK    4  A    between atoms: C_8  and  C_9
REMARK    5  A    between atoms: C_9  and  C_10
REMARK    6  A    between atoms: C_14  and  N_15
REMARK    7  A    between atoms: C_22  and  C_23
REMARK                            x       y       z     vdW  Elec       q    Type
REMARK                         _______ _______ _______ _____ _____    ______ ____
ROOT
ATOM      1  C   UNL     1       1.465   9.198  19.032  0.00  0.00    +0.000 A 
ATOM      2  C   UNL     1       1.088   8.654  20.268  0.00  0.00    +0.000 A 
ATOM      3  C   UNL     1       1.653   7.466  20.720  0.00  0.00    +0.000 A 
ATOM      4  C   UNL     1       2.503   6.748  19.890  0.00  0.00    +0.000 A 
ATOM      5  C   UNL     1       2.669   7.150  18.555  0.00  0.00    +0.000 A 
ATOM      6  C   UNL     1       2.285   8.447  18.183  0.00  0.00    +0.000 A 
ENDROOT
BRANCH   5   7
ATOM      7  N   UNL     1       2.728   6.140  17.505  0.00  0.00    +0.000 N 
ATOM      8  C   UNL     1       1.774   5.042  17.800  0.00  0.00    +0.000 C 
ATOM      9  C   UNL     1       2.626   4.093  18.588  0.00  0.00    +0.000 A 
ATOM     10  C   UNL     1       3.949   4.283  18.174  0.00  0.00    +0.000 A 
ATOM     11  C   UNL     1       5.027   3.689  18.804  0.00  0.00    +0.000 A 
ATOM     12  C   UNL     1       4.756   2.889  19.912  0.00  0.00    +0.000 A 
ATOM     13  C   UNL     1       3.431   2.704  20.353  0.00  0.00    +0.000 A 
ATOM     14  C   UNL     1       2.334   3.302  19.697  0.00  0.00    +0.000 A 
ATOM     15  C   UNL     1       3.987   5.506  17.342  0.00  0.00    +0.000 C 
ATOM     16  O   UNL     1       4.989   5.942  16.823  0.00  0.00    +0.000 OA
BRANCH  14  17
ATOM     17  C   UNL     1       0.954   3.157  20.286  0.00  0.00    +0.000 C 
ATOM     18  F   UNL     1       0.920   2.504  21.478  0.00  0.00    +0.000 F 
ATOM     19  F   UNL     1       0.366   4.363  20.511  0.00  0.00    +0.000 F 
ATOM     20  F   UNL     1       0.108   2.477  19.463  0.00  0.00    +0.000 F 
ENDBRANCH  14  17
ENDBRANCH   5   7
BRANCH   1  21
ATOM     21  C   UNL     1       0.885  10.511  18.565  0.00  0.00    +0.000 C 
BRANCH  21  22
ATOM     22  C   UNL     1      -0.383  10.875  19.339  0.00  0.00    +0.000 C 
BRANCH  22  27
ATOM     23  N   UNL     1      -2.760  11.508  18.684  0.00  0.00    +0.000 N 
ATOM     24  C   UNL     1      -3.582  11.165  17.653  0.00  0.00    +0.000 A 
ATOM     25  N   UNL     1      -2.948  10.369  16.828  0.00  0.00    +0.000 NA
ATOM     26  N   UNL     1      -1.688  10.169  17.336  0.00  0.00    +0.000 NA
ATOM     27  C   UNL     1      -1.577  10.856  18.456  0.00  0.00    +0.000 A 
BRANCH  23  29
ATOM     28  C   UNL     1      -4.617  12.611  19.879  0.00  0.00    +0.000 C 
ATOM     29  C   UNL     1      -3.116  12.400  19.764  0.00  0.00    +0.000 C 
ENDBRANCH  23  29
ENDBRANCH  22  27
ENDBRANCH  21  22
ENDBRANCH   1  21
TORSDOF 6
ENDMDL
