MODEL 1
REMARK VINA RESULT:      -8.8      0.000      0.000
REMARK  Name = 
REMARK  4 active torsions:
REMARK  status: ('A' for Active; 'I' for Inactive)
REMARK    1  A    between atoms: C_2  and  C_19
REMARK    2  A    between atoms: N_3  and  C_4
REMARK    3  A    between atoms: C_7  and  S_8
REMARK    4  A    between atoms: S_8  and  N_11
REMARK                            x       y       z     vdW  Elec       q    Type
REMARK                         _______ _______ _______ _____ _____    ______ ____
ROOT
ATOM      1  O   UNL     1       8.925   8.773  19.231  0.00  0.00    +0.000 OA
ATOM      2  C   UNL     1       8.471   9.394  18.272  0.00  0.00    +0.000 C 
ATOM      3  N   UNL     1       7.530   8.913  17.380  0.00  0.00    +0.000 N 
ATOM      4  H   UNL     1       7.380   9.454  16.537  0.00  0.00    +0.000 HD
ENDROOT
BRANCH   2   5
ATOM      5  C   UNL     1       8.965  10.782  17.986  0.00  0.00    +0.000 A 
ATOM      6  C   UNL     1      10.298  10.932  17.946  0.00  0.00    +0.000 A 
ATOM      7  C   UNL     1      10.867  12.273  17.784  0.00  0.00    +0.000 A 
ATOM      8  O   UNL     1      12.074  12.444  17.684  0.00  0.00    +0.000 OA
ATOM      9  C   UNL     1       9.910  13.385  17.779  0.00  0.00    +0.000 A 
ATOM     10  C   UNL     1      10.365  14.707  17.794  0.00  0.00    +0.000 A 
ATOM     11  C   UNL     1       9.441  15.749  17.784  0.00  0.00    +0.000 A 
ATOM     12  C   UNL     1       8.074  15.467  17.737  0.00  0.00    +0.000 A 
ATOM     13  C   UNL     1       7.624  14.142  17.733  0.00  0.00    +0.000 A 
ATOM     14  C   UNL     1       8.545  13.097  17.772  0.00  0.00    +0.000 A 
ATOM     15  O   UNL     1       8.050  11.813  17.828  0.00  0.00    +0.000 OA
ENDBRANCH   2   5
BRANCH   3  16
ATOM     16  C   UNL     1       6.903   7.644  17.468  0.00  0.00    +0.000 A 
ATOM     17  C   UNL     1       5.641   7.383  16.920  0.00  0.00    +0.000 A 
ATOM     18  C   UNL     1       4.988   6.167  17.147  0.00  0.00    +0.000 A 
ATOM     19  C   UNL     1       5.610   5.179  17.906  0.00  0.00    +0.000 A 
ATOM     20  C   UNL     1       6.896   5.400  18.410  0.00  0.00    +0.000 A 
ATOM     21  C   UNL     1       7.550   6.623  18.171  0.00  0.00    +0.000 A 
BRANCH  19  22
ATOM     22  S   UNL     1       4.649   3.781  18.472  0.00  0.00    +0.000 S 
ATOM     23  O   UNL     1       4.448   2.932  17.317  0.00  0.00    +0.000 OA
ATOM     24  O   UNL     1       5.303   3.275  19.660  0.00  0.00    +0.000 OA
BRANCH  22  25
ATOM     25  N   UNL     1       3.153   4.386  18.921  0.00  0.00    +0.000 NA
ATOM     26  C   UNL     1       2.815   4.597  20.344  0.00  0.00    +0.000 C 
ATOM     27  C   UNL     1       1.893   3.485  20.855  0.00  0.00    +0.000 C 
ATOM     28  O   UNL     1       0.738   3.306  20.022  0.00  0.00    +0.000 OA
ATOM     29  C   UNL     1       1.099   3.039  18.658  0.00  0.00    +0.000 C 
ATOM     30  C   UNL     1       1.954   4.165  18.083  0.00  0.00    +0.000 C 
ENDBRANCH  22  25
ENDBRANCH  19  22
ENDBRANCH   3  16
TORSDOF 4
ENDMDL
MODEL 2
REMARK VINA RESULT:      -8.6      6.009      8.072
REMARK  Name = 
REMARK  4 active torsions:
REMARK  status: ('A' for Active; 'I' for Inactive)
REMARK    1  A    between atoms: C_2  and  C_19
REMARK    2  A    between atoms: N_3  and  C_4
REMARK    3  A    between atoms: C_7  and  S_8
REMARK    4  A    between atoms: S_8  and  N_11
REMARK                            x       y       z     vdW  Elec       q    Type
REMARK                         _______ _______ _______ _____ _____    ______ ____
ROOT
ATOM      1  O   UNL     1       2.113  10.585  17.969  0.00  0.00    +0.000 OA
ATOM      2  C   UNL     1       1.195  10.085  18.615  0.00  0.00    +0.000 C 
ATOM      3  N   UNL     1       1.155   8.781  19.073  0.00  0.00    +0.000 N 
ATOM      4  H   UNL     1       0.268   8.448  19.431  0.00  0.00    +0.000 HD
ENDROOT
BRANCH   2   5
ATOM      5  C   UNL     1      -0.019  10.907  18.937  0.00  0.00    +0.000 A 
ATOM      6  C   UNL     1       0.076  11.691  20.022  0.00  0.00    +0.000 A 
ATOM      7  C   UNL     1      -1.099  12.441  20.474  0.00  0.00    +0.000 A 
ATOM      8  O   UNL     1      -1.036  13.211  21.422  0.00  0.00    +0.000 OA
ATOM      9  C   UNL     1      -2.346  12.189  19.743  0.00  0.00    +0.000 A 
ATOM     10  C   UNL     1      -3.552  12.730  20.201  0.00  0.00    +0.000 A 
ATOM     11  C   UNL     1      -4.725  12.484  19.491  0.00  0.00    +0.000 A 
ATOM     12  C   UNL     1      -4.685  11.720  18.322  0.00  0.00    +0.000 A 
ATOM     13  C   UNL     1      -3.477  11.173  17.875  0.00  0.00    +0.000 A 
ATOM     14  C   UNL     1      -2.306  11.393  18.599  0.00  0.00    +0.000 A 
ATOM     15  O   UNL     1      -1.155  10.782  18.151  0.00  0.00    +0.000 OA
ENDBRANCH   2   5
BRANCH   3  16
ATOM     16  C   UNL     1       2.199   7.833  18.912  0.00  0.00    +0.000 A 
ATOM     17  C   UNL     1       3.002   7.781  17.766  0.00  0.00    +0.000 A 
ATOM     18  C   UNL     1       3.925   6.747  17.573  0.00  0.00    +0.000 A 
ATOM     19  C   UNL     1       4.078   5.765  18.548  0.00  0.00    +0.000 A 
ATOM     20  C   UNL     1       3.326   5.837  19.726  0.00  0.00    +0.000 A 
ATOM     21  C   UNL     1       2.405   6.884  19.916  0.00  0.00    +0.000 A 
BRANCH  19  22
ATOM     22  S   UNL     1       4.996   4.282  18.155  0.00  0.00    +0.000 S 
ATOM     23  O   UNL     1       5.582   4.502  16.849  0.00  0.00    +0.000 OA
ATOM     24  O   UNL     1       5.829   3.987  19.302  0.00  0.00    +0.000 OA
BRANCH  22  25
ATOM     25  N   UNL     1       3.868   3.053  18.002  0.00  0.00    +0.000 NA
ATOM     26  C   UNL     1       2.647   3.240  17.192  0.00  0.00    +0.000 C 
ATOM     27  C   UNL     1       1.429   3.482  18.091  0.00  0.00    +0.000 C 
ATOM     28  O   UNL     1       1.287   2.472  19.102  0.00  0.00    +0.000 OA
ATOM     29  C   UNL     1       2.467   2.359  19.914  0.00  0.00    +0.000 C 
ATOM     30  C   UNL     1       3.693   2.037  19.062  0.00  0.00    +0.000 C 
ENDBRANCH  22  25
ENDBRANCH  19  22
ENDBRANCH   3  16
TORSDOF 4
ENDMDL
MODEL 3
REMARK VINA RESULT:      -8.6      5.940      8.410
REMARK  Name = 
REMARK  4 active torsions:
REMARK  status: ('A' for Active; 'I' for Inactive)
REMARK    1  A    between atoms: C_2  and  C_19
REMARK    2  A    between atoms: N_3  and  C_4
REMARK    3  A    between atoms: C_7  and  S_8
REMARK    4  A    between atoms: S_8  and  N_11
REMARK                            x       y       z     vdW  Elec       q    Type
REMARK                         _______ _______ _______ _____ _____    ______ ____
ROOT
ATOM      1  O   UNL     1       1.186   9.616  20.619  0.00  0.00    +0.000 OA
ATOM      2  C   UNL     1       0.653   9.573  19.512  0.00  0.00    +0.000 C 
ATOM      3  N   UNL     1       1.091   8.815  18.441  0.00  0.00    +0.000 N 
ATOM      4  H   UNL     1       0.671   9.011  17.540  0.00  0.00    +0.000 HD
ENDROOT
BRANCH   2   5
ATOM      5  C   UNL     1      -0.560  10.413  19.239  0.00  0.00    +0.000 A 
ATOM      6  C   UNL     1      -0.897  11.286  20.202  0.00  0.00    +0.000 A 
ATOM      7  C   UNL     1      -2.131  12.066  20.069  0.00  0.00    +0.000 A 
ATOM      8  O   UNL     1      -2.440  12.911  20.895  0.00  0.00    +0.000 OA
ATOM      9  C   UNL     1      -2.973  11.749  18.910  0.00  0.00    +0.000 A 
ATOM     10  C   UNL     1      -4.243  12.320  18.785  0.00  0.00    +0.000 A 
ATOM     11  C   UNL     1      -5.026  12.011  17.675  0.00  0.00    +0.000 A 
ATOM     12  C   UNL     1      -4.531  11.153  16.690  0.00  0.00    +0.000 A 
ATOM     13  C   UNL     1      -3.263  10.576  16.826  0.00  0.00    +0.000 A 
ATOM     14  C   UNL     1      -2.489  10.860  17.950  0.00  0.00    +0.000 A 
ATOM     15  O   UNL     1      -1.275  10.219  18.066  0.00  0.00    +0.000 OA
ENDBRANCH   2   5
BRANCH   3  16
ATOM     16  C   UNL     1       2.196   7.927  18.475  0.00  0.00    +0.000 A 
ATOM     17  C   UNL     1       3.139   7.853  17.441  0.00  0.00    +0.000 A 
ATOM     18  C   UNL     1       4.134   6.870  17.436  0.00  0.00    +0.000 A 
ATOM     19  C   UNL     1       4.217   5.963  18.490  0.00  0.00    +0.000 A 
ATOM     20  C   UNL     1       3.321   6.063  19.560  0.00  0.00    +0.000 A 
ATOM     21  C   UNL     1       2.327   7.059  19.561  0.00  0.00    +0.000 A 
BRANCH  19  22
ATOM     22  S   UNL     1       5.257   4.520  18.317  0.00  0.00    +0.000 S 
ATOM     23  O   UNL     1       5.932   4.655  17.043  0.00  0.00    +0.000 OA
ATOM     24  O   UNL     1       6.011   4.395  19.547  0.00  0.00    +0.000 OA
BRANCH  22  25
ATOM     25  N   UNL     1       4.227   3.203  18.205  0.00  0.00    +0.000 NA
ATOM     26  C   UNL     1       3.087   3.209  17.264  0.00  0.00    +0.000 C 
ATOM     27  C   UNL     1       1.771   3.464  18.006  0.00  0.00    +0.000 C 
ATOM     28  O   UNL     1       1.584   2.569  19.112  0.00  0.00    +0.000 OA
ATOM     29  C   UNL     1       2.677   2.633  20.042  0.00  0.00    +0.000 C 
ATOM     30  C   UNL     1       4.002   2.305  19.358  0.00  0.00    +0.000 C 
ENDBRANCH  22  25
ENDBRANCH  19  22
ENDBRANCH   3  16
TORSDOF 4
ENDMDL
MODEL 4
REMARK VINA RESULT:      -8.5      7.836     11.263
REMARK  Name = 
REMARK  4 active torsions:
REMARK  status: ('A' for Active; 'I' for Inactive)
REMARK    1  A    between atoms: C_2  and  C_19
REMARK    2  A    between atoms: N_3  and  C_4
REMARK    3  A    between atoms: C_7  and  S_8
REMARK    4  A    between atoms: S_8  and  N_11
REMARK                            x       y       z     vdW  Elec       q    Type
REMARK                         _______ _______ _______ _____ _____    ______ ____
ROOT
ATOM      1  O   UNL     1       1.836   8.745  22.152  0.00  0.00    +0.000 OA
ATOM      2  C   UNL     1       1.277   8.419  21.107  0.00  0.00    +0.000 C 
ATOM      3  N   UNL     1       0.207   9.079  20.531  0.00  0.00    +0.000 N 
ATOM      4  H   UNL     1      -0.272   8.605  19.775  0.00  0.00    +0.000 HD
ENDROOT
BRANCH   2   5
ATOM      5  C   UNL     1       1.736   7.194  20.371  0.00  0.00    +0.000 A 
ATOM      6  C   UNL     1       2.468   7.414  19.268  0.00  0.00    +0.000 A 
ATOM      7  C   UNL     1       2.862   6.280  18.427  0.00  0.00    +0.000 A 
ATOM      8  O   UNL     1       3.577   6.434  17.448  0.00  0.00    +0.000 OA
ATOM      9  C   UNL     1       2.325   4.971  18.814  0.00  0.00    +0.000 A 
ATOM     10  C   UNL     1       2.508   3.861  17.984  0.00  0.00    +0.000 A 
ATOM     11  C   UNL     1       1.996   2.625  18.372  0.00  0.00    +0.000 A 
ATOM     12  C   UNL     1       1.323   2.500  19.590  0.00  0.00    +0.000 A 
ATOM     13  C   UNL     1       1.132   3.618  20.411  0.00  0.00    +0.000 A 
ATOM     14  C   UNL     1       1.619   4.862  20.012  0.00  0.00    +0.000 A 
ATOM     15  O   UNL     1       1.353   5.941  20.826  0.00  0.00    +0.000 OA
ENDBRANCH   2   5
BRANCH   3  16
ATOM     16  C   UNL     1      -0.375  10.272  21.033  0.00  0.00    +0.000 A 
ATOM     17  C   UNL     1      -0.563  11.413  20.244  0.00  0.00    +0.000 A 
ATOM     18  C   UNL     1      -1.004  12.618  20.802  0.00  0.00    +0.000 A 
ATOM     19  C   UNL     1      -1.296  12.684  22.162  0.00  0.00    +0.000 A 
ATOM     20  C   UNL     1      -1.172  11.537  22.953  0.00  0.00    +0.000 A 
ATOM     21  C   UNL     1      -0.734  10.327  22.383  0.00  0.00    +0.000 A 
BRANCH  19  22
ATOM     22  S   UNL     1      -1.529  14.284  22.925  0.00  0.00    +0.000 S 
ATOM     23  O   UNL     1      -0.756  14.266  24.150  0.00  0.00    +0.000 OA
ATOM     24  O   UNL     1      -1.276  15.278  21.903  0.00  0.00    +0.000 OA
BRANCH  22  25
ATOM     25  N   UNL     1      -3.146  14.375  23.350  0.00  0.00    +0.000 NA
ATOM     26  C   UNL     1      -3.609  13.924  24.679  0.00  0.00    +0.000 C 
ATOM     27  C   UNL     1      -4.292  12.555  24.581  0.00  0.00    +0.000 C 
ATOM     28  O   UNL     1      -5.325  12.530  23.586  0.00  0.00    +0.000 OA
ATOM     29  C   UNL     1      -4.831  12.911  22.292  0.00  0.00    +0.000 C 
ATOM     30  C   UNL     1      -4.213  14.307  22.327  0.00  0.00    +0.000 C 
ENDBRANCH  22  25
ENDBRANCH  19  22
ENDBRANCH   3  16
TORSDOF 4
ENDMDL
MODEL 5
REMARK VINA RESULT:      -8.5      6.394      8.364
REMARK  Name = 
REMARK  4 active torsions:
REMARK  status: ('A' for Active; 'I' for Inactive)
REMARK    1  A    between atoms: C_2  and  C_19
REMARK    2  A    between atoms: N_3  and  C_4
REMARK    3  A    between atoms: C_7  and  S_8
REMARK    4  A    between atoms: S_8  and  N_11
REMARK                            x       y       z     vdW  Elec       q    Type
REMARK                         _______ _______ _______ _____ _____    ______ ____
ROOT
ATOM      1  O   UNL     1      -0.101  10.143  18.520  0.00  0.00    +0.000 OA
ATOM      2  C   UNL     1       0.289  10.258  19.680  0.00  0.00    +0.000 C 
ATOM      3  N   UNL     1       1.088   9.350  20.351  0.00  0.00    +0.000 N 
ATOM      4  H   UNL     1       1.184   9.476  21.352  0.00  0.00    +0.000 HD
ENDROOT
BRANCH   2   5
ATOM      5  C   UNL     1      -0.129  11.452  20.488  0.00  0.00    +0.000 A 
ATOM      6  C   UNL     1       0.856  12.285  20.855  0.00  0.00    +0.000 A 
ATOM      7  C   UNL     1       0.553  13.414  21.740  0.00  0.00    +0.000 A 
ATOM      8  O   UNL     1       1.412  14.227  22.049  0.00  0.00    +0.000 OA
ATOM      9  C   UNL     1      -0.821  13.486  22.248  0.00  0.00    +0.000 A 
ATOM     10  C   UNL     1      -1.163  14.427  23.223  0.00  0.00    +0.000 A 
ATOM     11  C   UNL     1      -2.475  14.484  23.689  0.00  0.00    +0.000 A 
ATOM     12  C   UNL     1      -3.438  13.618  23.166  0.00  0.00    +0.000 A 
ATOM     13  C   UNL     1      -3.087  12.671  22.198  0.00  0.00    +0.000 A 
ATOM     14  C   UNL     1      -1.769  12.592  21.750  0.00  0.00    +0.000 A 
ATOM     15  O   UNL     1      -1.462  11.603  20.842  0.00  0.00    +0.000 OA
ENDBRANCH   2   5
BRANCH   3  16
ATOM     16  C   UNL     1       1.625   8.167  19.781  0.00  0.00    +0.000 A 
ATOM     17  C   UNL     1       1.672   6.949  20.471  0.00  0.00    +0.000 A 
ATOM     18  C   UNL     1       2.336   5.839  19.939  0.00  0.00    +0.000 A 
ATOM     19  C   UNL     1       2.937   5.927  18.685  0.00  0.00    +0.000 A 
ATOM     20  C   UNL     1       2.845   7.118  17.957  0.00  0.00    +0.000 A 
ATOM     21  C   UNL     1       2.170   8.229  18.496  0.00  0.00    +0.000 A 
BRANCH  19  22
ATOM     22  S   UNL     1       4.058   4.636  18.164  0.00  0.00    +0.000 S 
ATOM     23  O   UNL     1       4.594   4.050  19.374  0.00  0.00    +0.000 OA
ATOM     24  O   UNL     1       3.346   3.825  17.199  0.00  0.00    +0.000 OA
BRANCH  22  25
ATOM     25  N   UNL     1       5.322   5.398  17.370  0.00  0.00    +0.000 NA
ATOM     26  C   UNL     1       5.450   5.324  15.900  0.00  0.00    +0.000 C 
ATOM     27  C   UNL     1       6.541   4.326  15.498  0.00  0.00    +0.000 C 
ATOM     28  O   UNL     1       7.788   4.583  16.160  0.00  0.00    +0.000 OA
ATOM     29  C   UNL     1       7.644   4.585  17.590  0.00  0.00    +0.000 C 
ATOM     30  C   UNL     1       6.621   5.626  18.039  0.00  0.00    +0.000 C 
ENDBRANCH  22  25
ENDBRANCH  19  22
ENDBRANCH   3  16
TORSDOF 4
ENDMDL
MODEL 6
REMARK VINA RESULT:      -8.5      7.528     10.576
REMARK  Name = 
REMARK  4 active torsions:
REMARK  status: ('A' for Active; 'I' for Inactive)
REMARK    1  A    between atoms: C_2  and  C_19
REMARK    2  A    between atoms: N_3  and  C_4
REMARK    3  A    between atoms: C_7  and  S_8
REMARK    4  A    between atoms: S_8  and  N_11
REMARK                            x       y       z     vdW  Elec       q    Type
REMARK                         _______ _______ _______ _____ _____    ______ ____
ROOT
ATOM      1  O   UNL     1       2.125   9.590  17.462  0.00  0.00    +0.000 OA
ATOM      2  C   UNL     1       1.962   8.740  18.334  0.00  0.00    +0.000 C 
ATOM      3  N   UNL     1       1.260   8.925  19.512  0.00  0.00    +0.000 N 
ATOM      4  H   UNL     1       1.356   8.207  20.220  0.00  0.00    +0.000 HD
ENDROOT
BRANCH   2   5
ATOM      5  C   UNL     1       2.576   7.380  18.171  0.00  0.00    +0.000 A 
ATOM      6  C   UNL     1       3.754   7.343  17.528  0.00  0.00    +0.000 A 
ATOM      7  C   UNL     1       4.369   6.048  17.226  0.00  0.00    +0.000 A 
ATOM      8  O   UNL     1       5.468   5.975  16.694  0.00  0.00    +0.000 OA
ATOM      9  C   UNL     1       3.579   4.861  17.570  0.00  0.00    +0.000 A 
ATOM     10  C   UNL     1       4.006   3.590  17.173  0.00  0.00    +0.000 A 
ATOM     11  C   UNL     1       3.245   2.474  17.515  0.00  0.00    +0.000 A 
ATOM     12  C   UNL     1       2.077   2.631  18.265  0.00  0.00    +0.000 A 
ATOM     13  C   UNL     1       1.649   3.907  18.650  0.00  0.00    +0.000 A 
ATOM     14  C   UNL     1       2.393   5.027  18.285  0.00  0.00    +0.000 A 
ATOM     15  O   UNL     1       1.897   6.264  18.635  0.00  0.00    +0.000 OA
ENDBRANCH   2   5
BRANCH   3  16
ATOM     16  C   UNL     1       0.573  10.114  19.867  0.00  0.00    +0.000 A 
ATOM     17  C   UNL     1       1.089  11.041  20.781  0.00  0.00    +0.000 A 
ATOM     18  C   UNL     1       0.327  12.129  21.220  0.00  0.00    +0.000 A 
ATOM     19  C   UNL     1      -0.958  12.322  20.719  0.00  0.00    +0.000 A 
ATOM     20  C   UNL     1      -1.464  11.439  19.758  0.00  0.00    +0.000 A 
ATOM     21  C   UNL     1      -0.689  10.351  19.317  0.00  0.00    +0.000 A 
BRANCH  19  22
ATOM     22  S   UNL     1      -2.039  13.498  21.521  0.00  0.00    +0.000 S 
ATOM     23  O   UNL     1      -1.274  14.081  22.603  0.00  0.00    +0.000 OA
ATOM     24  O   UNL     1      -2.602  14.330  20.479  0.00  0.00    +0.000 OA
BRANCH  22  25
ATOM     25  N   UNL     1      -3.283  12.609  22.205  0.00  0.00    +0.000 NA
ATOM     26  C   UNL     1      -4.672  12.753  21.724  0.00  0.00    +0.000 C 
ATOM     27  C   UNL     1      -5.499  13.602  22.695  0.00  0.00    +0.000 C 
ATOM     28  O   UNL     1      -5.417  13.124  24.046  0.00  0.00    +0.000 OA
ATOM     29  C   UNL     1      -4.058  13.056  24.507  0.00  0.00    +0.000 C 
ATOM     30  C   UNL     1      -3.216  12.151  23.610  0.00  0.00    +0.000 C 
ENDBRANCH  22  25
ENDBRANCH  19  22
ENDBRANCH   3  16
TORSDOF 4
ENDMDL
MODEL 7
REMARK VINA RESULT:      -8.5      7.436     10.606
REMARK  Name = 
REMARK  4 active torsions:
REMARK  status: ('A' for Active; 'I' for Inactive)
REMARK    1  A    between atoms: C_2  and  C_19
REMARK    2  A    between atoms: N_3  and  C_4
REMARK    3  A    between atoms: C_7  and  S_8
REMARK    4  A    between atoms: S_8  and  N_11
REMARK                            x       y       z     vdW  Elec       q    Type
REMARK                         _______ _______ _______ _____ _____    ______ ____
ROOT
ATOM      1  O   UNL     1       2.286   9.420  17.465  0.00  0.00    +0.000 OA
ATOM      2  C   UNL     1       2.051   8.568  18.319  0.00  0.00    +0.000 C 
ATOM      3  N   UNL     1       1.266   8.755  19.442  0.00  0.00    +0.000 N 
ATOM      4  H   UNL     1       1.303   8.034  20.153  0.00  0.00    +0.000 HD
ENDROOT
BRANCH   2   5
ATOM      5  C   UNL     1       2.665   7.204  18.196  0.00  0.00    +0.000 A 
ATOM      6  C   UNL     1       3.838   7.147  17.546  0.00  0.00    +0.000 A 
ATOM      7  C   UNL     1       4.452   5.843  17.281  0.00  0.00    +0.000 A 
ATOM      8  O   UNL     1       5.547   5.753  16.745  0.00  0.00    +0.000 OA
ATOM      9  C   UNL     1       3.665   4.667  17.670  0.00  0.00    +0.000 A 
ATOM     10  C   UNL     1       4.091   3.384  17.311  0.00  0.00    +0.000 A 
ATOM     11  C   UNL     1       3.333   2.280  17.694  0.00  0.00    +0.000 A 
ATOM     12  C   UNL     1       2.170   2.461  18.447  0.00  0.00    +0.000 A 
ATOM     13  C   UNL     1       1.743   3.748  18.793  0.00  0.00    +0.000 A 
ATOM     14  C   UNL     1       2.484   4.856  18.387  0.00  0.00    +0.000 A 
ATOM     15  O   UNL     1       1.990   6.103  18.701  0.00  0.00    +0.000 OA
ENDBRANCH   2   5
BRANCH   3  16
ATOM     16  C   UNL     1       0.564   9.948  19.751  0.00  0.00    +0.000 A 
ATOM     17  C   UNL     1       0.980  10.833  20.754  0.00  0.00    +0.000 A 
ATOM     18  C   UNL     1       0.192  11.924  21.133  0.00  0.00    +0.000 A 
ATOM     19  C   UNL     1      -1.017  12.163  20.483  0.00  0.00    +0.000 A 
ATOM     20  C   UNL     1      -1.418  11.325  19.438  0.00  0.00    +0.000 A 
ATOM     21  C   UNL     1      -0.616  10.232  19.058  0.00  0.00    +0.000 A 
BRANCH  19  22
ATOM     22  S   UNL     1      -2.165  13.339  21.186  0.00  0.00    +0.000 S 
ATOM     23  O   UNL     1      -1.656  14.653  20.856  0.00  0.00    +0.000 OA
ATOM     24  O   UNL     1      -3.491  12.931  20.771  0.00  0.00    +0.000 OA
BRANCH  22  25
ATOM     25  N   UNL     1      -2.065  13.163  22.849  0.00  0.00    +0.000 NA
ATOM     26  C   UNL     1      -3.045  12.338  23.586  0.00  0.00    +0.000 C 
ATOM     27  C   UNL     1      -4.070  13.222  24.305  0.00  0.00    +0.000 C 
ATOM     28  O   UNL     1      -3.449  14.224  25.123  0.00  0.00    +0.000 OA
ATOM     29  C   UNL     1      -2.551  15.051  24.366  0.00  0.00    +0.000 C 
ATOM     30  C   UNL     1      -1.463  14.215  23.697  0.00  0.00    +0.000 C 
ENDBRANCH  22  25
ENDBRANCH  19  22
ENDBRANCH   3  16
TORSDOF 4
ENDMDL
MODEL 8
REMARK VINA RESULT:      -8.5      6.039      8.075
REMARK  Name = 
REMARK  4 active torsions:
REMARK  status: ('A' for Active; 'I' for Inactive)
REMARK    1  A    between atoms: C_2  and  C_19
REMARK    2  A    between atoms: N_3  and  C_4
REMARK    3  A    between atoms: C_7  and  S_8
REMARK    4  A    between atoms: S_8  and  N_11
REMARK                            x       y       z     vdW  Elec       q    Type
REMARK                         _______ _______ _______ _____ _____    ______ ____
ROOT
ATOM      1  O   UNL     1       1.415   8.957  21.668  0.00  0.00    +0.000 OA
ATOM      2  C   UNL     1       0.857   9.263  20.617  0.00  0.00    +0.000 C 
ATOM      3  N   UNL     1       1.192   8.786  19.363  0.00  0.00    +0.000 N 
ATOM      4  H   UNL     1       0.775   9.254  18.568  0.00  0.00    +0.000 HD
ENDROOT
BRANCH   2   5
ATOM      5  C   UNL     1      -0.271  10.253  20.637  0.00  0.00    +0.000 A 
ATOM      6  C   UNL     1      -0.780  10.585  19.440  0.00  0.00    +0.000 A 
ATOM      7  C   UNL     1      -1.807  11.628  19.358  0.00  0.00    +0.000 A 
ATOM      8  O   UNL     1      -2.335  11.916  18.294  0.00  0.00    +0.000 OA
ATOM      9  C   UNL     1      -2.133  12.313  20.613  0.00  0.00    +0.000 A 
ATOM     10  C   UNL     1      -2.976  13.429  20.608  0.00  0.00    +0.000 A 
ATOM     11  C   UNL     1      -3.278  14.064  21.811  0.00  0.00    +0.000 A 
ATOM     12  C   UNL     1      -2.756  13.571  23.009  0.00  0.00    +0.000 A 
ATOM     13  C   UNL     1      -1.903  12.461  23.007  0.00  0.00    +0.000 A 
ATOM     14  C   UNL     1      -1.576  11.841  21.802  0.00  0.00    +0.000 A 
ATOM     15  O   UNL     1      -0.686  10.791  21.847  0.00  0.00    +0.000 OA
ENDBRANCH   2   5
BRANCH   3  16
ATOM     16  C   UNL     1       2.203   7.824  19.106  0.00  0.00    +0.000 A 
ATOM     17  C   UNL     1       2.973   7.830  17.936  0.00  0.00    +0.000 A 
ATOM     18  C   UNL     1       3.860   6.788  17.645  0.00  0.00    +0.000 A 
ATOM     19  C   UNL     1       4.012   5.737  18.546  0.00  0.00    +0.000 A 
ATOM     20  C   UNL     1       3.296   5.748  19.748  0.00  0.00    +0.000 A 
ATOM     21  C   UNL     1       2.411   6.803  20.036  0.00  0.00    +0.000 A 
BRANCH  19  22
ATOM     22  S   UNL     1       4.876   4.262  18.025  0.00  0.00    +0.000 S 
ATOM     23  O   UNL     1       5.405   4.544  16.707  0.00  0.00    +0.000 OA
ATOM     24  O   UNL     1       5.755   3.883  19.111  0.00  0.00    +0.000 OA
BRANCH  22  25
ATOM     25  N   UNL     1       3.714   3.066  17.857  0.00  0.00    +0.000 NA
ATOM     26  C   UNL     1       2.462   3.324  17.117  0.00  0.00    +0.000 C 
ATOM     27  C   UNL     1       1.293   3.539  18.085  0.00  0.00    +0.000 C 
ATOM     28  O   UNL     1       1.174   2.477  19.043  0.00  0.00    +0.000 OA
ATOM     29  C   UNL     1       2.386   2.294  19.791  0.00  0.00    +0.000 C 
ATOM     30  C   UNL     1       3.564   1.995  18.866  0.00  0.00    +0.000 C 
ENDBRANCH  22  25
ENDBRANCH  19  22
ENDBRANCH   3  16
TORSDOF 4
ENDMDL
MODEL 9
REMARK VINA RESULT:      -8.4      6.399      8.253
REMARK  Name = 
REMARK  4 active torsions:
REMARK  status: ('A' for Active; 'I' for Inactive)
REMARK    1  A    between atoms: C_2  and  C_19
REMARK    2  A    between atoms: N_3  and  C_4
REMARK    3  A    between atoms: C_7  and  S_8
REMARK    4  A    between atoms: S_8  and  N_11
REMARK                            x       y       z     vdW  Elec       q    Type
REMARK                         _______ _______ _______ _____ _____    ______ ____
ROOT
ATOM      1  O   UNL     1       1.685   9.559  22.569  0.00  0.00    +0.000 OA
ATOM      2  C   UNL     1       0.876  10.000  21.756  0.00  0.00    +0.000 C 
ATOM      3  N   UNL     1       0.713   9.544  20.461  0.00  0.00    +0.000 N 
ATOM      4  H   UNL     1       0.144  10.111  19.843  0.00  0.00    +0.000 HD
ENDROOT
BRANCH   2   5
ATOM      5  C   UNL     1      -0.013  11.146  22.141  0.00  0.00    +0.000 A 
ATOM      6  C   UNL     1      -1.150  10.819  22.774  0.00  0.00    +0.000 A 
ATOM      7  C   UNL     1      -2.128  11.864  23.086  0.00  0.00    +0.000 A 
ATOM      8  O   UNL     1      -3.148  11.614  23.713  0.00  0.00    +0.000 OA
ATOM      9  C   UNL     1      -1.824  13.206  22.577  0.00  0.00    +0.000 A 
ATOM     10  C   UNL     1      -2.770  14.230  22.680  0.00  0.00    +0.000 A 
ATOM     11  C   UNL     1      -2.461  15.499  22.197  0.00  0.00    +0.000 A 
ATOM     12  C   UNL     1      -1.206  15.743  21.633  0.00  0.00    +0.000 A 
ATOM     13  C   UNL     1      -0.267  14.711  21.523  0.00  0.00    +0.000 A 
ATOM     14  C   UNL     1      -0.584  13.433  21.980  0.00  0.00    +0.000 A 
ATOM     15  O   UNL     1       0.351  12.439  21.793  0.00  0.00    +0.000 OA
ENDBRANCH   2   5
BRANCH   3  16
ATOM     16  C   UNL     1       1.422   8.457  19.889  0.00  0.00    +0.000 A 
ATOM     17  C   UNL     1       1.663   7.263  20.581  0.00  0.00    +0.000 A 
ATOM     18  C   UNL     1       2.487   6.267  20.047  0.00  0.00    +0.000 A 
ATOM     19  C   UNL     1       3.055   6.442  18.787  0.00  0.00    +0.000 A 
ATOM     20  C   UNL     1       2.775   7.601  18.057  0.00  0.00    +0.000 A 
ATOM     21  C   UNL     1       1.940   8.596  18.599  0.00  0.00    +0.000 A 
BRANCH  19  22
ATOM     22  S   UNL     1       4.359   5.338  18.260  0.00  0.00    +0.000 S 
ATOM     23  O   UNL     1       4.737   5.762  16.928  0.00  0.00    +0.000 OA
ATOM     24  O   UNL     1       5.334   5.297  19.330  0.00  0.00    +0.000 OA
BRANCH  22  25
ATOM     25  N   UNL     1       3.668   3.818  18.128  0.00  0.00    +0.000 NA
ATOM     26  C   UNL     1       2.379   3.627  17.432  0.00  0.00    +0.000 C 
ATOM     27  C   UNL     1       1.239   3.441  18.440  0.00  0.00    +0.000 C 
ATOM     28  O   UNL     1       1.519   2.411  19.399  0.00  0.00    +0.000 OA
ATOM     29  C   UNL     1       2.746   2.658  20.105  0.00  0.00    +0.000 C 
ATOM     30  C   UNL     1       3.924   2.769  19.140  0.00  0.00    +0.000 C 
ENDBRANCH  22  25
ENDBRANCH  19  22
ENDBRANCH   3  16
TORSDOF 4
ENDMDL
