MODEL 1
REMARK VINA RESULT:      -8.9      0.000      0.000
REMARK  Name = 
REMARK  5 active torsions:
REMARK  status: ('A' for Active; 'I' for Inactive)
REMARK    1  A    between atoms: C_2  and  C_4
REMARK    2  A    between atoms: C_9  and  O_10
REMARK    3  A    between atoms: O_10  and  C_11
REMARK    4  A    between atoms: C_11  and  C_12
REMARK    5  A    between atoms: C_16  and  C_17
REMARK                            x       y       z     vdW  Elec       q    Type
REMARK                         _______ _______ _______ _____ _____    ______ ____
ROOT
ATOM      1  C   UNL     1       0.419  10.011  19.633  0.00  0.00    +0.000 A 
ATOM      2  C   UNL     1       0.418   9.654  20.990  0.00  0.00    +0.000 A 
ATOM      3  C   UNL     1       1.105   8.521  21.422  0.00  0.00    +0.000 A 
ATOM      4  C   UNL     1       1.811   7.746  20.504  0.00  0.00    +0.000 A 
ATOM      5  C   UNL     1       1.940   8.165  19.178  0.00  0.00    +0.000 A 
ATOM      6  C   UNL     1       1.198   9.269  18.733  0.00  0.00    +0.000 A 
ENDROOT
BRANCH   5   7
ATOM      7  C   UNL     1       2.814   7.466  18.195  0.00  0.00    +0.000 C 
ATOM      8  O   UNL     1       3.488   8.175  17.456  0.00  0.00    +0.000 OA
ATOM      9  N   UNL     1       2.888   6.065  18.186  0.00  0.00    +0.000 N 
ATOM     10  C   UNL     1       2.177   5.142  19.066  0.00  0.00    +0.000 C 
ATOM     11  C   UNL     1       3.118   4.254  19.862  0.00  0.00    +0.000 C 
ATOM     12  C   UNL     1       4.165   3.592  18.983  0.00  0.00    +0.000 C 
ATOM     13  C   UNL     1       4.897   4.585  18.045  0.00  0.00    +0.000 C 
ATOM     14  C   UNL     1       5.840   5.527  18.847  0.00  0.00    +0.000 C 
ATOM     15  C   UNL     1       6.830   6.249  17.974  0.00  0.00    +0.000 C 
ATOM     16  C   UNL     1       7.148   5.843  16.735  0.00  0.00    +0.000 C 
ATOM     17  C   UNL     1       6.577   4.610  16.101  0.00  0.00    +0.000 C 
ATOM     18  C   UNL     1       5.776   3.750  17.081  0.00  0.00    +0.000 C 
ATOM     19  C   UNL     1       3.836   5.417  17.270  0.00  0.00    +0.000 C 
ENDBRANCH   5   7
BRANCH   1  20
ATOM     20  C   UNL     1      -0.513  11.088  19.138  0.00  0.00    +0.000 C 
BRANCH  20  21
ATOM     21  O   UNL     1      -1.885  10.676  19.189  0.00  0.00    +0.000 OA
BRANCH  21  27
ATOM     22  C   UNL     1      -3.791  11.325  17.856  0.00  0.00    +0.000 A 
ATOM     23  C   UNL     1      -4.461  11.300  16.614  0.00  0.00    +0.000 A 
ATOM     24  C   UNL     1      -3.910  10.660  15.504  0.00  0.00    +0.000 A 
ATOM     25  C   UNL     1      -2.686  10.027  15.618  0.00  0.00    +0.000 A 
ATOM     26  C   UNL     1      -2.013  10.028  16.840  0.00  0.00    +0.000 A 
ATOM     27  C   UNL     1      -2.539  10.682  17.972  0.00  0.00    +0.000 A 
BRANCH  22  29
ATOM     28  N   UNL     1      -3.785  13.009  19.652  0.00  0.00    +0.000 N 
ATOM     29  C   UNL     1      -4.493  12.086  18.939  0.00  0.00    +0.000 C 
ATOM     30  O   UNL     1      -5.680  11.906  19.190  0.00  0.00    +0.000 OA
ATOM     31  H   UNL     1      -4.276  13.534  20.362  0.00  0.00    +0.000 HD
ATOM     32  H   UNL     1      -2.803  13.177  19.484  0.00  0.00    +0.000 HD
ENDBRANCH  22  29
ENDBRANCH  21  27
ENDBRANCH  20  21
ENDBRANCH   1  20
TORSDOF 5
ENDMDL
MODEL 2
REMARK VINA RESULT:      -8.8      2.852      8.847
REMARK  Name = 
REMARK  5 active torsions:
REMARK  status: ('A' for Active; 'I' for Inactive)
REMARK    1  A    between atoms: C_2  and  C_4
REMARK    2  A    between atoms: C_9  and  O_10
REMARK    3  A    between atoms: O_10  and  C_11
REMARK    4  A    between atoms: C_11  and  C_12
REMARK    5  A    between atoms: C_16  and  C_17
REMARK                            x       y       z     vdW  Elec       q    Type
REMARK                         _______ _______ _______ _____ _____    ______ ____
ROOT
ATOM      1  C   UNL     1       3.873   4.786  18.630  0.00  0.00    +0.000 A 
ATOM      2  C   UNL     1       2.936   3.920  18.046  0.00  0.00    +0.000 A 
ATOM      3  C   UNL     1       1.669   4.381  17.698  0.00  0.00    +0.000 A 
ATOM      4  C   UNL     1       1.333   5.716  17.915  0.00  0.00    +0.000 A 
ATOM      5  C   UNL     1       2.296   6.622  18.363  0.00  0.00    +0.000 A 
ATOM      6  C   UNL     1       3.550   6.144  18.771  0.00  0.00    +0.000 A 
ENDROOT
BRANCH   5   7
ATOM      7  C   UNL     1       2.041   8.086  18.458  0.00  0.00    +0.000 C 
ATOM      8  O   UNL     1       2.112   8.727  17.414  0.00  0.00    +0.000 OA
ATOM      9  N   UNL     1       1.673   8.662  19.684  0.00  0.00    +0.000 N 
ATOM     10  C   UNL     1       1.500   7.973  20.960  0.00  0.00    +0.000 C 
ATOM     11  C   UNL     1       0.102   8.143  21.528  0.00  0.00    +0.000 C 
ATOM     12  C   UNL     1      -0.342   9.596  21.540  0.00  0.00    +0.000 C 
ATOM     13  C   UNL     1      -0.134  10.314  20.182  0.00  0.00    +0.000 C 
ATOM     14  C   UNL     1      -1.127   9.786  19.108  0.00  0.00    +0.000 C 
ATOM     15  C   UNL     1      -1.219  10.681  17.902  0.00  0.00    +0.000 C 
ATOM     16  C   UNL     1      -0.826  11.964  17.909  0.00  0.00    +0.000 C 
ATOM     17  C   UNL     1      -0.286  12.651  19.127  0.00  0.00    +0.000 C 
ATOM     18  C   UNL     1      -0.435  11.818  20.401  0.00  0.00    +0.000 C 
ATOM     19  C   UNL     1       1.333  10.090  19.716  0.00  0.00    +0.000 C 
ENDBRANCH   5   7
BRANCH   1  20
ATOM     20  C   UNL     1       5.144   4.231  19.221  0.00  0.00    +0.000 C 
BRANCH  20  21
ATOM     21  O   UNL     1       6.230   4.263  18.285  0.00  0.00    +0.000 OA
BRANCH  21  27
ATOM     22  C   UNL     1       6.663   6.257  16.994  0.00  0.00    +0.000 A 
ATOM     23  C   UNL     1       7.331   7.495  16.870  0.00  0.00    +0.000 A 
ATOM     24  C   UNL     1       8.169   7.971  17.877  0.00  0.00    +0.000 A 
ATOM     25  C   UNL     1       8.362   7.216  19.020  0.00  0.00    +0.000 A 
ATOM     26  C   UNL     1       7.722   5.985  19.156  0.00  0.00    +0.000 A 
ATOM     27  C   UNL     1       6.856   5.488  18.162  0.00  0.00    +0.000 A 
BRANCH  22  29
ATOM     28  N   UNL     1       5.619   4.589  15.514  0.00  0.00    +0.000 N 
ATOM     29  C   UNL     1       5.767   5.904  15.846  0.00  0.00    +0.000 C 
ATOM     30  O   UNL     1       5.162   6.761  15.211  0.00  0.00    +0.000 OA
ATOM     31  H   UNL     1       4.992   4.362  14.755  0.00  0.00    +0.000 HD
ATOM     32  H   UNL     1       6.110   3.855  16.005  0.00  0.00    +0.000 HD
ENDBRANCH  22  29
ENDBRANCH  21  27
ENDBRANCH  20  21
ENDBRANCH   1  20
TORSDOF 5
ENDMDL
MODEL 3
REMARK VINA RESULT:      -8.7      2.745      9.028
REMARK  Name = 
REMARK  5 active torsions:
REMARK  status: ('A' for Active; 'I' for Inactive)
REMARK    1  A    between atoms: C_2  and  C_4
REMARK    2  A    between atoms: C_9  and  O_10
REMARK    3  A    between atoms: O_10  and  C_11
REMARK    4  A    between atoms: C_11  and  C_12
REMARK    5  A    between atoms: C_16  and  C_17
REMARK                            x       y       z     vdW  Elec       q    Type
REMARK                         _______ _______ _______ _____ _____    ______ ____
ROOT
ATOM      1  C   UNL     1       2.479   4.718  18.404  0.00  0.00    +0.000 A 
ATOM      2  C   UNL     1       2.246   4.120  19.651  0.00  0.00    +0.000 A 
ATOM      3  C   UNL     1       1.961   4.903  20.768  0.00  0.00    +0.000 A 
ATOM      4  C   UNL     1       1.891   6.289  20.643  0.00  0.00    +0.000 A 
ATOM      5  C   UNL     1       1.979   6.890  19.386  0.00  0.00    +0.000 A 
ATOM      6  C   UNL     1       2.327   6.107  18.275  0.00  0.00    +0.000 A 
ENDROOT
BRANCH   5   7
ATOM      7  C   UNL     1       1.750   8.346  19.172  0.00  0.00    +0.000 C 
ATOM      8  O   UNL     1       1.837   8.753  18.019  0.00  0.00    +0.000 OA
ATOM      9  N   UNL     1       1.389   9.170  20.249  0.00  0.00    +0.000 N 
ATOM     10  C   UNL     1       1.199   8.766  21.639  0.00  0.00    +0.000 C 
ATOM     11  C   UNL     1      -0.198   9.074  22.149  0.00  0.00    +0.000 C 
ATOM     12  C   UNL     1      -0.615  10.505  21.855  0.00  0.00    +0.000 C 
ATOM     13  C   UNL     1      -0.390  10.920  20.379  0.00  0.00    +0.000 C 
ATOM     14  C   UNL     1      -1.389  10.197  19.432  0.00  0.00    +0.000 C 
ATOM     15  C   UNL     1      -1.460  10.822  18.065  0.00  0.00    +0.000 C 
ATOM     16  C   UNL     1      -1.044  12.072  17.808  0.00  0.00    +0.000 C 
ATOM     17  C   UNL     1      -0.496  12.989  18.860  0.00  0.00    +0.000 C 
ATOM     18  C   UNL     1      -0.664  12.442  20.278  0.00  0.00    +0.000 C 
ATOM     19  C   UNL     1       1.074  10.579  19.981  0.00  0.00    +0.000 C 
ENDBRANCH   5   7
BRANCH   1  20
ATOM     20  C   UNL     1       3.019   3.893  17.263  0.00  0.00    +0.000 C 
BRANCH  20  21
ATOM     21  O   UNL     1       4.383   3.510  17.476  0.00  0.00    +0.000 OA
BRANCH  21  27
ATOM     22  C   UNL     1       6.479   4.569  16.910  0.00  0.00    +0.000 A 
ATOM     23  C   UNL     1       7.362   5.043  15.916  0.00  0.00    +0.000 A 
ATOM     24  C   UNL     1       7.067   4.914  14.560  0.00  0.00    +0.000 A 
ATOM     25  C   UNL     1       5.881   4.317  14.172  0.00  0.00    +0.000 A 
ATOM     26  C   UNL     1       4.988   3.853  15.138  0.00  0.00    +0.000 A 
ATOM     27  C   UNL     1       5.270   3.955  16.514  0.00  0.00    +0.000 A 
BRANCH  22  29
ATOM     28  N   UNL     1       6.039   5.033  19.287  0.00  0.00    +0.000 N 
ATOM     29  C   UNL     1       6.956   4.745  18.319  0.00  0.00    +0.000 C 
ATOM     30  O   UNL     1       8.139   4.629  18.620  0.00  0.00    +0.000 OA
ATOM     31  H   UNL     1       6.370   5.124  20.238  0.00  0.00    +0.000 HD
ATOM     32  H   UNL     1       5.058   5.149  19.077  0.00  0.00    +0.000 HD
ENDBRANCH  22  29
ENDBRANCH  21  27
ENDBRANCH  20  21
ENDBRANCH   1  20
TORSDOF 5
ENDMDL
MODEL 4
REMARK VINA RESULT:      -8.6      2.723      9.014
REMARK  Name = 
REMARK  5 active torsions:
REMARK  status: ('A' for Active; 'I' for Inactive)
REMARK    1  A    between atoms: C_2  and  C_4
REMARK    2  A    between atoms: C_9  and  O_10
REMARK    3  A    between atoms: O_10  and  C_11
REMARK    4  A    between atoms: C_11  and  C_12
REMARK    5  A    between atoms: C_16  and  C_17
REMARK                            x       y       z     vdW  Elec       q    Type
REMARK                         _______ _______ _______ _____ _____    ______ ____
ROOT
ATOM      1  C   UNL     1       2.652   4.862  18.281  0.00  0.00    +0.000 A 
ATOM      2  C   UNL     1       2.306   4.198  19.467  0.00  0.00    +0.000 A 
ATOM      3  C   UNL     1       1.892   4.918  20.585  0.00  0.00    +0.000 A 
ATOM      4  C   UNL     1       1.805   6.307  20.521  0.00  0.00    +0.000 A 
ATOM      5  C   UNL     1       2.009   6.973  19.310  0.00  0.00    +0.000 A 
ATOM      6  C   UNL     1       2.485   6.253  18.205  0.00  0.00    +0.000 A 
ENDROOT
BRANCH   5   7
ATOM      7  C   UNL     1       1.772   8.434  19.146  0.00  0.00    +0.000 C 
ATOM      8  O   UNL     1       1.872   8.883  18.009  0.00  0.00    +0.000 OA
ATOM      9  N   UNL     1       1.390   9.217  20.246  0.00  0.00    +0.000 N 
ATOM     10  C   UNL     1       1.183   8.761  21.618  0.00  0.00    +0.000 C 
ATOM     11  C   UNL     1      -0.223   9.041  22.118  0.00  0.00    +0.000 C 
ATOM     12  C   UNL     1      -0.647  10.479  21.870  0.00  0.00    +0.000 C 
ATOM     13  C   UNL     1      -0.404  10.949  20.413  0.00  0.00    +0.000 C 
ATOM     14  C   UNL     1      -1.384  10.253  19.426  0.00  0.00    +0.000 C 
ATOM     15  C   UNL     1      -1.441  10.926  18.082  0.00  0.00    +0.000 C 
ATOM     16  C   UNL     1      -1.030  12.187  17.875  0.00  0.00    +0.000 C 
ATOM     17  C   UNL     1      -0.504  13.070  18.967  0.00  0.00    +0.000 C 
ATOM     18  C   UNL     1      -0.688  12.471  20.363  0.00  0.00    +0.000 C 
ATOM     19  C   UNL     1       1.068  10.632  20.024  0.00  0.00    +0.000 C 
ENDBRANCH   5   7
BRANCH   1  20
ATOM     20  C   UNL     1       3.323   4.105  17.162  0.00  0.00    +0.000 C 
BRANCH  20  21
ATOM     21  O   UNL     1       4.575   3.540  17.572  0.00  0.00    +0.000 OA
BRANCH  21  27
ATOM     22  C   UNL     1       6.263   5.075  16.782  0.00  0.00    +0.000 A 
ATOM     23  C   UNL     1       7.293   5.994  17.078  0.00  0.00    +0.000 A 
ATOM     24  C   UNL     1       7.631   6.309  18.393  0.00  0.00    +0.000 A 
ATOM     25  C   UNL     1       6.952   5.705  19.436  0.00  0.00    +0.000 A 
ATOM     26  C   UNL     1       5.940   4.784  19.166  0.00  0.00    +0.000 A 
ATOM     27  C   UNL     1       5.568   4.461  17.847  0.00  0.00    +0.000 A 
BRANCH  22  29
ATOM     28  N   UNL     1       6.198   3.636  14.785  0.00  0.00    +0.000 N 
ATOM     29  C   UNL     1       5.993   4.873  15.323  0.00  0.00    +0.000 C 
ATOM     30  O   UNL     1       5.588   5.784  14.608  0.00  0.00    +0.000 OA
ATOM     31  H   UNL     1       5.988   3.506  13.806  0.00  0.00    +0.000 HD
ATOM     32  H   UNL     1       6.544   2.864  15.337  0.00  0.00    +0.000 HD
ENDBRANCH  22  29
ENDBRANCH  21  27
ENDBRANCH  20  21
ENDBRANCH   1  20
TORSDOF 5
ENDMDL
MODEL 5
REMARK VINA RESULT:      -8.6      2.823      8.935
REMARK  Name = 
REMARK  5 active torsions:
REMARK  status: ('A' for Active; 'I' for Inactive)
REMARK    1  A    between atoms: C_2  and  C_4
REMARK    2  A    between atoms: C_9  and  O_10
REMARK    3  A    between atoms: O_10  and  C_11
REMARK    4  A    between atoms: C_11  and  C_12
REMARK    5  A    between atoms: C_16  and  C_17
REMARK                            x       y       z     vdW  Elec       q    Type
REMARK                         _______ _______ _______ _____ _____    ______ ____
ROOT
ATOM      1  C   UNL     1       3.424   4.733  19.619  0.00  0.00    +0.000 A 
ATOM      2  C   UNL     1       2.418   3.961  20.221  0.00  0.00    +0.000 A 
ATOM      3  C   UNL     1       1.256   4.563  20.697  0.00  0.00    +0.000 A 
ATOM      4  C   UNL     1       1.083   5.939  20.562  0.00  0.00    +0.000 A 
ATOM      5  C   UNL     1       2.007   6.699  19.842  0.00  0.00    +0.000 A 
ATOM      6  C   UNL     1       3.203   6.103  19.418  0.00  0.00    +0.000 A 
ENDROOT
BRANCH   5   7
ATOM      7  C   UNL     1       1.792   8.139  19.526  0.00  0.00    +0.000 C 
ATOM      8  O   UNL     1       1.866   8.461  18.345  0.00  0.00    +0.000 OA
ATOM      9  N   UNL     1       1.458   9.044  20.546  0.00  0.00    +0.000 N 
ATOM     10  C   UNL     1       1.284   8.744  21.964  0.00  0.00    +0.000 C 
ATOM     11  C   UNL     1      -0.101   9.107  22.470  0.00  0.00    +0.000 C 
ATOM     12  C   UNL     1      -0.505  10.518  22.080  0.00  0.00    +0.000 C 
ATOM     13  C   UNL     1      -0.298  10.823  20.575  0.00  0.00    +0.000 C 
ATOM     14  C   UNL     1      -1.320  10.046  19.696  0.00  0.00    +0.000 C 
ATOM     15  C   UNL     1      -1.404  10.572  18.289  0.00  0.00    +0.000 C 
ATOM     16  C   UNL     1      -0.977  11.794  17.936  0.00  0.00    +0.000 C 
ATOM     17  C   UNL     1      -0.401  12.777  18.911  0.00  0.00    +0.000 C 
ATOM     18  C   UNL     1      -0.555  12.336  20.368  0.00  0.00    +0.000 C 
ATOM     19  C   UNL     1       1.156  10.434  20.181  0.00  0.00    +0.000 C 
ENDBRANCH   5   7
BRANCH   1  20
ATOM     20  C   UNL     1       4.770   4.118  19.326  0.00  0.00    +0.000 C 
BRANCH  20  21
ATOM     21  O   UNL     1       5.712   5.090  18.853  0.00  0.00    +0.000 OA
BRANCH  21  27
ATOM     22  C   UNL     1       6.943   5.896  16.939  0.00  0.00    +0.000 A 
ATOM     23  C   UNL     1       7.268   5.769  15.571  0.00  0.00    +0.000 A 
ATOM     24  C   UNL     1       6.741   4.741  14.791  0.00  0.00    +0.000 A 
ATOM     25  C   UNL     1       5.872   3.828  15.361  0.00  0.00    +0.000 A 
ATOM     26  C   UNL     1       5.527   3.943  16.708  0.00  0.00    +0.000 A 
ATOM     27  C   UNL     1       6.060   4.962  17.522  0.00  0.00    +0.000 A 
BRANCH  22  29
ATOM     28  N   UNL     1       8.208   6.782  18.856  0.00  0.00    +0.000 N 
ATOM     29  C   UNL     1       7.622   7.027  17.649  0.00  0.00    +0.000 C 
ATOM     30  O   UNL     1       7.670   8.155  17.170  0.00  0.00    +0.000 OA
ATOM     31  H   UNL     1       8.685   7.547  19.314  0.00  0.00    +0.000 HD
ATOM     32  H   UNL     1       8.179   5.870  19.290  0.00  0.00    +0.000 HD
ENDBRANCH  22  29
ENDBRANCH  21  27
ENDBRANCH  20  21
ENDBRANCH   1  20
TORSDOF 5
ENDMDL
MODEL 6
REMARK VINA RESULT:      -8.4      2.635      9.581
REMARK  Name = 
REMARK  5 active torsions:
REMARK  status: ('A' for Active; 'I' for Inactive)
REMARK    1  A    between atoms: C_2  and  C_4
REMARK    2  A    between atoms: C_9  and  O_10
REMARK    3  A    between atoms: O_10  and  C_11
REMARK    4  A    between atoms: C_11  and  C_12
REMARK    5  A    between atoms: C_16  and  C_17
REMARK                            x       y       z     vdW  Elec       q    Type
REMARK                         _______ _______ _______ _____ _____    ______ ____
ROOT
ATOM      1  C   UNL     1       2.789   7.055  19.198  0.00  0.00    +0.000 A 
ATOM      2  C   UNL     1       3.081   7.553  17.919  0.00  0.00    +0.000 A 
ATOM      3  C   UNL     1       2.496   8.735  17.472  0.00  0.00    +0.000 A 
ATOM      4  C   UNL     1       1.627   9.437  18.304  0.00  0.00    +0.000 A 
ATOM      5  C   UNL     1       1.436   9.033  19.627  0.00  0.00    +0.000 A 
ATOM      6  C   UNL     1       1.976   7.812  20.055  0.00  0.00    +0.000 A 
ENDROOT
BRANCH   5   7
ATOM      7  C   UNL     1       0.650   9.833  20.607  0.00  0.00    +0.000 C 
ATOM      8  O   UNL     1       1.206  10.108  21.666  0.00  0.00    +0.000 OA
ATOM      9  N   UNL     1      -0.636  10.290  20.278  0.00  0.00    +0.000 N 
ATOM     10  C   UNL     1      -1.351  10.069  19.025  0.00  0.00    +0.000 C 
ATOM     11  C   UNL     1      -1.730  11.368  18.335  0.00  0.00    +0.000 C 
ATOM     12  C   UNL     1      -2.414  12.343  19.278  0.00  0.00    +0.000 C 
ATOM     13  C   UNL     1      -1.648  12.550  20.609  0.00  0.00    +0.000 C 
ATOM     14  C   UNL     1      -0.331  13.345  20.383  0.00  0.00    +0.000 C 
ATOM     15  C   UNL     1       0.257  13.883  21.659  0.00  0.00    +0.000 C 
ATOM     16  C   UNL     1      -0.451  14.026  22.790  0.00  0.00    +0.000 C 
ATOM     17  C   UNL     1      -1.910  13.696  22.894  0.00  0.00    +0.000 C 
ATOM     18  C   UNL     1      -2.554  13.397  21.539  0.00  0.00    +0.000 C 
ATOM     19  C   UNL     1      -1.338  11.159  21.231  0.00  0.00    +0.000 C 
ENDBRANCH   5   7
BRANCH   1  20
ATOM     20  C   UNL     1       3.231   5.666  19.584  0.00  0.00    +0.000 C 
BRANCH  20  21
ATOM     21  O   UNL     1       4.658   5.528  19.552  0.00  0.00    +0.000 OA
BRANCH  21  27
ATOM     22  C   UNL     1       6.518   5.249  18.037  0.00  0.00    +0.000 A 
ATOM     23  C   UNL     1       7.017   4.742  16.818  0.00  0.00    +0.000 A 
ATOM     24  C   UNL     1       6.206   4.015  15.947  0.00  0.00    +0.000 A 
ATOM     25  C   UNL     1       4.881   3.790  16.275  0.00  0.00    +0.000 A 
ATOM     26  C   UNL     1       4.365   4.293  17.468  0.00  0.00    +0.000 A 
ATOM     27  C   UNL     1       5.166   5.015  18.374  0.00  0.00    +0.000 A 
BRANCH  22  29
ATOM     28  N   UNL     1       7.871   5.436  20.085  0.00  0.00    +0.000 N 
ATOM     29  C   UNL     1       7.522   5.973  18.880  0.00  0.00    +0.000 C 
ATOM     30  O   UNL     1       8.040   7.022  18.512  0.00  0.00    +0.000 OA
ATOM     31  H   UNL     1       8.569   5.920  20.633  0.00  0.00    +0.000 HD
ATOM     32  H   UNL     1       7.458   4.580  20.430  0.00  0.00    +0.000 HD
ENDBRANCH  22  29
ENDBRANCH  21  27
ENDBRANCH  20  21
ENDBRANCH   1  20
TORSDOF 5
ENDMDL
MODEL 7
REMARK VINA RESULT:      -8.3      2.835      9.306
REMARK  Name = 
REMARK  5 active torsions:
REMARK  status: ('A' for Active; 'I' for Inactive)
REMARK    1  A    between atoms: C_2  and  C_4
REMARK    2  A    between atoms: C_9  and  O_10
REMARK    3  A    between atoms: O_10  and  C_11
REMARK    4  A    between atoms: C_11  and  C_12
REMARK    5  A    between atoms: C_16  and  C_17
REMARK                            x       y       z     vdW  Elec       q    Type
REMARK                         _______ _______ _______ _____ _____    ______ ____
ROOT
ATOM      1  C   UNL     1       2.030   7.651  19.698  0.00  0.00    +0.000 A 
ATOM      2  C   UNL     1       2.769   7.713  18.507  0.00  0.00    +0.000 A 
ATOM      3  C   UNL     1       2.456   8.655  17.530  0.00  0.00    +0.000 A 
ATOM      4  C   UNL     1       1.413   9.554  17.743  0.00  0.00    +0.000 A 
ATOM      5  C   UNL     1       0.761   9.599  18.977  0.00  0.00    +0.000 A 
ATOM      6  C   UNL     1       1.035   8.611  19.933  0.00  0.00    +0.000 A 
ENDROOT
BRANCH   5   7
ATOM      7  C   UNL     1      -0.247  10.642  19.316  0.00  0.00    +0.000 C 
ATOM      8  O   UNL     1      -1.413  10.274  19.401  0.00  0.00    +0.000 OA
ATOM      9  N   UNL     1       0.161  11.958  19.585  0.00  0.00    +0.000 N 
ATOM     10  C   UNL     1       1.527  12.474  19.572  0.00  0.00    +0.000 C 
ATOM     11  C   UNL     1       1.937  13.068  20.908  0.00  0.00    +0.000 C 
ATOM     12  C   UNL     1       0.906  14.049  21.442  0.00  0.00    +0.000 C 
ATOM     13  C   UNL     1      -0.538  13.489  21.432  0.00  0.00    +0.000 C 
ATOM     14  C   UNL     1      -0.718  12.372  22.499  0.00  0.00    +0.000 C 
ATOM     15  C   UNL     1      -2.161  12.055  22.781  0.00  0.00    +0.000 C 
ATOM     16  C   UNL     1      -3.168  12.887  22.475  0.00  0.00    +0.000 C 
ATOM     17  C   UNL     1      -2.961  14.235  21.852  0.00  0.00    +0.000 C 
ATOM     18  C   UNL     1      -1.490  14.653  21.806  0.00  0.00    +0.000 C 
ATOM     19  C   UNL     1      -0.850  12.933  20.013  0.00  0.00    +0.000 C 
ENDBRANCH   5   7
BRANCH   1  20
ATOM     20  C   UNL     1       2.215   6.486  20.637  0.00  0.00    +0.000 C 
BRANCH  20  21
ATOM     21  O   UNL     1       3.109   5.501  20.103  0.00  0.00    +0.000 OA
BRANCH  21  27
ATOM     22  C   UNL     1       3.150   3.564  18.662  0.00  0.00    +0.000 A 
ATOM     23  C   UNL     1       2.502   2.410  18.172  0.00  0.00    +0.000 A 
ATOM     24  C   UNL     1       1.240   2.035  18.631  0.00  0.00    +0.000 A 
ATOM     25  C   UNL     1       0.600   2.810  19.580  0.00  0.00    +0.000 A 
ATOM     26  C   UNL     1       1.217   3.963  20.067  0.00  0.00    +0.000 A 
ATOM     27  C   UNL     1       2.498   4.354  19.634  0.00  0.00    +0.000 A 
BRANCH  22  29
ATOM     28  N   UNL     1       5.586   3.779  18.949  0.00  0.00    +0.000 N 
ATOM     29  C   UNL     1       4.517   3.810  18.101  0.00  0.00    +0.000 C 
ATOM     30  O   UNL     1       4.697   4.027  16.907  0.00  0.00    +0.000 OA
ATOM     31  H   UNL     1       6.505   3.921  18.554  0.00  0.00    +0.000 HD
ATOM     32  H   UNL     1       5.478   3.617  19.940  0.00  0.00    +0.000 HD
ENDBRANCH  22  29
ENDBRANCH  21  27
ENDBRANCH  20  21
ENDBRANCH   1  20
TORSDOF 5
ENDMDL
MODEL 8
REMARK VINA RESULT:      -8.3      1.578      2.196
REMARK  Name = 
REMARK  5 active torsions:
REMARK  status: ('A' for Active; 'I' for Inactive)
REMARK    1  A    between atoms: C_2  and  C_4
REMARK    2  A    between atoms: C_9  and  O_10
REMARK    3  A    between atoms: O_10  and  C_11
REMARK    4  A    between atoms: C_11  and  C_12
REMARK    5  A    between atoms: C_16  and  C_17
REMARK                            x       y       z     vdW  Elec       q    Type
REMARK                         _______ _______ _______ _____ _____    ______ ____
ROOT
ATOM      1  C   UNL     1       0.622  10.655  20.329  0.00  0.00    +0.000 A 
ATOM      2  C   UNL     1       0.619  10.257  21.674  0.00  0.00    +0.000 A 
ATOM      3  C   UNL     1       1.029   8.975  22.032  0.00  0.00    +0.000 A 
ATOM      4  C   UNL     1       1.462   8.086  21.050  0.00  0.00    +0.000 A 
ATOM      5  C   UNL     1       1.606   8.510  19.728  0.00  0.00    +0.000 A 
ATOM      6  C   UNL     1       1.134   9.778  19.360  0.00  0.00    +0.000 A 
ENDROOT
BRANCH   5   7
ATOM      7  C   UNL     1       2.215   7.656  18.671  0.00  0.00    +0.000 C 
ATOM      8  O   UNL     1       2.761   8.238  17.740  0.00  0.00    +0.000 OA
ATOM      9  N   UNL     1       2.204   6.258  18.798  0.00  0.00    +0.000 N 
ATOM     10  C   UNL     1       1.637   5.481  19.896  0.00  0.00    +0.000 C 
ATOM     11  C   UNL     1       2.669   4.599  20.578  0.00  0.00    +0.000 C 
ATOM     12  C   UNL     1       3.471   3.777  19.583  0.00  0.00    +0.000 C 
ATOM     13  C   UNL     1       4.050   4.617  18.417  0.00  0.00    +0.000 C 
ATOM     14  C   UNL     1       5.192   5.552  18.907  0.00  0.00    +0.000 C 
ATOM     15  C   UNL     1       6.020   6.109  17.781  0.00  0.00    +0.000 C 
ATOM     16  C   UNL     1       6.050   5.566  16.555  0.00  0.00    +0.000 C 
ATOM     17  C   UNL     1       5.289   4.329  16.185  0.00  0.00    +0.000 C 
ATOM     18  C   UNL     1       4.660   3.629  17.391  0.00  0.00    +0.000 C 
ATOM     19  C   UNL     1       2.902   5.455  17.785  0.00  0.00    +0.000 C 
ENDBRANCH   5   7
BRANCH   1  20
ATOM     20  C   UNL     1      -0.043  11.946  19.925  0.00  0.00    +0.000 C 
BRANCH  20  21
ATOM     21  O   UNL     1      -0.777  11.812  18.701  0.00  0.00    +0.000 OA
BRANCH  21  27
ATOM     22  C   UNL     1      -2.986  11.436  17.798  0.00  0.00    +0.000 A 
ATOM     23  C   UNL     1      -4.384  11.569  17.933  0.00  0.00    +0.000 A 
ATOM     24  C   UNL     1      -4.952  12.154  19.064  0.00  0.00    +0.000 A 
ATOM     25  C   UNL     1      -4.134  12.624  20.075  0.00  0.00    +0.000 A 
ATOM     26  C   UNL     1      -2.748  12.514  19.956  0.00  0.00    +0.000 A 
ATOM     27  C   UNL     1      -2.149  11.911  18.832  0.00  0.00    +0.000 A 
BRANCH  22  29
ATOM     28  N   UNL     1      -1.607   9.753  16.645  0.00  0.00    +0.000 N 
ATOM     29  C   UNL     1      -2.533  10.751  16.546  0.00  0.00    +0.000 C 
ATOM     30  O   UNL     1      -2.977  11.057  15.444  0.00  0.00    +0.000 OA
ATOM     31  H   UNL     1      -1.329   9.281  15.796  0.00  0.00    +0.000 HD
ATOM     32  H   UNL     1      -1.207   9.481  17.532  0.00  0.00    +0.000 HD
ENDBRANCH  22  29
ENDBRANCH  21  27
ENDBRANCH  20  21
ENDBRANCH   1  20
TORSDOF 5
ENDMDL
MODEL 9
REMARK VINA RESULT:      -8.3      2.801      9.221
REMARK  Name = 
REMARK  5 active torsions:
REMARK  status: ('A' for Active; 'I' for Inactive)
REMARK    1  A    between atoms: C_2  and  C_4
REMARK    2  A    between atoms: C_9  and  O_10
REMARK    3  A    between atoms: O_10  and  C_11
REMARK    4  A    between atoms: C_11  and  C_12
REMARK    5  A    between atoms: C_16  and  C_17
REMARK                            x       y       z     vdW  Elec       q    Type
REMARK                         _______ _______ _______ _____ _____    ______ ____
ROOT
ATOM      1  C   UNL     1       2.651   7.328  18.628  0.00  0.00    +0.000 A 
ATOM      2  C   UNL     1       2.440   6.062  19.194  0.00  0.00    +0.000 A 
ATOM      3  C   UNL     1       1.790   5.936  20.420  0.00  0.00    +0.000 A 
ATOM      4  C   UNL     1       1.332   7.073  21.082  0.00  0.00    +0.000 A 
ATOM      5  C   UNL     1       1.407   8.325  20.468  0.00  0.00    +0.000 A 
ATOM      6  C   UNL     1       2.115   8.458  19.265  0.00  0.00    +0.000 A 
ENDROOT
BRANCH   5   7
ATOM      7  C   UNL     1       0.789   9.547  21.055  0.00  0.00    +0.000 C 
ATOM      8  O   UNL     1       1.307   9.991  22.074  0.00  0.00    +0.000 OA
ATOM      9  N   UNL     1      -0.290  10.172  20.411  0.00  0.00    +0.000 N 
ATOM     10  C   UNL     1      -0.931   9.756  19.167  0.00  0.00    +0.000 C 
ATOM     11  C   UNL     1      -0.881  10.835  18.099  0.00  0.00    +0.000 C 
ATOM     12  C   UNL     1      -1.351  12.183  18.620  0.00  0.00    +0.000 C 
ATOM     13  C   UNL     1      -0.672  12.598  19.949  0.00  0.00    +0.000 C 
ATOM     14  C   UNL     1       0.826  12.952  19.731  0.00  0.00    +0.000 C 
ATOM     15  C   UNL     1       1.429  13.698  20.891  0.00  0.00    +0.000 C 
ATOM     16  C   UNL     1       0.694  14.340  21.811  0.00  0.00    +0.000 C 
ATOM     17  C   UNL     1      -0.803  14.411  21.765  0.00  0.00    +0.000 C 
ATOM     18  C   UNL     1      -1.388  13.875  20.456  0.00  0.00    +0.000 C 
ATOM     19  C   UNL     1      -0.807  11.429  20.967  0.00  0.00    +0.000 C 
ENDBRANCH   5   7
BRANCH   1  20
ATOM     20  C   UNL     1       3.558   7.476  17.432  0.00  0.00    +0.000 C 
BRANCH  20  21
ATOM     21  O   UNL     1       4.932   7.242  17.768  0.00  0.00    +0.000 OA
BRANCH  21  27
ATOM     22  C   UNL     1       6.709   5.623  17.535  0.00  0.00    +0.000 A 
ATOM     23  C   UNL     1       7.347   4.634  16.755  0.00  0.00    +0.000 A 
ATOM     24  C   UNL     1       6.855   4.266  15.504  0.00  0.00    +0.000 A 
ATOM     25  C   UNL     1       5.723   4.885  15.005  0.00  0.00    +0.000 A 
ATOM     26  C   UNL     1       5.085   5.875  15.753  0.00  0.00    +0.000 A 
ATOM     27  C   UNL     1       5.551   6.253  17.028  0.00  0.00    +0.000 A 
BRANCH  22  29
ATOM     28  N   UNL     1       8.296   6.841  18.971  0.00  0.00    +0.000 N 
ATOM     29  C   UNL     1       7.334   5.878  18.872  0.00  0.00    +0.000 C 
ATOM     30  O   UNL     1       6.999   5.252  19.872  0.00  0.00    +0.000 OA
ATOM     31  H   UNL     1       8.691   7.021  19.883  0.00  0.00    +0.000 HD
ATOM     32  H   UNL     1       8.608   7.369  18.168  0.00  0.00    +0.000 HD
ENDBRANCH  22  29
ENDBRANCH  21  27
ENDBRANCH  20  21
ENDBRANCH   1  20
TORSDOF 5
ENDMDL
