MODEL 1
REMARK VINA RESULT:      -8.6      0.000      0.000
REMARK  Name = 
REMARK  2 active torsions:
REMARK  status: ('A' for Active; 'I' for Inactive)
REMARK    1  A    between atoms: C_1  and  C_2
REMARK    2  A    between atoms: N_16  and  C_17
REMARK                            x       y       z     vdW  Elec       q    Type
REMARK                         _______ _______ _______ _____ _____    ______ ____
ROOT
ATOM      1  C   UNL     1       2.038   5.094  20.148  0.00  0.00    +0.000 C 
ATOM      2  C   UNL     1       2.627   5.210  18.705  0.00  0.00    +0.000 C 
ATOM      3  C   UNL     1       1.664   4.551  17.697  0.00  0.00    +0.000 C 
ATOM      4  C   UNL     1       1.864   3.050  17.947  0.00  0.00    +0.000 C 
ATOM      5  C   UNL     1       3.225   2.976  18.609  0.00  0.00    +0.000 C 
ATOM      6  O   UNL     1       3.757   1.963  19.030  0.00  0.00    +0.000 OA
ATOM      7  N   UNL     1       3.769   4.279  18.577  0.00  0.00    +0.000 N 
ATOM      8  C   UNL     1       4.619   4.536  17.440  0.00  0.00    +0.000 A 
ATOM      9  C   UNL     1       5.126   3.489  16.651  0.00  0.00    +0.000 A 
ATOM     10  C   UNL     1       5.644   3.741  15.377  0.00  0.00    +0.000 A 
ATOM     11  C   UNL     1       5.757   5.047  14.916  0.00  0.00    +0.000 A 
ATOM     12  C   UNL     1       5.355   6.102  15.731  0.00  0.00    +0.000 A 
ATOM     13  C   UNL     1       4.763   5.840  16.976  0.00  0.00    +0.000 A 
ATOM     14  C   UNL     1       4.112   6.952  17.683  0.00  0.00    +0.000 C 
ATOM     15  O   UNL     1       4.529   8.089  17.476  0.00  0.00    +0.000 OA
ATOM     16  N   UNL     1       2.991   6.621  18.445  0.00  0.00    +0.000 N 
ENDROOT
BRANCH  16  17
ATOM     17  C   UNL     1       2.113   7.686  18.830  0.00  0.00    +0.000 A 
ATOM     18  C   UNL     1       1.558   8.541  17.867  0.00  0.00    +0.000 A 
ATOM     19  C   UNL     1       0.776   9.635  18.253  0.00  0.00    +0.000 A 
ATOM     20  C   UNL     1       0.528   9.857  19.597  0.00  0.00    +0.000 A 
ATOM     21  F   UNL     1      -0.214  10.915  19.959  0.00  0.00    +0.000 F 
ATOM     22  C   UNL     1       1.056   9.027  20.571  0.00  0.00    +0.000 A 
ATOM     23  C   UNL     1       1.852   7.939  20.187  0.00  0.00    +0.000 A 
ENDBRANCH  16  17
TORSDOF 1
ENDMDL
MODEL 2
REMARK VINA RESULT:      -8.5      0.093      1.011
REMARK  Name = 
REMARK  2 active torsions:
REMARK  status: ('A' for Active; 'I' for Inactive)
REMARK    1  A    between atoms: C_1  and  C_2
REMARK    2  A    between atoms: N_16  and  C_17
REMARK                            x       y       z     vdW  Elec       q    Type
REMARK                         _______ _______ _______ _____ _____    ______ ____
ROOT
ATOM      1  C   UNL     1       2.058   5.179  20.171  0.00  0.00    +0.000 C 
ATOM      2  C   UNL     1       2.637   5.272  18.722  0.00  0.00    +0.000 C 
ATOM      3  C   UNL     1       1.646   4.638  17.725  0.00  0.00    +0.000 C 
ATOM      4  C   UNL     1       1.804   3.133  17.980  0.00  0.00    +0.000 C 
ATOM      5  C   UNL     1       3.168   3.021  18.629  0.00  0.00    +0.000 C 
ATOM      6  O   UNL     1       3.673   1.994  19.050  0.00  0.00    +0.000 OA
ATOM      7  N   UNL     1       3.750   4.307  18.587  0.00  0.00    +0.000 N 
ATOM      8  C   UNL     1       4.596   4.535  17.442  0.00  0.00    +0.000 A 
ATOM      9  C   UNL     1       5.065   3.469  16.652  0.00  0.00    +0.000 A 
ATOM     10  C   UNL     1       5.579   3.702  15.373  0.00  0.00    +0.000 A 
ATOM     11  C   UNL     1       5.726   5.002  14.906  0.00  0.00    +0.000 A 
ATOM     12  C   UNL     1       5.364   6.071  15.720  0.00  0.00    +0.000 A 
ATOM     13  C   UNL     1       4.775   5.832  16.971  0.00  0.00    +0.000 A 
ATOM     14  C   UNL     1       4.164   6.965  17.680  0.00  0.00    +0.000 C 
ATOM     15  O   UNL     1       4.612   8.089  17.465  0.00  0.00    +0.000 OA
ATOM     16  N   UNL     1       3.040   6.670  18.453  0.00  0.00    +0.000 N 
ENDROOT
BRANCH  16  17
ATOM     17  C   UNL     1       2.198   7.763  18.842  0.00  0.00    +0.000 A 
ATOM     18  C   UNL     1       1.871   7.972  20.189  0.00  0.00    +0.000 A 
ATOM     19  C   UNL     1       0.977   8.984  20.555  0.00  0.00    +0.000 A 
ATOM     20  C   UNL     1       0.430   9.799  19.578  0.00  0.00    +0.000 A 
ATOM     21  F   UNL     1      -0.436  10.759  19.936  0.00  0.00    +0.000 F 
ATOM     22  C   UNL     1       0.738   9.621  18.240  0.00  0.00    +0.000 A 
ATOM     23  C   UNL     1       1.623   8.599  17.870  0.00  0.00    +0.000 A 
ENDBRANCH  16  17
TORSDOF 1
ENDMDL
MODEL 3
REMARK VINA RESULT:      -8.1      3.140      4.738
REMARK  Name = 
REMARK  2 active torsions:
REMARK  status: ('A' for Active; 'I' for Inactive)
REMARK    1  A    between atoms: C_1  and  C_2
REMARK    2  A    between atoms: N_16  and  C_17
REMARK                            x       y       z     vdW  Elec       q    Type
REMARK                         _______ _______ _______ _____ _____    ______ ____
ROOT
ATOM      1  C   UNL     1       4.501   6.484  19.449  0.00  0.00    +0.000 C 
ATOM      2  C   UNL     1       5.001   5.487  18.353  0.00  0.00    +0.000 C 
ATOM      3  C   UNL     1       6.344   4.868  18.789  0.00  0.00    +0.000 C 
ATOM      4  C   UNL     1       7.344   6.014  18.585  0.00  0.00    +0.000 C 
ATOM      5  C   UNL     1       6.650   6.921  17.591  0.00  0.00    +0.000 C 
ATOM      6  O   UNL     1       7.074   7.991  17.188  0.00  0.00    +0.000 OA
ATOM      7  N   UNL     1       5.472   6.259  17.182  0.00  0.00    +0.000 N 
ATOM      8  C   UNL     1       5.620   5.478  15.979  0.00  0.00    +0.000 A 
ATOM      9  C   UNL     1       6.722   5.652  15.123  0.00  0.00    +0.000 A 
ATOM     10  C   UNL     1       7.044   4.682  14.169  0.00  0.00    +0.000 A 
ATOM     11  C   UNL     1       6.218   3.579  13.988  0.00  0.00    +0.000 A 
ATOM     12  C   UNL     1       5.067   3.448  14.759  0.00  0.00    +0.000 A 
ATOM     13  C   UNL     1       4.788   4.382  15.768  0.00  0.00    +0.000 A 
ATOM     14  C   UNL     1       3.721   4.070  16.730  0.00  0.00    +0.000 C 
ATOM     15  O   UNL     1       2.805   3.341  16.357  0.00  0.00    +0.000 OA
ATOM     16  N   UNL     1       3.911   4.540  18.030  0.00  0.00    +0.000 N 
ENDROOT
BRANCH  16  17
ATOM     17  C   UNL     1       3.119   3.952  19.070  0.00  0.00    +0.000 A 
ATOM     18  C   UNL     1       1.807   4.385  19.304  0.00  0.00    +0.000 A 
ATOM     19  C   UNL     1       1.069   3.872  20.376  0.00  0.00    +0.000 A 
ATOM     20  C   UNL     1       1.635   2.912  21.197  0.00  0.00    +0.000 A 
ATOM     21  F   UNL     1       0.925   2.434  22.231  0.00  0.00    +0.000 F 
ATOM     22  C   UNL     1       2.926   2.459  20.989  0.00  0.00    +0.000 A 
ATOM     23  C   UNL     1       3.672   2.981  19.923  0.00  0.00    +0.000 A 
ENDBRANCH  16  17
TORSDOF 1
ENDMDL
MODEL 4
REMARK VINA RESULT:      -7.8      3.147      4.796
REMARK  Name = 
REMARK  2 active torsions:
REMARK  status: ('A' for Active; 'I' for Inactive)
REMARK    1  A    between atoms: C_1  and  C_2
REMARK    2  A    between atoms: N_16  and  C_17
REMARK                            x       y       z     vdW  Elec       q    Type
REMARK                         _______ _______ _______ _____ _____    ______ ____
ROOT
ATOM      1  C   UNL     1       4.598   6.612  19.419  0.00  0.00    +0.000 C 
ATOM      2  C   UNL     1       5.065   5.573  18.348  0.00  0.00    +0.000 C 
ATOM      3  C   UNL     1       6.412   4.957  18.776  0.00  0.00    +0.000 C 
ATOM      4  C   UNL     1       7.417   6.085  18.510  0.00  0.00    +0.000 C 
ATOM      5  C   UNL     1       6.708   6.964  17.499  0.00  0.00    +0.000 C 
ATOM      6  O   UNL     1       7.134   8.015  17.050  0.00  0.00    +0.000 OA
ATOM      7  N   UNL     1       5.516   6.299  17.140  0.00  0.00    +0.000 N 
ATOM      8  C   UNL     1       5.630   5.475  15.963  0.00  0.00    +0.000 A 
ATOM      9  C   UNL     1       6.714   5.608  15.076  0.00  0.00    +0.000 A 
ATOM     10  C   UNL     1       7.007   4.602  14.151  0.00  0.00    +0.000 A 
ATOM     11  C   UNL     1       6.167   3.502  14.027  0.00  0.00    +0.000 A 
ATOM     12  C   UNL     1       5.032   3.409  14.827  0.00  0.00    +0.000 A 
ATOM     13  C   UNL     1       4.784   4.381  15.808  0.00  0.00    +0.000 A 
ATOM     14  C   UNL     1       3.737   4.112  16.804  0.00  0.00    +0.000 C 
ATOM     15  O   UNL     1       2.806   3.379  16.477  0.00  0.00    +0.000 OA
ATOM     16  N   UNL     1       3.959   4.626  18.082  0.00  0.00    +0.000 N 
ENDROOT
BRANCH  16  17
ATOM     17  C   UNL     1       3.186   4.082  19.159  0.00  0.00    +0.000 A 
ATOM     18  C   UNL     1       3.697   3.050  19.959  0.00  0.00    +0.000 A 
ATOM     19  C   UNL     1       2.906   2.460  20.950  0.00  0.00    +0.000 A 
ATOM     20  C   UNL     1       1.616   2.917  21.157  0.00  0.00    +0.000 A 
ATOM     21  F   UNL     1       0.859   2.337  22.101  0.00  0.00    +0.000 F 
ATOM     22  C   UNL     1       1.084   3.938  20.388  0.00  0.00    +0.000 A 
ATOM     23  C   UNL     1       1.871   4.522  19.385  0.00  0.00    +0.000 A 
ENDBRANCH  16  17
TORSDOF 1
ENDMDL
MODEL 5
REMARK VINA RESULT:      -7.8      3.003      5.740
REMARK  Name = 
REMARK  2 active torsions:
REMARK  status: ('A' for Active; 'I' for Inactive)
REMARK    1  A    between atoms: C_1  and  C_2
REMARK    2  A    between atoms: N_16  and  C_17
REMARK                            x       y       z     vdW  Elec       q    Type
REMARK                         _______ _______ _______ _____ _____    ______ ____
ROOT
ATOM      1  C   UNL     1       3.853   2.348  17.409  0.00  0.00    +0.000 C 
ATOM      2  C   UNL     1       3.740   3.665  18.245  0.00  0.00    +0.000 C 
ATOM      3  C   UNL     1       4.597   3.543  19.521  0.00  0.00    +0.000 C 
ATOM      4  C   UNL     1       3.779   2.593  20.407  0.00  0.00    +0.000 C 
ATOM      5  C   UNL     1       2.375   2.705  19.849  0.00  0.00    +0.000 C 
ATOM      6  O   UNL     1       1.406   2.068  20.228  0.00  0.00    +0.000 OA
ATOM      7  N   UNL     1       2.401   3.723  18.870  0.00  0.00    +0.000 N 
ATOM      8  C   UNL     1       2.034   5.027  19.364  0.00  0.00    +0.000 A 
ATOM      9  C   UNL     1       1.381   5.186  20.600  0.00  0.00    +0.000 A 
ATOM     10  C   UNL     1       1.341   6.434  21.229  0.00  0.00    +0.000 A 
ATOM     11  C   UNL     1       1.860   7.555  20.592  0.00  0.00    +0.000 A 
ATOM     12  C   UNL     1       2.415   7.428  19.323  0.00  0.00    +0.000 A 
ATOM     13  C   UNL     1       2.525   6.163  18.727  0.00  0.00    +0.000 A 
ATOM     14  C   UNL     1       3.350   6.032  17.518  0.00  0.00    +0.000 C 
ATOM     15  O   UNL     1       3.471   7.017  16.793  0.00  0.00    +0.000 OA
ATOM     16  N   UNL     1       4.026   4.820  17.365  0.00  0.00    +0.000 N 
ENDROOT
BRANCH  16  17
ATOM     17  C   UNL     1       5.117   4.782  16.437  0.00  0.00    +0.000 A 
ATOM     18  C   UNL     1       6.408   5.158  16.833  0.00  0.00    +0.000 A 
ATOM     19  C   UNL     1       7.452   5.206  15.902  0.00  0.00    +0.000 A 
ATOM     20  C   UNL     1       7.209   4.856  14.586  0.00  0.00    +0.000 A 
ATOM     21  F   UNL     1       8.213   4.917  13.697  0.00  0.00    +0.000 F 
ATOM     22  C   UNL     1       5.947   4.475  14.165  0.00  0.00    +0.000 A 
ATOM     23  C   UNL     1       4.897   4.439  15.092  0.00  0.00    +0.000 A 
ENDBRANCH  16  17
TORSDOF 1
ENDMDL
MODEL 6
REMARK VINA RESULT:      -7.8      3.086      6.106
REMARK  Name = 
REMARK  2 active torsions:
REMARK  status: ('A' for Active; 'I' for Inactive)
REMARK    1  A    between atoms: C_1  and  C_2
REMARK    2  A    between atoms: N_16  and  C_17
REMARK                            x       y       z     vdW  Elec       q    Type
REMARK                         _______ _______ _______ _____ _____    ______ ____
ROOT
ATOM      1  C   UNL     1       4.544   7.354  17.822  0.00  0.00    +0.000 C 
ATOM      2  C   UNL     1       3.780   6.047  18.212  0.00  0.00    +0.000 C 
ATOM      3  C   UNL     1       2.410   6.015  17.505  0.00  0.00    +0.000 C 
ATOM      4  C   UNL     1       1.586   7.049  18.285  0.00  0.00    +0.000 C 
ATOM      5  C   UNL     1       2.305   7.150  19.614  0.00  0.00    +0.000 C 
ATOM      6  O   UNL     1       2.014   7.907  20.524  0.00  0.00    +0.000 OA
ATOM      7  N   UNL     1       3.315   6.163  19.612  0.00  0.00    +0.000 N 
ATOM      8  C   UNL     1       2.920   4.912  20.210  0.00  0.00    +0.000 A 
ATOM      9  C   UNL     1       1.774   4.815  21.021  0.00  0.00    +0.000 A 
ATOM     10  C   UNL     1       1.205   3.571  21.306  0.00  0.00    +0.000 A 
ATOM     11  C   UNL     1       1.823   2.404  20.873  0.00  0.00    +0.000 A 
ATOM     12  C   UNL     1       3.015   2.482  20.159  0.00  0.00    +0.000 A 
ATOM     13  C   UNL     1       3.542   3.734  19.807  0.00  0.00    +0.000 A 
ATOM     14  C   UNL     1       4.642   3.776  18.833  0.00  0.00    +0.000 C 
ATOM     15  O   UNL     1       5.388   2.802  18.764  0.00  0.00    +0.000 OA
ATOM     16  N   UNL     1       4.667   4.885  17.985  0.00  0.00    +0.000 N 
ENDROOT
BRANCH  16  17
ATOM     17  C   UNL     1       5.462   4.791  16.796  0.00  0.00    +0.000 A 
ATOM     18  C   UNL     1       6.809   5.182  16.801  0.00  0.00    +0.000 A 
ATOM     19  C   UNL     1       7.555   5.175  15.618  0.00  0.00    +0.000 A 
ATOM     20  C   UNL     1       6.964   4.755  14.440  0.00  0.00    +0.000 A 
ATOM     21  F   UNL     1       7.685   4.763  13.307  0.00  0.00    +0.000 F 
ATOM     22  C   UNL     1       5.639   4.357  14.403  0.00  0.00    +0.000 A 
ATOM     23  C   UNL     1       4.885   4.376  15.584  0.00  0.00    +0.000 A 
ENDBRANCH  16  17
TORSDOF 1
ENDMDL
MODEL 7
REMARK VINA RESULT:      -7.5      3.123      6.044
REMARK  Name = 
REMARK  2 active torsions:
REMARK  status: ('A' for Active; 'I' for Inactive)
REMARK    1  A    between atoms: C_1  and  C_2
REMARK    2  A    between atoms: N_16  and  C_17
REMARK                            x       y       z     vdW  Elec       q    Type
REMARK                         _______ _______ _______ _____ _____    ______ ____
ROOT
ATOM      1  C   UNL     1       4.337   7.473  17.653  0.00  0.00    +0.000 C 
ATOM      2  C   UNL     1       3.692   6.126  18.116  0.00  0.00    +0.000 C 
ATOM      3  C   UNL     1       2.289   5.981  17.493  0.00  0.00    +0.000 C 
ATOM      4  C   UNL     1       1.441   6.974  18.298  0.00  0.00    +0.000 C 
ATOM      5  C   UNL     1       2.227   7.158  19.580  0.00  0.00    +0.000 C 
ATOM      6  O   UNL     1       1.936   7.916  20.490  0.00  0.00    +0.000 OA
ATOM      7  N   UNL     1       3.303   6.244  19.538  0.00  0.00    +0.000 N 
ATOM      8  C   UNL     1       3.033   4.984  20.184  0.00  0.00    +0.000 A 
ATOM      9  C   UNL     1       1.947   4.828  21.064  0.00  0.00    +0.000 A 
ATOM     10  C   UNL     1       1.485   3.554  21.409  0.00  0.00    +0.000 A 
ATOM     11  C   UNL     1       2.159   2.423  20.965  0.00  0.00    +0.000 A 
ATOM     12  C   UNL     1       3.299   2.566  20.178  0.00  0.00    +0.000 A 
ATOM     13  C   UNL     1       3.714   3.843  19.770  0.00  0.00    +0.000 A 
ATOM     14  C   UNL     1       4.749   3.938  18.731  0.00  0.00    +0.000 C 
ATOM     15  O   UNL     1       5.558   3.017  18.637  0.00  0.00    +0.000 OA
ATOM     16  N   UNL     1       4.646   5.023  17.860  0.00  0.00    +0.000 N 
ENDROOT
BRANCH  16  17
ATOM     17  C   UNL     1       5.375   4.956  16.627  0.00  0.00    +0.000 A 
ATOM     18  C   UNL     1       4.784   4.422  15.474  0.00  0.00    +0.000 A 
ATOM     19  C   UNL     1       5.528   4.274  14.298  0.00  0.00    +0.000 A 
ATOM     20  C   UNL     1       6.850   4.683  14.270  0.00  0.00    +0.000 A 
ATOM     21  F   UNL     1       7.559   4.527  13.141  0.00  0.00    +0.000 F 
ATOM     22  C   UNL     1       7.460   5.220  15.390  0.00  0.00    +0.000 A 
ATOM     23  C   UNL     1       6.721   5.356  16.574  0.00  0.00    +0.000 A 
ENDBRANCH  16  17
TORSDOF 1
ENDMDL
MODEL 8
REMARK VINA RESULT:      -7.4      2.996      5.656
REMARK  Name = 
REMARK  2 active torsions:
REMARK  status: ('A' for Active; 'I' for Inactive)
REMARK    1  A    between atoms: C_1  and  C_2
REMARK    2  A    between atoms: N_16  and  C_17
REMARK                            x       y       z     vdW  Elec       q    Type
REMARK                         _______ _______ _______ _____ _____    ______ ____
ROOT
ATOM      1  C   UNL     1       3.870   2.549  17.241  0.00  0.00    +0.000 C 
ATOM      2  C   UNL     1       3.742   3.826  18.133  0.00  0.00    +0.000 C 
ATOM      3  C   UNL     1       4.612   3.667  19.396  0.00  0.00    +0.000 C 
ATOM      4  C   UNL     1       3.819   2.667  20.247  0.00  0.00    +0.000 C 
ATOM      5  C   UNL     1       2.408   2.777  19.706  0.00  0.00    +0.000 C 
ATOM      6  O   UNL     1       1.455   2.107  20.066  0.00  0.00    +0.000 OA
ATOM      7  N   UNL     1       2.408   3.834  18.771  0.00  0.00    +0.000 N 
ATOM      8  C   UNL     1       2.023   5.110  19.322  0.00  0.00    +0.000 A 
ATOM      9  C   UNL     1       1.378   5.206  20.569  0.00  0.00    +0.000 A 
ATOM     10  C   UNL     1       1.322   6.425  21.250  0.00  0.00    +0.000 A 
ATOM     11  C   UNL     1       1.815   7.581  20.657  0.00  0.00    +0.000 A 
ATOM     12  C   UNL     1       2.361   7.518  19.378  0.00  0.00    +0.000 A 
ATOM     13  C   UNL     1       2.488   6.280  18.729  0.00  0.00    +0.000 A 
ATOM     14  C   UNL     1       3.305   6.215  17.509  0.00  0.00    +0.000 C 
ATOM     15  O   UNL     1       3.401   7.231  16.825  0.00  0.00    +0.000 OA
ATOM     16  N   UNL     1       4.000   5.022  17.300  0.00  0.00    +0.000 N 
ENDROOT
BRANCH  16  17
ATOM     17  C   UNL     1       5.083   5.043  16.362  0.00  0.00    +0.000 A 
ATOM     18  C   UNL     1       4.890   4.634  15.035  0.00  0.00    +0.000 A 
ATOM     19  C   UNL     1       5.969   4.569  14.147  0.00  0.00    +0.000 A 
ATOM     20  C   UNL     1       7.232   4.935  14.578  0.00  0.00    +0.000 A 
ATOM     21  F   UNL     1       8.264   4.858  13.723  0.00  0.00    +0.000 F 
ATOM     22  C   UNL     1       7.454   5.349  15.881  0.00  0.00    +0.000 A 
ATOM     23  C   UNL     1       6.377   5.401  16.776  0.00  0.00    +0.000 A 
ENDBRANCH  16  17
TORSDOF 1
ENDMDL
MODEL 9
REMARK VINA RESULT:      -7.4      1.839      3.339
REMARK  Name = 
REMARK  2 active torsions:
REMARK  status: ('A' for Active; 'I' for Inactive)
REMARK    1  A    between atoms: C_1  and  C_2
REMARK    2  A    between atoms: N_16  and  C_17
REMARK                            x       y       z     vdW  Elec       q    Type
REMARK                         _______ _______ _______ _____ _____    ______ ____
ROOT
ATOM      1  C   UNL     1       5.032   7.274  17.339  0.00  0.00    +0.000 C 
ATOM      2  C   UNL     1       4.410   5.986  17.971  0.00  0.00    +0.000 C 
ATOM      3  C   UNL     1       5.144   5.646  19.284  0.00  0.00    +0.000 C 
ATOM      4  C   UNL     1       6.488   5.085  18.801  0.00  0.00    +0.000 C 
ATOM      5  C   UNL     1       6.204   4.650  17.378  0.00  0.00    +0.000 C 
ATOM      6  O   UNL     1       7.022   4.192  16.598  0.00  0.00    +0.000 OA
ATOM      7  N   UNL     1       4.817   4.813  17.167  0.00  0.00    +0.000 N 
ATOM      8  C   UNL     1       4.038   3.626  17.416  0.00  0.00    +0.000 A 
ATOM      9  C   UNL     1       4.640   2.359  17.511  0.00  0.00    +0.000 A 
ATOM     10  C   UNL     1       3.956   1.284  18.085  0.00  0.00    +0.000 A 
ATOM     11  C   UNL     1       2.631   1.431  18.480  0.00  0.00    +0.000 A 
ATOM     12  C   UNL     1       1.990   2.652  18.294  0.00  0.00    +0.000 A 
ATOM     13  C   UNL     1       2.703   3.750  17.790  0.00  0.00    +0.000 A 
ATOM     14  C   UNL     1       2.077   5.078  17.860  0.00  0.00    +0.000 C 
ATOM     15  O   UNL     1       0.849   5.138  17.844  0.00  0.00    +0.000 OA
ATOM     16  N   UNL     1       2.943   6.155  18.059  0.00  0.00    +0.000 N 
ENDROOT
BRANCH  16  17
ATOM     17  C   UNL     1       2.372   7.389  18.512  0.00  0.00    +0.000 A 
ATOM     18  C   UNL     1       2.055   7.579  19.864  0.00  0.00    +0.000 A 
ATOM     19  C   UNL     1       1.415   8.749  20.287  0.00  0.00    +0.000 A 
ATOM     20  C   UNL     1       1.116   9.736  19.363  0.00  0.00    +0.000 A 
ATOM     21  F   UNL     1       0.492  10.850  19.775  0.00  0.00    +0.000 F 
ATOM     22  C   UNL     1       1.422   9.581  18.022  0.00  0.00    +0.000 A 
ATOM     23  C   UNL     1       2.051   8.403  17.594  0.00  0.00    +0.000 A 
ENDBRANCH  16  17
TORSDOF 1
ENDMDL
