MODEL 1
REMARK VINA RESULT:      -8.9      0.000      0.000
REMARK  Name = 
REMARK  8 active torsions:
REMARK  status: ('A' for Active; 'I' for Inactive)
REMARK    1  A    between atoms: C_1  and  C_2
REMARK    2  A    between atoms: C_2  and  C_3
REMARK    3  A    between atoms: C_7  and  N_8
REMARK    4  A    between atoms: C_9  and  C_11
REMARK    5  A    between atoms: C_15  and  O_16
REMARK    6  A    between atoms: O_16  and  C_17
REMARK    7  A    between atoms: C_17  and  C_18
REMARK    8  A    between atoms: C_18  and  O_20
REMARK                            x       y       z     vdW  Elec       q    Type
REMARK                         _______ _______ _______ _____ _____    ______ ____
ROOT
ATOM      1  C   UNL     1       5.097   5.278  17.141  0.00  0.00    +0.000 A 
ATOM      2  C   UNL     1       4.448   4.088  16.764  0.00  0.00    +0.000 A 
ATOM      3  C   UNL     1       3.157   3.802  17.212  0.00  0.00    +0.000 A 
ATOM      4  C   UNL     1       2.488   4.697  18.048  0.00  0.00    +0.000 A 
ATOM      5  C   UNL     1       3.092   5.906  18.385  0.00  0.00    +0.000 A 
ATOM      6  C   UNL     1       4.377   6.204  17.921  0.00  0.00    +0.000 A 
ENDROOT
BRANCH   1   8
ATOM      7  C   UNL     1       6.952   4.719  15.512  0.00  0.00    +0.000 C 
ATOM      8  C   UNL     1       6.546   5.549  16.722  0.00  0.00    +0.000 C 
ATOM      9  N   UNL     1       6.777   6.968  16.514  0.00  0.00    +0.000 N 
ATOM     10  C   UNL     1       7.435   7.556  17.565  0.00  0.00    +0.000 C 
ATOM     11  O   UNL     1       7.635   8.750  17.682  0.00  0.00    +0.000 OA
ATOM     12  N   UNL     1       7.851   6.588  18.408  0.00  0.00    +0.000 N 
ATOM     13  C   UNL     1       7.541   5.364  17.903  0.00  0.00    +0.000 C 
ATOM     14  O   UNL     1       7.957   4.306  18.357  0.00  0.00    +0.000 OA
ATOM     15  H   UNL     1       6.348   7.536  15.796  0.00  0.00    +0.000 HD
ATOM     16  H   UNL     1       8.454   6.750  19.195  0.00  0.00    +0.000 HD
ENDBRANCH   1   8
BRANCH   5  17
ATOM     17  N   UNL     1       2.496   6.786  19.311  0.00  0.00    +0.000 N 
ATOM     18  C   UNL     1       1.957   7.994  18.889  0.00  0.00    +0.000 C 
ATOM     19  O   UNL     1       1.997   8.418  17.739  0.00  0.00    +0.000 OA
ATOM     20  H   UNL     1       1.970   6.333  20.048  0.00  0.00    +0.000 HD
BRANCH  18  21
ATOM     21  C   UNL     1       1.280   8.812  19.945  0.00  0.00    +0.000 A 
ATOM     22  C   UNL     1       0.959   8.273  21.197  0.00  0.00    +0.000 A 
ATOM     23  C   UNL     1       0.407   9.090  22.187  0.00  0.00    +0.000 A 
ATOM     24  C   UNL     1       0.184  10.448  21.942  0.00  0.00    +0.000 A 
ATOM     25  C   UNL     1       0.513  11.001  20.703  0.00  0.00    +0.000 A 
ATOM     26  C   UNL     1       1.042  10.176  19.702  0.00  0.00    +0.000 A 
BRANCH  25  27
ATOM     27  O   UNL     1       0.323  12.314  20.357  0.00  0.00    +0.000 OA
BRANCH  27  28
ATOM     28  C   UNL     1       0.771  12.669  19.042  0.00  0.00    +0.000 C 
BRANCH  28  29
ATOM     29  C   UNL     1      -0.263  13.564  18.367  0.00  0.00    +0.000 C 
ATOM     30  O   UNL     1      -0.392  14.755  18.602  0.00  0.00    +0.000 OA
BRANCH  29  31
ATOM     31  O   UNL     1      -1.048  12.904  17.483  0.00  0.00    +0.000 OA
ATOM     32  H   UNL     1      -0.572  12.123  17.128  0.00  0.00    +0.000 HD
ENDBRANCH  29  31
ENDBRANCH  28  29
ENDBRANCH  27  28
ENDBRANCH  25  27
ENDBRANCH  18  21
ENDBRANCH   5  17
TORSDOF 7
ENDMDL
MODEL 2
REMARK VINA RESULT:      -8.7      1.304      1.357
REMARK  Name = 
REMARK  8 active torsions:
REMARK  status: ('A' for Active; 'I' for Inactive)
REMARK    1  A    between atoms: C_1  and  C_2
REMARK    2  A    between atoms: C_2  and  C_3
REMARK    3  A    between atoms: C_7  and  N_8
REMARK    4  A    between atoms: C_9  and  C_11
REMARK    5  A    between atoms: C_15  and  O_16
REMARK    6  A    between atoms: O_16  and  C_17
REMARK    7  A    between atoms: C_17  and  C_18
REMARK    8  A    between atoms: C_18  and  O_20
REMARK                            x       y       z     vdW  Elec       q    Type
REMARK                         _______ _______ _______ _____ _____    ______ ____
ROOT
ATOM      1  C   UNL     1       5.150   5.374  17.072  0.00  0.00    +0.000 A 
ATOM      2  C   UNL     1       4.576   4.091  17.022  0.00  0.00    +0.000 A 
ATOM      3  C   UNL     1       3.255   3.880  17.421  0.00  0.00    +0.000 A 
ATOM      4  C   UNL     1       2.479   4.945  17.880  0.00  0.00    +0.000 A 
ATOM      5  C   UNL     1       3.012   6.232  17.880  0.00  0.00    +0.000 A 
ATOM      6  C   UNL     1       4.328   6.450  17.462  0.00  0.00    +0.000 A 
ENDROOT
BRANCH   1   8
ATOM      7  C   UNL     1       7.052   4.749  15.523  0.00  0.00    +0.000 C 
ATOM      8  C   UNL     1       6.626   5.589  16.720  0.00  0.00    +0.000 C 
ATOM      9  N   UNL     1       6.922   6.999  16.531  0.00  0.00    +0.000 N 
ATOM     10  C   UNL     1       7.555   7.555  17.613  0.00  0.00    +0.000 C 
ATOM     11  O   UNL     1       7.797   8.740  17.747  0.00  0.00    +0.000 OA
ATOM     12  N   UNL     1       7.894   6.568  18.468  0.00  0.00    +0.000 N 
ATOM     13  C   UNL     1       7.559   5.359  17.942  0.00  0.00    +0.000 C 
ATOM     14  O   UNL     1       7.911   4.283  18.408  0.00  0.00    +0.000 OA
ATOM     15  H   UNL     1       6.549   7.587  15.799  0.00  0.00    +0.000 HD
ATOM     16  H   UNL     1       8.468   6.702  19.282  0.00  0.00    +0.000 HD
ENDBRANCH   1   8
BRANCH   5  17
ATOM     17  N   UNL     1       2.300   7.315  18.435  0.00  0.00    +0.000 N 
ATOM     18  C   UNL     1       1.978   7.330  19.785  0.00  0.00    +0.000 C 
ATOM     19  O   UNL     1       2.219   6.423  20.576  0.00  0.00    +0.000 OA
ATOM     20  H   UNL     1       2.546   8.222  18.058  0.00  0.00    +0.000 HD
BRANCH  18  21
ATOM     21  C   UNL     1       1.291   8.565  20.280  0.00  0.00    +0.000 A 
ATOM     22  C   UNL     1       0.879   8.692  21.613  0.00  0.00    +0.000 A 
ATOM     23  C   UNL     1       0.319   9.892  22.059  0.00  0.00    +0.000 A 
ATOM     24  C   UNL     1       0.179  10.976  21.188  0.00  0.00    +0.000 A 
ATOM     25  C   UNL     1       0.599  10.867  19.860  0.00  0.00    +0.000 A 
ATOM     26  C   UNL     1       1.136   9.655  19.407  0.00  0.00    +0.000 A 
BRANCH  25  27
ATOM     27  O   UNL     1       0.495  11.863  18.923  0.00  0.00    +0.000 OA
BRANCH  27  28
ATOM     28  C   UNL     1       1.154  13.090  19.263  0.00  0.00    +0.000 C 
BRANCH  28  29
ATOM     29  C   UNL     1       2.270  13.373  18.262  0.00  0.00    +0.000 C 
ATOM     30  O   UNL     1       2.909  14.412  18.229  0.00  0.00    +0.000 OA
BRANCH  29  31
ATOM     31  O   UNL     1       2.477  12.360  17.389  0.00  0.00    +0.000 OA
ATOM     32  H   UNL     1       1.804  12.388  16.675  0.00  0.00    +0.000 HD
ENDBRANCH  29  31
ENDBRANCH  28  29
ENDBRANCH  27  28
ENDBRANCH  25  27
ENDBRANCH  18  21
ENDBRANCH   5  17
TORSDOF 7
ENDMDL
MODEL 3
REMARK VINA RESULT:      -8.5      3.055      4.619
REMARK  Name = 
REMARK  8 active torsions:
REMARK  status: ('A' for Active; 'I' for Inactive)
REMARK    1  A    between atoms: C_1  and  C_2
REMARK    2  A    between atoms: C_2  and  C_3
REMARK    3  A    between atoms: C_7  and  N_8
REMARK    4  A    between atoms: C_9  and  C_11
REMARK    5  A    between atoms: C_15  and  O_16
REMARK    6  A    between atoms: O_16  and  C_17
REMARK    7  A    between atoms: C_17  and  C_18
REMARK    8  A    between atoms: C_18  and  O_20
REMARK                            x       y       z     vdW  Elec       q    Type
REMARK                         _______ _______ _______ _____ _____    ______ ____
ROOT
ATOM      1  C   UNL     1       3.188   4.585  18.460  0.00  0.00    +0.000 A 
ATOM      2  C   UNL     1       4.359   4.751  17.697  0.00  0.00    +0.000 A 
ATOM      3  C   UNL     1       4.721   6.006  17.204  0.00  0.00    +0.000 A 
ATOM      4  C   UNL     1       3.922   7.121  17.460  0.00  0.00    +0.000 A 
ATOM      5  C   UNL     1       2.792   6.986  18.262  0.00  0.00    +0.000 A 
ATOM      6  C   UNL     1       2.437   5.734  18.774  0.00  0.00    +0.000 A 
ENDROOT
BRANCH   1   8
ATOM      7  C   UNL     1       3.285   2.094  18.020  0.00  0.00    +0.000 C 
ATOM      8  C   UNL     1       2.744   3.194  18.924  0.00  0.00    +0.000 C 
ATOM      9  N   UNL     1       3.083   2.971  20.319  0.00  0.00    +0.000 N 
ATOM     10  C   UNL     1       2.003   3.111  21.153  0.00  0.00    +0.000 C 
ATOM     11  O   UNL     1       2.054   3.094  22.369  0.00  0.00    +0.000 OA
ATOM     12  N   UNL     1       0.889   3.225  20.401  0.00  0.00    +0.000 N 
ATOM     13  C   UNL     1       1.200   3.095  19.083  0.00  0.00    +0.000 C 
ATOM     14  O   UNL     1       0.373   2.972  18.189  0.00  0.00    +0.000 OA
ATOM     15  H   UNL     1       4.018   2.917  20.697  0.00  0.00    +0.000 HD
ATOM     16  H   UNL     1      -0.044   3.225  20.775  0.00  0.00    +0.000 HD
ENDBRANCH   1   8
BRANCH   5  17
ATOM     17  N   UNL     1       1.903   8.063  18.456  0.00  0.00    +0.000 N 
ATOM     18  C   UNL     1       1.536   8.453  19.737  0.00  0.00    +0.000 C 
ATOM     19  O   UNL     1       1.887   7.892  20.770  0.00  0.00    +0.000 OA
ATOM     20  H   UNL     1       2.018   8.831  17.806  0.00  0.00    +0.000 HD
BRANCH  18  21
ATOM     21  C   UNL     1       0.650   9.657  19.825  0.00  0.00    +0.000 A 
ATOM     22  C   UNL     1       0.714  10.537  20.913  0.00  0.00    +0.000 A 
ATOM     23  C   UNL     1      -0.067  11.696  20.920  0.00  0.00    +0.000 A 
ATOM     24  C   UNL     1      -0.903  11.993  19.840  0.00  0.00    +0.000 A 
ATOM     25  C   UNL     1      -0.965  11.131  18.743  0.00  0.00    +0.000 A 
ATOM     26  C   UNL     1      -0.202   9.957  18.748  0.00  0.00    +0.000 A 
BRANCH  25  27
ATOM     27  O   UNL     1      -1.759  11.323  17.642  0.00  0.00    +0.000 OA
BRANCH  27  28
ATOM     28  C   UNL     1      -1.987  10.154  16.844  0.00  0.00    +0.000 C 
BRANCH  28  29
ATOM     29  C   UNL     1      -2.790  10.524  15.601  0.00  0.00    +0.000 C 
ATOM     30  O   UNL     1      -2.839   9.840  14.591  0.00  0.00    +0.000 OA
BRANCH  29  31
ATOM     31  O   UNL     1      -3.439  11.707  15.713  0.00  0.00    +0.000 OA
ATOM     32  H   UNL     1      -4.405  11.574  15.599  0.00  0.00    +0.000 HD
ENDBRANCH  29  31
ENDBRANCH  28  29
ENDBRANCH  27  28
ENDBRANCH  25  27
ENDBRANCH  18  21
ENDBRANCH   5  17
TORSDOF 7
ENDMDL
MODEL 4
REMARK VINA RESULT:      -8.5      1.421      1.616
REMARK  Name = 
REMARK  8 active torsions:
REMARK  status: ('A' for Active; 'I' for Inactive)
REMARK    1  A    between atoms: C_1  and  C_2
REMARK    2  A    between atoms: C_2  and  C_3
REMARK    3  A    between atoms: C_7  and  N_8
REMARK    4  A    between atoms: C_9  and  C_11
REMARK    5  A    between atoms: C_15  and  O_16
REMARK    6  A    between atoms: O_16  and  C_17
REMARK    7  A    between atoms: C_17  and  C_18
REMARK    8  A    between atoms: C_18  and  O_20
REMARK                            x       y       z     vdW  Elec       q    Type
REMARK                         _______ _______ _______ _____ _____    ______ ____
ROOT
ATOM      1  C   UNL     1       5.151   5.346  17.078  0.00  0.00    +0.000 A 
ATOM      2  C   UNL     1       4.600   4.055  16.990  0.00  0.00    +0.000 A 
ATOM      3  C   UNL     1       3.286   3.807  17.393  0.00  0.00    +0.000 A 
ATOM      4  C   UNL     1       2.496   4.843  17.893  0.00  0.00    +0.000 A 
ATOM      5  C   UNL     1       3.005   6.138  17.932  0.00  0.00    +0.000 A 
ATOM      6  C   UNL     1       4.315   6.393  17.511  0.00  0.00    +0.000 A 
ENDROOT
BRANCH   1   8
ATOM      7  C   UNL     1       7.067   4.764  15.529  0.00  0.00    +0.000 C 
ATOM      8  C   UNL     1       6.620   5.599  16.721  0.00  0.00    +0.000 C 
ATOM      9  N   UNL     1       6.877   7.015  16.524  0.00  0.00    +0.000 N 
ATOM     10  C   UNL     1       7.498   7.594  17.602  0.00  0.00    +0.000 C 
ATOM     11  O   UNL     1       7.708   8.786  17.729  0.00  0.00    +0.000 OA
ATOM     12  N   UNL     1       7.865   6.621  18.461  0.00  0.00    +0.000 N 
ATOM     13  C   UNL     1       7.561   5.401  17.943  0.00  0.00    +0.000 C 
ATOM     14  O   UNL     1       7.944   4.338  18.414  0.00  0.00    +0.000 OA
ATOM     15  H   UNL     1       6.487   7.588  15.789  0.00  0.00    +0.000 HD
ATOM     16  H   UNL     1       8.436   6.776  19.274  0.00  0.00    +0.000 HD
ENDBRANCH   1   8
BRANCH   5  17
ATOM     17  N   UNL     1       2.280   7.189  18.528  0.00  0.00    +0.000 N 
ATOM     18  C   UNL     1       1.969   7.153  19.881  0.00  0.00    +0.000 C 
ATOM     19  O   UNL     1       2.232   6.224  20.639  0.00  0.00    +0.000 OA
ATOM     20  H   UNL     1       2.506   8.113  18.180  0.00  0.00    +0.000 HD
BRANCH  18  21
ATOM     21  C   UNL     1       1.264   8.358  20.423  0.00  0.00    +0.000 A 
ATOM     22  C   UNL     1       1.333   8.700  21.779  0.00  0.00    +0.000 A 
ATOM     23  C   UNL     1       0.735   9.879  22.233  0.00  0.00    +0.000 A 
ATOM     24  C   UNL     1       0.078  10.730  21.339  0.00  0.00    +0.000 A 
ATOM     25  C   UNL     1       0.015  10.407  19.982  0.00  0.00    +0.000 A 
ATOM     26  C   UNL     1       0.592   9.212  19.532  0.00  0.00    +0.000 A 
BRANCH  25  27
ATOM     27  O   UNL     1      -0.614  11.163  19.026  0.00  0.00    +0.000 OA
BRANCH  27  28
ATOM     28  C   UNL     1      -1.233  10.419  17.969  0.00  0.00    +0.000 C 
BRANCH  28  29
ATOM     29  C   UNL     1      -2.225  11.305  17.222  0.00  0.00    +0.000 C 
ATOM     30  O   UNL     1      -2.543  11.140  16.056  0.00  0.00    +0.000 OA
BRANCH  29  31
ATOM     31  O   UNL     1      -2.713  12.318  17.977  0.00  0.00    +0.000 OA
ATOM     32  H   UNL     1      -3.685  12.223  18.078  0.00  0.00    +0.000 HD
ENDBRANCH  29  31
ENDBRANCH  28  29
ENDBRANCH  27  28
ENDBRANCH  25  27
ENDBRANCH  18  21
ENDBRANCH   5  17
TORSDOF 7
ENDMDL
MODEL 5
REMARK VINA RESULT:      -8.5      1.062      1.436
REMARK  Name = 
REMARK  8 active torsions:
REMARK  status: ('A' for Active; 'I' for Inactive)
REMARK    1  A    between atoms: C_1  and  C_2
REMARK    2  A    between atoms: C_2  and  C_3
REMARK    3  A    between atoms: C_7  and  N_8
REMARK    4  A    between atoms: C_9  and  C_11
REMARK    5  A    between atoms: C_15  and  O_16
REMARK    6  A    between atoms: O_16  and  C_17
REMARK    7  A    between atoms: C_17  and  C_18
REMARK    8  A    between atoms: C_18  and  O_20
REMARK                            x       y       z     vdW  Elec       q    Type
REMARK                         _______ _______ _______ _____ _____    ______ ____
ROOT
ATOM      1  C   UNL     1       5.126   5.312  17.128  0.00  0.00    +0.000 A 
ATOM      2  C   UNL     1       4.458   4.148  16.709  0.00  0.00    +0.000 A 
ATOM      3  C   UNL     1       3.155   3.877  17.131  0.00  0.00    +0.000 A 
ATOM      4  C   UNL     1       2.493   4.762  17.982  0.00  0.00    +0.000 A 
ATOM      5  C   UNL     1       3.117   5.948  18.361  0.00  0.00    +0.000 A 
ATOM      6  C   UNL     1       4.415   6.232  17.922  0.00  0.00    +0.000 A 
ENDROOT
BRANCH   1   8
ATOM      7  C   UNL     1       7.008   4.719  15.541  0.00  0.00    +0.000 C 
ATOM      8  C   UNL     1       6.586   5.564  16.736  0.00  0.00    +0.000 C 
ATOM      9  N   UNL     1       6.837   6.979  16.521  0.00  0.00    +0.000 N 
ATOM     10  C   UNL     1       7.480   7.568  17.580  0.00  0.00    +0.000 C 
ATOM     11  O   UNL     1       7.691   8.761  17.692  0.00  0.00    +0.000 OA
ATOM     12  N   UNL     1       7.868   6.603  18.440  0.00  0.00    +0.000 N 
ATOM     13  C   UNL     1       7.555   5.378  17.938  0.00  0.00    +0.000 C 
ATOM     14  O   UNL     1       7.949   4.319  18.410  0.00  0.00    +0.000 OA
ATOM     15  H   UNL     1       6.430   7.545  15.790  0.00  0.00    +0.000 HD
ATOM     16  H   UNL     1       8.457   6.765  19.238  0.00  0.00    +0.000 HD
ENDBRANCH   1   8
BRANCH   5  17
ATOM     17  N   UNL     1       2.526   6.815  19.302  0.00  0.00    +0.000 N 
ATOM     18  C   UNL     1       1.982   8.027  18.900  0.00  0.00    +0.000 C 
ATOM     19  O   UNL     1       2.011   8.466  17.755  0.00  0.00    +0.000 OA
ATOM     20  H   UNL     1       2.007   6.352  20.038  0.00  0.00    +0.000 HD
BRANCH  18  21
ATOM     21  C   UNL     1       1.311   8.830  19.971  0.00  0.00    +0.000 A 
ATOM     22  C   UNL     1       1.139   8.327  21.267  0.00  0.00    +0.000 A 
ATOM     23  C   UNL     1       0.587   9.137  22.263  0.00  0.00    +0.000 A 
ATOM     24  C   UNL     1       0.217  10.455  21.980  0.00  0.00    +0.000 A 
ATOM     25  C   UNL     1       0.396  10.973  20.696  0.00  0.00    +0.000 A 
ATOM     26  C   UNL     1       0.925  10.152  19.691  0.00  0.00    +0.000 A 
BRANCH  25  27
ATOM     27  O   UNL     1       0.055  12.244  20.311  0.00  0.00    +0.000 OA
BRANCH  27  28
ATOM     28  C   UNL     1       0.182  13.244  21.331  0.00  0.00    +0.000 C 
BRANCH  28  29
ATOM     29  C   UNL     1       1.416  14.101  21.065  0.00  0.00    +0.000 C 
ATOM     30  O   UNL     1       1.817  14.393  19.950  0.00  0.00    +0.000 OA
BRANCH  29  31
ATOM     31  O   UNL     1       2.046  14.500  22.195  0.00  0.00    +0.000 OA
ATOM     32  H   UNL     1       2.643  15.254  21.999  0.00  0.00    +0.000 HD
ENDBRANCH  29  31
ENDBRANCH  28  29
ENDBRANCH  27  28
ENDBRANCH  25  27
ENDBRANCH  18  21
ENDBRANCH   5  17
TORSDOF 7
ENDMDL
MODEL 6
REMARK VINA RESULT:      -8.5      2.848      4.305
REMARK  Name = 
REMARK  8 active torsions:
REMARK  status: ('A' for Active; 'I' for Inactive)
REMARK    1  A    between atoms: C_1  and  C_2
REMARK    2  A    between atoms: C_2  and  C_3
REMARK    3  A    between atoms: C_7  and  N_8
REMARK    4  A    between atoms: C_9  and  C_11
REMARK    5  A    between atoms: C_15  and  O_16
REMARK    6  A    between atoms: O_16  and  C_17
REMARK    7  A    between atoms: C_17  and  C_18
REMARK    8  A    between atoms: C_18  and  O_20
REMARK                            x       y       z     vdW  Elec       q    Type
REMARK                         _______ _______ _______ _____ _____    ______ ____
ROOT
ATOM      1  C   UNL     1       3.364   4.726  18.227  0.00  0.00    +0.000 A 
ATOM      2  C   UNL     1       4.583   5.009  17.586  0.00  0.00    +0.000 A 
ATOM      3  C   UNL     1       4.910   6.314  17.211  0.00  0.00    +0.000 A 
ATOM      4  C   UNL     1       4.025   7.362  17.467  0.00  0.00    +0.000 A 
ATOM      5  C   UNL     1       2.840   7.109  18.153  0.00  0.00    +0.000 A 
ATOM      6  C   UNL     1       2.519   5.806  18.548  0.00  0.00    +0.000 A 
ENDROOT
BRANCH   1   8
ATOM      7  C   UNL     1       2.096   2.670  17.468  0.00  0.00    +0.000 C 
ATOM      8  C   UNL     1       2.967   3.283  18.557  0.00  0.00    +0.000 C 
ATOM      9  N   UNL     1       4.135   2.468  18.846  0.00  0.00    +0.000 N 
ATOM     10  C   UNL     1       4.313   2.260  20.190  0.00  0.00    +0.000 C 
ATOM     11  O   UNL     1       5.281   1.716  20.689  0.00  0.00    +0.000 OA
ATOM     12  N   UNL     1       3.227   2.718  20.845  0.00  0.00    +0.000 N 
ATOM     13  C   UNL     1       2.299   3.165  19.956  0.00  0.00    +0.000 C 
ATOM     14  O   UNL     1       1.149   3.462  20.252  0.00  0.00    +0.000 OA
ATOM     15  H   UNL     1       4.865   2.232  18.189  0.00  0.00    +0.000 HD
ATOM     16  H   UNL     1       3.063   2.579  21.827  0.00  0.00    +0.000 HD
ENDBRANCH   1   8
BRANCH   5  17
ATOM     17  N   UNL     1       1.874   8.119  18.336  0.00  0.00    +0.000 N 
ATOM     18  C   UNL     1       1.497   8.511  19.613  0.00  0.00    +0.000 C 
ATOM     19  O   UNL     1       1.905   8.005  20.654  0.00  0.00    +0.000 OA
ATOM     20  H   UNL     1       1.920   8.877  17.666  0.00  0.00    +0.000 HD
BRANCH  18  21
ATOM     21  C   UNL     1       0.522   9.646  19.688  0.00  0.00    +0.000 A 
ATOM     22  C   UNL     1       0.388  10.422  20.846  0.00  0.00    +0.000 A 
ATOM     23  C   UNL     1      -0.470  11.526  20.850  0.00  0.00    +0.000 A 
ATOM     24  C   UNL     1      -1.185  11.871  19.700  0.00  0.00    +0.000 A 
ATOM     25  C   UNL     1      -1.049  11.114  18.535  0.00  0.00    +0.000 A 
ATOM     26  C   UNL     1      -0.210   9.992  18.539  0.00  0.00    +0.000 A 
BRANCH  25  27
ATOM     27  O   UNL     1      -1.713  11.359  17.360  0.00  0.00    +0.000 OA
BRANCH  27  28
ATOM     28  C   UNL     1      -2.177  10.192  16.668  0.00  0.00    +0.000 C 
BRANCH  28  29
ATOM     29  C   UNL     1      -2.838  10.597  15.354  0.00  0.00    +0.000 C 
ATOM     30  O   UNL     1      -2.761   9.949  14.323  0.00  0.00    +0.000 OA
BRANCH  29  31
ATOM     31  O   UNL     1      -3.511  11.770  15.432  0.00  0.00    +0.000 OA
ATOM     32  H   UNL     1      -2.889  12.522  15.334  0.00  0.00    +0.000 HD
ENDBRANCH  29  31
ENDBRANCH  28  29
ENDBRANCH  27  28
ENDBRANCH  25  27
ENDBRANCH  18  21
ENDBRANCH   5  17
TORSDOF 7
ENDMDL
MODEL 7
REMARK VINA RESULT:      -8.4      1.218      1.269
REMARK  Name = 
REMARK  8 active torsions:
REMARK  status: ('A' for Active; 'I' for Inactive)
REMARK    1  A    between atoms: C_1  and  C_2
REMARK    2  A    between atoms: C_2  and  C_3
REMARK    3  A    between atoms: C_7  and  N_8
REMARK    4  A    between atoms: C_9  and  C_11
REMARK    5  A    between atoms: C_15  and  O_16
REMARK    6  A    between atoms: O_16  and  C_17
REMARK    7  A    between atoms: C_17  and  C_18
REMARK    8  A    between atoms: C_18  and  O_20
REMARK                            x       y       z     vdW  Elec       q    Type
REMARK                         _______ _______ _______ _____ _____    ______ ____
ROOT
ATOM      1  C   UNL     1       5.133   5.314  17.146  0.00  0.00    +0.000 A 
ATOM      2  C   UNL     1       4.473   4.149  16.715  0.00  0.00    +0.000 A 
ATOM      3  C   UNL     1       3.172   3.866  17.134  0.00  0.00    +0.000 A 
ATOM      4  C   UNL     1       2.503   4.739  17.993  0.00  0.00    +0.000 A 
ATOM      5  C   UNL     1       3.120   5.926  18.383  0.00  0.00    +0.000 A 
ATOM      6  C   UNL     1       4.416   6.222  17.949  0.00  0.00    +0.000 A 
ENDROOT
BRANCH   1   8
ATOM      7  C   UNL     1       7.025   4.737  15.565  0.00  0.00    +0.000 C 
ATOM      8  C   UNL     1       6.592   5.579  16.758  0.00  0.00    +0.000 C 
ATOM      9  N   UNL     1       6.831   6.995  16.542  0.00  0.00    +0.000 N 
ATOM     10  C   UNL     1       7.466   7.591  17.602  0.00  0.00    +0.000 C 
ATOM     11  O   UNL     1       7.666   8.787  17.712  0.00  0.00    +0.000 OA
ATOM     12  N   UNL     1       7.860   6.631  18.463  0.00  0.00    +0.000 N 
ATOM     13  C   UNL     1       7.559   5.403  17.963  0.00  0.00    +0.000 C 
ATOM     14  O   UNL     1       7.962   4.349  18.437  0.00  0.00    +0.000 OA
ATOM     15  H   UNL     1       6.420   7.557  15.809  0.00  0.00    +0.000 HD
ATOM     16  H   UNL     1       8.445   6.800  19.263  0.00  0.00    +0.000 HD
ENDBRANCH   1   8
BRANCH   5  17
ATOM     17  N   UNL     1       2.523   6.779  19.333  0.00  0.00    +0.000 N 
ATOM     18  C   UNL     1       1.915   7.963  18.934  0.00  0.00    +0.000 C 
ATOM     19  O   UNL     1       1.890   8.387  17.783  0.00  0.00    +0.000 OA
ATOM     20  H   UNL     1       2.047   6.305  20.091  0.00  0.00    +0.000 HD
BRANCH  18  21
ATOM     21  C   UNL     1       1.246   8.751  20.016  0.00  0.00    +0.000 A 
ATOM     22  C   UNL     1       1.396   8.417  21.368  0.00  0.00    +0.000 A 
ATOM     23  C   UNL     1       0.827   9.227  22.354  0.00  0.00    +0.000 A 
ATOM     24  C   UNL     1       0.119  10.379  22.003  0.00  0.00    +0.000 A 
ATOM     25  C   UNL     1      -0.026  10.731  20.660  0.00  0.00    +0.000 A 
ATOM     26  C   UNL     1       0.522   9.905  19.670  0.00  0.00    +0.000 A 
BRANCH  25  27
ATOM     27  O   UNL     1      -0.711  11.831  20.209  0.00  0.00    +0.000 OA
BRANCH  27  28
ATOM     28  C   UNL     1      -1.665  12.374  21.131  0.00  0.00    +0.000 C 
BRANCH  28  29
ATOM     29  C   UNL     1      -2.791  13.063  20.366  0.00  0.00    +0.000 C 
ATOM     30  O   UNL     1      -3.404  14.033  20.781  0.00  0.00    +0.000 OA
BRANCH  29  31
ATOM     31  O   UNL     1      -3.064  12.481  19.175  0.00  0.00    +0.000 OA
ATOM     32  H   UNL     1      -2.375  11.815  18.959  0.00  0.00    +0.000 HD
ENDBRANCH  29  31
ENDBRANCH  28  29
ENDBRANCH  27  28
ENDBRANCH  25  27
ENDBRANCH  18  21
ENDBRANCH   5  17
TORSDOF 7
ENDMDL
MODEL 8
REMARK VINA RESULT:      -8.4      1.877      2.579
REMARK  Name = 
REMARK  8 active torsions:
REMARK  status: ('A' for Active; 'I' for Inactive)
REMARK    1  A    between atoms: C_1  and  C_2
REMARK    2  A    between atoms: C_2  and  C_3
REMARK    3  A    between atoms: C_7  and  N_8
REMARK    4  A    between atoms: C_9  and  C_11
REMARK    5  A    between atoms: C_15  and  O_16
REMARK    6  A    between atoms: O_16  and  C_17
REMARK    7  A    between atoms: C_17  and  C_18
REMARK    8  A    between atoms: C_18  and  O_20
REMARK                            x       y       z     vdW  Elec       q    Type
REMARK                         _______ _______ _______ _____ _____    ______ ____
ROOT
ATOM      1  C   UNL     1       5.186   5.916  17.461  0.00  0.00    +0.000 A 
ATOM      2  C   UNL     1       4.606   4.732  17.950  0.00  0.00    +0.000 A 
ATOM      3  C   UNL     1       3.273   4.704  18.364  0.00  0.00    +0.000 A 
ATOM      4  C   UNL     1       2.491   5.857  18.299  0.00  0.00    +0.000 A 
ATOM      5  C   UNL     1       3.031   7.024  17.763  0.00  0.00    +0.000 A 
ATOM      6  C   UNL     1       4.360   7.050  17.329  0.00  0.00    +0.000 A 
ENDROOT
BRANCH   1   8
ATOM      7  C   UNL     1       7.006   5.029  15.942  0.00  0.00    +0.000 C 
ATOM      8  C   UNL     1       6.672   5.969  17.092  0.00  0.00    +0.000 C 
ATOM      9  N   UNL     1       7.100   7.332  16.825  0.00  0.00    +0.000 N 
ATOM     10  C   UNL     1       7.793   7.882  17.873  0.00  0.00    +0.000 C 
ATOM     11  O   UNL     1       8.149   9.045  17.941  0.00  0.00    +0.000 OA
ATOM     12  N   UNL     1       8.044   6.915  18.779  0.00  0.00    +0.000 N 
ATOM     13  C   UNL     1       7.590   5.717  18.322  0.00  0.00    +0.000 C 
ATOM     14  O   UNL     1       7.842   4.640  18.845  0.00  0.00    +0.000 OA
ATOM     15  H   UNL     1       6.779   7.912  16.063  0.00  0.00    +0.000 HD
ATOM     16  H   UNL     1       8.635   7.038  19.583  0.00  0.00    +0.000 HD
ENDBRANCH   1   8
BRANCH   5  17
ATOM     17  N   UNL     1       2.310   8.235  17.779  0.00  0.00    +0.000 N 
ATOM     18  C   UNL     1       1.766   8.716  18.963  0.00  0.00    +0.000 C 
ATOM     19  O   UNL     1       1.807   8.135  20.043  0.00  0.00    +0.000 OA
ATOM     20  H   UNL     1       2.677   8.956  17.170  0.00  0.00    +0.000 HD
BRANCH  18  21
ATOM     21  C   UNL     1       1.090  10.049  18.878  0.00  0.00    +0.000 A 
ATOM     22  C   UNL     1       1.822  11.237  18.757  0.00  0.00    +0.000 A 
ATOM     23  C   UNL     1       1.156  12.454  18.593  0.00  0.00    +0.000 A 
ATOM     24  C   UNL     1      -0.240  12.495  18.533  0.00  0.00    +0.000 A 
ATOM     25  C   UNL     1      -0.982  11.316  18.638  0.00  0.00    +0.000 A 
ATOM     26  C   UNL     1      -0.314  10.100  18.829  0.00  0.00    +0.000 A 
BRANCH  25  27
ATOM     27  O   UNL     1      -2.351  11.248  18.606  0.00  0.00    +0.000 OA
BRANCH  27  28
ATOM     28  C   UNL     1      -2.892  10.314  17.663  0.00  0.00    +0.000 C 
BRANCH  28  29
ATOM     29  C   UNL     1      -3.318  11.045  16.394  0.00  0.00    +0.000 C 
ATOM     30  O   UNL     1      -2.879  10.796  15.283  0.00  0.00    +0.000 OA
BRANCH  29  31
ATOM     31  O   UNL     1      -4.227  12.023  16.618  0.00  0.00    +0.000 OA
ATOM     32  H   UNL     1      -4.805  12.131  15.832  0.00  0.00    +0.000 HD
ENDBRANCH  29  31
ENDBRANCH  28  29
ENDBRANCH  27  28
ENDBRANCH  25  27
ENDBRANCH  18  21
ENDBRANCH   5  17
TORSDOF 7
ENDMDL
MODEL 9
REMARK VINA RESULT:      -8.3      0.920      1.158
REMARK  Name = 
REMARK  8 active torsions:
REMARK  status: ('A' for Active; 'I' for Inactive)
REMARK    1  A    between atoms: C_1  and  C_2
REMARK    2  A    between atoms: C_2  and  C_3
REMARK    3  A    between atoms: C_7  and  N_8
REMARK    4  A    between atoms: C_9  and  C_11
REMARK    5  A    between atoms: C_15  and  O_16
REMARK    6  A    between atoms: O_16  and  C_17
REMARK    7  A    between atoms: C_17  and  C_18
REMARK    8  A    between atoms: C_18  and  O_20
REMARK                            x       y       z     vdW  Elec       q    Type
REMARK                         _______ _______ _______ _____ _____    ______ ____
ROOT
ATOM      1  C   UNL     1       5.015   5.491  17.202  0.00  0.00    +0.000 A 
ATOM      2  C   UNL     1       4.336   4.273  17.014  0.00  0.00    +0.000 A 
ATOM      3  C   UNL     1       3.023   4.108  17.459  0.00  0.00    +0.000 A 
ATOM      4  C   UNL     1       2.361   5.155  18.101  0.00  0.00    +0.000 A 
ATOM      5  C   UNL     1       2.997   6.386  18.244  0.00  0.00    +0.000 A 
ATOM      6  C   UNL     1       4.305   6.560  17.782  0.00  0.00    +0.000 A 
ENDROOT
BRANCH   1   8
ATOM      7  C   UNL     1       6.839   4.757  15.607  0.00  0.00    +0.000 C 
ATOM      8  C   UNL     1       6.485   5.642  16.795  0.00  0.00    +0.000 C 
ATOM      9  N   UNL     1       6.826   7.034  16.561  0.00  0.00    +0.000 N 
ATOM     10  C   UNL     1       7.516   7.592  17.607  0.00  0.00    +0.000 C 
ATOM     11  O   UNL     1       7.806   8.771  17.702  0.00  0.00    +0.000 OA
ATOM     12  N   UNL     1       7.847   6.615  18.475  0.00  0.00    +0.000 N 
ATOM     13  C   UNL     1       7.450   5.407  17.991  0.00  0.00    +0.000 C 
ATOM     14  O   UNL     1       7.779   4.330  18.473  0.00  0.00    +0.000 OA
ATOM     15  H   UNL     1       6.450   7.617  15.826  0.00  0.00    +0.000 HD
ATOM     16  H   UNL     1       8.453   6.747  19.266  0.00  0.00    +0.000 HD
ENDBRANCH   1   8
BRANCH   5  17
ATOM     17  N   UNL     1       2.404   7.431  18.981  0.00  0.00    +0.000 N 
ATOM     18  C   UNL     1       1.988   8.594  18.345  0.00  0.00    +0.000 C 
ATOM     19  O   UNL     1       2.140   8.836  17.152  0.00  0.00    +0.000 OA
ATOM     20  H   UNL     1       1.795   7.130  19.731  0.00  0.00    +0.000 HD
BRANCH  18  21
ATOM     21  C   UNL     1       1.301   9.603  19.212  0.00  0.00    +0.000 A 
ATOM     22  C   UNL     1       0.594   9.224  20.360  0.00  0.00    +0.000 A 
ATOM     23  C   UNL     1       0.039  10.201  21.192  0.00  0.00    +0.000 A 
ATOM     24  C   UNL     1       0.197  11.558  20.894  0.00  0.00    +0.000 A 
ATOM     25  C   UNL     1       0.912  11.949  19.760  0.00  0.00    +0.000 A 
ATOM     26  C   UNL     1       1.445  10.969  18.913  0.00  0.00    +0.000 A 
BRANCH  25  27
ATOM     27  O   UNL     1       1.112  13.249  19.372  0.00  0.00    +0.000 OA
BRANCH  27  28
ATOM     28  C   UNL     1       0.003  13.863  18.704  0.00  0.00    +0.000 C 
BRANCH  28  29
ATOM     29  C   UNL     1      -0.308  15.211  19.347  0.00  0.00    +0.000 C 
ATOM     30  O   UNL     1      -0.078  15.478  20.516  0.00  0.00    +0.000 OA
BRANCH  29  31
ATOM     31  O   UNL     1      -0.888  16.090  18.497  0.00  0.00    +0.000 OA
ATOM     32  H   UNL     1      -1.837  15.869  18.380  0.00  0.00    +0.000 HD
ENDBRANCH  29  31
ENDBRANCH  28  29
ENDBRANCH  27  28
ENDBRANCH  25  27
ENDBRANCH  18  21
ENDBRANCH   5  17
TORSDOF 7
ENDMDL
