MODEL 1
REMARK VINA RESULT:      -9.0      0.000      0.000
REMARK  Name = 
REMARK  6 active torsions:
REMARK  status: ('A' for Active; 'I' for Inactive)
REMARK    1  A    between atoms: C_2  and  C_13
REMARK    2  A    between atoms: N_3  and  C_4
REMARK    3  A    between atoms: C_18  and  N_19
REMARK    4  A    between atoms: N_19  and  C_20
REMARK    5  A    between atoms: C_23  and  O_24
REMARK    6  A    between atoms: O_24  and  C_25
REMARK                            x       y       z     vdW  Elec       q    Type
REMARK                         _______ _______ _______ _____ _____    ______ ____
ROOT
ATOM      1  C   UNL     1       2.249   5.180  20.045  0.00  0.00    +0.000 A 
ATOM      2  C   UNL     1       1.082   4.445  20.340  0.00  0.00    +0.000 A 
ATOM      3  C   UNL     1       1.060   3.053  20.258  0.00  0.00    +0.000 A 
ATOM      4  C   UNL     1       2.191   2.375  19.831  0.00  0.00    +0.000 A 
ATOM      5  C   UNL     1       3.353   3.089  19.538  0.00  0.00    +0.000 A 
ATOM      6  C   UNL     1       3.434   4.490  19.706  0.00  0.00    +0.000 A 
ENDROOT
BRANCH   1   8
ATOM      7  O   UNL     1       2.695   7.379  19.289  0.00  0.00    +0.000 OA
ATOM      8  C   UNL     1       2.097   6.669  20.090  0.00  0.00    +0.000 C 
ATOM      9  N   UNL     1       1.269   7.196  21.053  0.00  0.00    +0.000 N 
ATOM     10  H   UNL     1       0.696   6.543  21.583  0.00  0.00    +0.000 HD
BRANCH   9  11
ATOM     11  C   UNL     1       1.063   8.639  21.194  0.00  0.00    +0.000 C 
ATOM     12  C   UNL     1       0.049   8.895  22.317  0.00  0.00    +0.000 C 
ATOM     13  C   UNL     1      -0.191  10.388  22.546  0.00  0.00    +0.000 C 
ATOM     14  C   UNL     1      -0.411  11.101  21.265  0.00  0.00    +0.000 A 
ATOM     15  N   UNL     1      -1.019  12.245  21.054  0.00  0.00    +0.000 NA
ATOM     16  C   UNL     1      -0.919  12.403  19.697  0.00  0.00    +0.000 A 
ATOM     17  N   UNL     1      -0.286  11.413  19.056  0.00  0.00    +0.000 NA
ATOM     18  N   UNL     1       0.040  10.605  20.075  0.00  0.00    +0.000 N 
ATOM     19  C   UNL     1       0.639   9.303  19.868  0.00  0.00    +0.000 C 
ENDBRANCH   9  11
ENDBRANCH   1   8
BRANCH   6  20
ATOM     20  N   UNL     1       4.677   5.158  19.449  0.00  0.00    +0.000 N 
ATOM     21  H   UNL     1       4.637   6.086  19.871  0.00  0.00    +0.000 HD
BRANCH  20  22
ATOM     22  C   UNL     1       5.322   5.198  18.179  0.00  0.00    +0.000 A 
ATOM     23  C   UNL     1       4.647   5.647  17.036  0.00  0.00    +0.000 A 
ATOM     24  C   UNL     1       5.261   5.599  15.770  0.00  0.00    +0.000 A 
ATOM     25  C   UNL     1       6.568   5.128  15.641  0.00  0.00    +0.000 A 
ATOM     26  C   UNL     1       7.268   4.755  16.785  0.00  0.00    +0.000 A 
ATOM     27  C   UNL     1       6.667   4.831  18.041  0.00  0.00    +0.000 A 
BRANCH  25  28
ATOM     28  O   UNL     1       7.270   4.957  14.484  0.00  0.00    +0.000 OA
BRANCH  28  29
ATOM     29  C   UNL     1       6.555   4.498  13.355  0.00  0.00    +0.000 C 
ATOM     30  F   UNL     1       7.444   4.397  12.334  0.00  0.00    +0.000 F 
ATOM     31  F   UNL     1       6.099   3.245  13.603  0.00  0.00    +0.000 F 
ENDBRANCH  28  29
ENDBRANCH  25  28
ENDBRANCH  20  22
ENDBRANCH   6  20
TORSDOF 6
ENDMDL
MODEL 2
REMARK VINA RESULT:      -9.0      4.058      8.231
REMARK  Name = 
REMARK  6 active torsions:
REMARK  status: ('A' for Active; 'I' for Inactive)
REMARK    1  A    between atoms: C_2  and  C_13
REMARK    2  A    between atoms: N_3  and  C_4
REMARK    3  A    between atoms: C_18  and  N_19
REMARK    4  A    between atoms: N_19  and  C_20
REMARK    5  A    between atoms: C_23  and  O_24
REMARK    6  A    between atoms: O_24  and  C_25
REMARK                            x       y       z     vdW  Elec       q    Type
REMARK                         _______ _______ _______ _____ _____    ______ ____
ROOT
ATOM      1  C   UNL     1       3.093   3.730  19.106  0.00  0.00    +0.000 A 
ATOM      2  C   UNL     1       2.449   2.481  18.983  0.00  0.00    +0.000 A 
ATOM      3  C   UNL     1       1.272   2.199  19.675  0.00  0.00    +0.000 A 
ATOM      4  C   UNL     1       0.745   3.144  20.542  0.00  0.00    +0.000 A 
ATOM      5  C   UNL     1       1.371   4.384  20.672  0.00  0.00    +0.000 A 
ATOM      6  C   UNL     1       2.508   4.733  19.909  0.00  0.00    +0.000 A 
ENDROOT
BRANCH   1   8
ATOM      7  O   UNL     1       5.453   3.887  18.989  0.00  0.00    +0.000 OA
ATOM      8  C   UNL     1       4.393   3.854  18.374  0.00  0.00    +0.000 C 
ATOM      9  N   UNL     1       4.347   3.929  17.001  0.00  0.00    +0.000 N 
ATOM     10  H   UNL     1       3.450   3.749  16.555  0.00  0.00    +0.000 HD
BRANCH   9  11
ATOM     11  C   UNL     1       5.558   4.069  16.191  0.00  0.00    +0.000 C 
ATOM     12  C   UNL     1       6.030   5.529  16.239  0.00  0.00    +0.000 C 
ATOM     13  C   UNL     1       7.315   5.745  15.440  0.00  0.00    +0.000 C 
ATOM     14  C   UNL     1       7.233   5.109  14.104  0.00  0.00    +0.000 A 
ATOM     15  N   UNL     1       7.915   5.385  13.017  0.00  0.00    +0.000 NA
ATOM     16  C   UNL     1       7.422   4.488  12.106  0.00  0.00    +0.000 A 
ATOM     17  N   UNL     1       6.466   3.675  12.570  0.00  0.00    +0.000 NA
ATOM     18  N   UNL     1       6.374   4.079  13.846  0.00  0.00    +0.000 N 
ATOM     19  C   UNL     1       5.357   3.574  14.744  0.00  0.00    +0.000 C 
ENDBRANCH   9  11
ENDBRANCH   1   8
BRANCH   6  20
ATOM     20  N   UNL     1       3.067   6.047  20.041  0.00  0.00    +0.000 N 
ATOM     21  H   UNL     1       3.476   6.132  20.972  0.00  0.00    +0.000 HD
BRANCH  20  22
ATOM     22  C   UNL     1       2.399   7.248  19.663  0.00  0.00    +0.000 A 
ATOM     23  C   UNL     1       1.651   7.985  20.590  0.00  0.00    +0.000 A 
ATOM     24  C   UNL     1       0.921   9.120  20.189  0.00  0.00    +0.000 A 
ATOM     25  C   UNL     1       0.957   9.545  18.860  0.00  0.00    +0.000 A 
ATOM     26  C   UNL     1       1.761   8.860  17.953  0.00  0.00    +0.000 A 
ATOM     27  C   UNL     1       2.505   7.753  18.360  0.00  0.00    +0.000 A 
BRANCH  25  28
ATOM     28  O   UNL     1       0.255  10.574  18.307  0.00  0.00    +0.000 OA
BRANCH  28  29
ATOM     29  C   UNL     1      -1.132  10.383  18.111  0.00  0.00    +0.000 C 
ATOM     30  F   UNL     1      -1.642  11.566  17.687  0.00  0.00    +0.000 F 
ATOM     31  F   UNL     1      -1.313   9.494  17.102  0.00  0.00    +0.000 F 
ENDBRANCH  28  29
ENDBRANCH  25  28
ENDBRANCH  20  22
ENDBRANCH   6  20
TORSDOF 6
ENDMDL
MODEL 3
REMARK VINA RESULT:      -8.7      4.011      8.163
REMARK  Name = 
REMARK  6 active torsions:
REMARK  status: ('A' for Active; 'I' for Inactive)
REMARK    1  A    between atoms: C_2  and  C_13
REMARK    2  A    between atoms: N_3  and  C_4
REMARK    3  A    between atoms: C_18  and  N_19
REMARK    4  A    between atoms: N_19  and  C_20
REMARK    5  A    between atoms: C_23  and  O_24
REMARK    6  A    between atoms: O_24  and  C_25
REMARK                            x       y       z     vdW  Elec       q    Type
REMARK                         _______ _______ _______ _____ _____    ______ ____
ROOT
ATOM      1  C   UNL     1       3.133   3.688  19.161  0.00  0.00    +0.000 A 
ATOM      2  C   UNL     1       2.515   2.424  19.059  0.00  0.00    +0.000 A 
ATOM      3  C   UNL     1       1.348   2.126  19.763  0.00  0.00    +0.000 A 
ATOM      4  C   UNL     1       0.807   3.072  20.620  0.00  0.00    +0.000 A 
ATOM      5  C   UNL     1       1.407   4.326  20.729  0.00  0.00    +0.000 A 
ATOM      6  C   UNL     1       2.532   4.689  19.955  0.00  0.00    +0.000 A 
ENDROOT
BRANCH   1   8
ATOM      7  O   UNL     1       5.489   3.885  19.027  0.00  0.00    +0.000 OA
ATOM      8  C   UNL     1       4.425   3.830  18.419  0.00  0.00    +0.000 C 
ATOM      9  N   UNL     1       4.369   3.895  17.047  0.00  0.00    +0.000 N 
ATOM     10  H   UNL     1       3.472   3.697  16.607  0.00  0.00    +0.000 HD
BRANCH   9  11
ATOM     11  C   UNL     1       5.572   4.051  16.227  0.00  0.00    +0.000 C 
ATOM     12  C   UNL     1       6.026   5.517  16.272  0.00  0.00    +0.000 C 
ATOM     13  C   UNL     1       7.301   5.750  15.462  0.00  0.00    +0.000 C 
ATOM     14  C   UNL     1       7.217   5.112  14.127  0.00  0.00    +0.000 A 
ATOM     15  N   UNL     1       7.887   5.397  13.035  0.00  0.00    +0.000 NA
ATOM     16  C   UNL     1       7.399   4.494  12.128  0.00  0.00    +0.000 A 
ATOM     17  N   UNL     1       6.457   3.668  12.599  0.00  0.00    +0.000 NA
ATOM     18  N   UNL     1       6.369   4.071  13.876  0.00  0.00    +0.000 N 
ATOM     19  C   UNL     1       5.366   3.553  14.782  0.00  0.00    +0.000 C 
ENDBRANCH   9  11
ENDBRANCH   1   8
BRANCH   6  20
ATOM     20  N   UNL     1       3.063   6.017  20.065  0.00  0.00    +0.000 N 
ATOM     21  H   UNL     1       3.437   6.137  21.007  0.00  0.00    +0.000 HD
BRANCH  20  22
ATOM     22  C   UNL     1       2.389   7.193  19.627  0.00  0.00    +0.000 A 
ATOM     23  C   UNL     1       2.436   7.599  18.287  0.00  0.00    +0.000 A 
ATOM     24  C   UNL     1       1.843   8.810  17.879  0.00  0.00    +0.000 A 
ATOM     25  C   UNL     1       1.172   9.610  18.804  0.00  0.00    +0.000 A 
ATOM     26  C   UNL     1       1.058   9.171  20.121  0.00  0.00    +0.000 A 
ATOM     27  C   UNL     1       1.621   7.958  20.515  0.00  0.00    +0.000 A 
BRANCH  25  28
ATOM     28  O   UNL     1       0.612  10.833  18.580  0.00  0.00    +0.000 OA
BRANCH  28  29
ATOM     29  C   UNL     1       1.457  11.962  18.678  0.00  0.00    +0.000 C 
ATOM     30  F   UNL     1       1.764  12.118  19.990  0.00  0.00    +0.000 F 
ATOM     31  F   UNL     1       2.619  11.696  18.032  0.00  0.00    +0.000 F 
ENDBRANCH  28  29
ENDBRANCH  25  28
ENDBRANCH  20  22
ENDBRANCH   6  20
TORSDOF 6
ENDMDL
MODEL 4
REMARK VINA RESULT:      -8.6      0.833      1.330
REMARK  Name = 
REMARK  6 active torsions:
REMARK  status: ('A' for Active; 'I' for Inactive)
REMARK    1  A    between atoms: C_2  and  C_13
REMARK    2  A    between atoms: N_3  and  C_4
REMARK    3  A    between atoms: C_18  and  N_19
REMARK    4  A    between atoms: N_19  and  C_20
REMARK    5  A    between atoms: C_23  and  O_24
REMARK    6  A    between atoms: O_24  and  C_25
REMARK                            x       y       z     vdW  Elec       q    Type
REMARK                         _______ _______ _______ _____ _____    ______ ____
ROOT
ATOM      1  C   UNL     1       2.495   4.671  19.611  0.00  0.00    +0.000 A 
ATOM      2  C   UNL     1       1.245   4.068  19.865  0.00  0.00    +0.000 A 
ATOM      3  C   UNL     1       1.064   2.690  19.743  0.00  0.00    +0.000 A 
ATOM      4  C   UNL     1       2.118   1.897  19.316  0.00  0.00    +0.000 A 
ATOM      5  C   UNL     1       3.361   2.480  19.064  0.00  0.00    +0.000 A 
ATOM      6  C   UNL     1       3.599   3.858  19.274  0.00  0.00    +0.000 A 
ENDROOT
BRANCH   1   8
ATOM      7  O   UNL     1       3.228   6.822  18.947  0.00  0.00    +0.000 OA
ATOM      8  C   UNL     1       2.514   6.165  19.696  0.00  0.00    +0.000 C 
ATOM      9  N   UNL     1       1.706   6.761  20.636  0.00  0.00    +0.000 N 
ATOM     10  H   UNL     1       1.036   6.166  21.119  0.00  0.00    +0.000 HD
BRANCH   9  11
ATOM     11  C   UNL     1       1.662   8.213  20.813  0.00  0.00    +0.000 C 
ATOM     12  C   UNL     1       0.631   8.558  21.898  0.00  0.00    +0.000 C 
ATOM     13  C   UNL     1       0.554  10.061  22.162  0.00  0.00    +0.000 C 
ATOM     14  C   UNL     1       0.481  10.829  20.896  0.00  0.00    +0.000 A 
ATOM     15  N   UNL     1       0.021  12.041  20.694  0.00  0.00    +0.000 NA
ATOM     16  C   UNL     1       0.204  12.221  19.348  0.00  0.00    +0.000 A 
ATOM     17  N   UNL     1       0.748  11.181  18.705  0.00  0.00    +0.000 NA
ATOM     18  N   UNL     1       0.929  10.314  19.712  0.00  0.00    +0.000 N 
ATOM     19  C   UNL     1       1.382   8.957  19.492  0.00  0.00    +0.000 C 
ENDBRANCH   9  11
ENDBRANCH   1   8
BRANCH   6  20
ATOM     20  N   UNL     1       4.915   4.384  19.058  0.00  0.00    +0.000 N 
ATOM     21  H   UNL     1       5.024   5.224  19.627  0.00  0.00    +0.000 HD
BRANCH  20  22
ATOM     22  C   UNL     1       5.516   4.550  17.777  0.00  0.00    +0.000 A 
ATOM     23  C   UNL     1       6.909   4.541  17.622  0.00  0.00    +0.000 A 
ATOM     24  C   UNL     1       7.497   4.796  16.368  0.00  0.00    +0.000 A 
ATOM     25  C   UNL     1       6.695   5.033  15.251  0.00  0.00    +0.000 A 
ATOM     26  C   UNL     1       5.311   4.965  15.387  0.00  0.00    +0.000 A 
ATOM     27  C   UNL     1       4.732   4.684  16.624  0.00  0.00    +0.000 A 
BRANCH  25  28
ATOM     28  O   UNL     1       7.111   5.361  13.995  0.00  0.00    +0.000 OA
BRANCH  28  29
ATOM     29  C   UNL     1       7.221   4.312  13.054  0.00  0.00    +0.000 C 
ATOM     30  F   UNL     1       5.961   3.900  12.766  0.00  0.00    +0.000 F 
ATOM     31  F   UNL     1       7.743   4.808  11.904  0.00  0.00    +0.000 F 
ENDBRANCH  28  29
ENDBRANCH  25  28
ENDBRANCH  20  22
ENDBRANCH   6  20
TORSDOF 6
ENDMDL
MODEL 5
REMARK VINA RESULT:      -8.5      5.189      9.624
REMARK  Name = 
REMARK  6 active torsions:
REMARK  status: ('A' for Active; 'I' for Inactive)
REMARK    1  A    between atoms: C_2  and  C_13
REMARK    2  A    between atoms: N_3  and  C_4
REMARK    3  A    between atoms: C_18  and  N_19
REMARK    4  A    between atoms: N_19  and  C_20
REMARK    5  A    between atoms: C_23  and  O_24
REMARK    6  A    between atoms: O_24  and  C_25
REMARK                            x       y       z     vdW  Elec       q    Type
REMARK                         _______ _______ _______ _____ _____    ______ ____
ROOT
ATOM      1  C   UNL     1       1.309   8.892  19.703  0.00  0.00    +0.000 A 
ATOM      2  C   UNL     1       1.654   8.354  20.961  0.00  0.00    +0.000 A 
ATOM      3  C   UNL     1       1.188   8.920  22.147  0.00  0.00    +0.000 A 
ATOM      4  C   UNL     1       0.410  10.067  22.098  0.00  0.00    +0.000 A 
ATOM      5  C   UNL     1       0.059  10.608  20.861  0.00  0.00    +0.000 A 
ATOM      6  C   UNL     1       0.435   9.999  19.642  0.00  0.00    +0.000 A 
ENDROOT
BRANCH   1   8
ATOM      7  O   UNL     1       1.921   8.762  17.420  0.00  0.00    +0.000 OA
ATOM      8  C   UNL     1       1.954   8.232  18.525  0.00  0.00    +0.000 C 
ATOM      9  N   UNL     1       2.578   7.024  18.733  0.00  0.00    +0.000 N 
ATOM     10  H   UNL     1       2.692   6.719  19.698  0.00  0.00    +0.000 HD
BRANCH   9  11
ATOM     11  C   UNL     1       3.225   6.288  17.647  0.00  0.00    +0.000 C 
ATOM     12  C   UNL     1       3.174   4.785  17.956  0.00  0.00    +0.000 C 
ATOM     13  C   UNL     1       3.805   3.947  16.844  0.00  0.00    +0.000 C 
ATOM     14  C   UNL     1       5.112   4.503  16.423  0.00  0.00    +0.000 A 
ATOM     15  N   UNL     1       6.109   3.898  15.821  0.00  0.00    +0.000 NA
ATOM     16  C   UNL     1       7.040   4.894  15.686  0.00  0.00    +0.000 A 
ATOM     17  N   UNL     1       6.674   6.083  16.178  0.00  0.00    +0.000 NA
ATOM     18  N   UNL     1       5.439   5.814  16.628  0.00  0.00    +0.000 N 
ATOM     19  C   UNL     1       4.664   6.776  17.382  0.00  0.00    +0.000 C 
ENDBRANCH   9  11
ENDBRANCH   1   8
BRANCH   6  20
ATOM     20  N   UNL     1      -0.012  10.570  18.404  0.00  0.00    +0.000 N 
ATOM     21  H   UNL     1       0.487  11.448  18.255  0.00  0.00    +0.000 HD
BRANCH  20  22
ATOM     22  C   UNL     1      -1.378  10.684  18.017  0.00  0.00    +0.000 A 
ATOM     23  C   UNL     1      -1.908   9.898  16.986  0.00  0.00    +0.000 A 
ATOM     24  C   UNL     1      -3.235  10.079  16.548  0.00  0.00    +0.000 A 
ATOM     25  C   UNL     1      -4.052  11.031  17.159  0.00  0.00    +0.000 A 
ATOM     26  C   UNL     1      -3.552  11.760  18.235  0.00  0.00    +0.000 A 
ATOM     27  C   UNL     1      -2.248  11.557  18.685  0.00  0.00    +0.000 A 
BRANCH  25  28
ATOM     28  O   UNL     1      -5.324  11.371  16.806  0.00  0.00    +0.000 OA
BRANCH  28  29
ATOM     29  C   UNL     1      -6.251  11.587  17.850  0.00  0.00    +0.000 C 
ATOM     30  F   UNL     1      -7.299  12.267  17.320  0.00  0.00    +0.000 F 
ATOM     31  F   UNL     1      -6.732  10.389  18.265  0.00  0.00    +0.000 F 
ENDBRANCH  28  29
ENDBRANCH  25  28
ENDBRANCH  20  22
ENDBRANCH   6  20
TORSDOF 6
ENDMDL
MODEL 6
REMARK VINA RESULT:      -8.3      1.035      1.224
REMARK  Name = 
REMARK  6 active torsions:
REMARK  status: ('A' for Active; 'I' for Inactive)
REMARK    1  A    between atoms: C_2  and  C_13
REMARK    2  A    between atoms: N_3  and  C_4
REMARK    3  A    between atoms: C_18  and  N_19
REMARK    4  A    between atoms: N_19  and  C_20
REMARK    5  A    between atoms: C_23  and  O_24
REMARK    6  A    between atoms: O_24  and  C_25
REMARK                            x       y       z     vdW  Elec       q    Type
REMARK                         _______ _______ _______ _____ _____    ______ ____
ROOT
ATOM      1  C   UNL     1       2.326   5.443  20.128  0.00  0.00    +0.000 A 
ATOM      2  C   UNL     1       2.124   4.773  21.353  0.00  0.00    +0.000 A 
ATOM      3  C   UNL     1       2.264   3.389  21.456  0.00  0.00    +0.000 A 
ATOM      4  C   UNL     1       2.559   2.645  20.324  0.00  0.00    +0.000 A 
ATOM      5  C   UNL     1       2.763   3.296  19.107  0.00  0.00    +0.000 A 
ATOM      6  C   UNL     1       2.725   4.704  18.993  0.00  0.00    +0.000 A 
ENDROOT
BRANCH   1   8
ATOM      7  O   UNL     1       2.568   7.656  19.321  0.00  0.00    +0.000 OA
ATOM      8  C   UNL     1       2.053   6.915  20.151  0.00  0.00    +0.000 C 
ATOM      9  N   UNL     1       1.212   7.392  21.129  0.00  0.00    +0.000 N 
ATOM     10  H   UNL     1       0.710   6.705  21.688  0.00  0.00    +0.000 HD
BRANCH   9  11
ATOM     11  C   UNL     1       0.893   8.816  21.251  0.00  0.00    +0.000 C 
ATOM     12  C   UNL     1       0.035   9.034  22.505  0.00  0.00    +0.000 C 
ATOM     13  C   UNL     1      -0.311  10.508  22.716  0.00  0.00    +0.000 C 
ATOM     14  C   UNL     1      -0.782  11.138  21.460  0.00  0.00    +0.000 A 
ATOM     15  N   UNL     1      -1.520  12.212  21.304  0.00  0.00    +0.000 NA
ATOM     16  C   UNL     1      -1.636  12.314  19.943  0.00  0.00    +0.000 A 
ATOM     17  N   UNL     1      -1.012  11.355  19.247  0.00  0.00    +0.000 NA
ATOM     18  N   UNL     1      -0.465  10.628  20.233  0.00  0.00    +0.000 N 
ATOM     19  C   UNL     1       0.218   9.376  19.982  0.00  0.00    +0.000 C 
ENDBRANCH   9  11
ENDBRANCH   1   8
BRANCH   6  20
ATOM     20  N   UNL     1       3.007   5.315  17.727  0.00  0.00    +0.000 N 
ATOM     21  H   UNL     1       2.242   5.098  17.087  0.00  0.00    +0.000 HD
BRANCH  20  22
ATOM     22  C   UNL     1       4.266   5.248  17.063  0.00  0.00    +0.000 A 
ATOM     23  C   UNL     1       5.257   6.213  17.289  0.00  0.00    +0.000 A 
ATOM     24  C   UNL     1       6.463   6.192  16.563  0.00  0.00    +0.000 A 
ATOM     25  C   UNL     1       6.701   5.187  15.625  0.00  0.00    +0.000 A 
ATOM     26  C   UNL     1       5.751   4.183  15.455  0.00  0.00    +0.000 A 
ATOM     27  C   UNL     1       4.570   4.191  16.196  0.00  0.00    +0.000 A 
BRANCH  25  28
ATOM     28  O   UNL     1       7.780   5.070  14.800  0.00  0.00    +0.000 OA
BRANCH  28  29
ATOM     29  C   UNL     1       7.595   5.402  13.439  0.00  0.00    +0.000 C 
ATOM     30  F   UNL     1       8.798   5.806  12.959  0.00  0.00    +0.000 F 
ATOM     31  F   UNL     1       7.257   4.280  12.756  0.00  0.00    +0.000 F 
ENDBRANCH  28  29
ENDBRANCH  25  28
ENDBRANCH  20  22
ENDBRANCH   6  20
TORSDOF 6
ENDMDL
MODEL 7
REMARK VINA RESULT:      -8.3      1.432      1.618
REMARK  Name = 
REMARK  6 active torsions:
REMARK  status: ('A' for Active; 'I' for Inactive)
REMARK    1  A    between atoms: C_2  and  C_13
REMARK    2  A    between atoms: N_3  and  C_4
REMARK    3  A    between atoms: C_18  and  N_19
REMARK    4  A    between atoms: N_19  and  C_20
REMARK    5  A    between atoms: C_23  and  O_24
REMARK    6  A    between atoms: O_24  and  C_25
REMARK                            x       y       z     vdW  Elec       q    Type
REMARK                         _______ _______ _______ _____ _____    ______ ____
ROOT
ATOM      1  C   UNL     1       2.680   4.256  19.059  0.00  0.00    +0.000 A 
ATOM      2  C   UNL     1       1.351   3.794  19.162  0.00  0.00    +0.000 A 
ATOM      3  C   UNL     1       0.988   2.519  18.727  0.00  0.00    +0.000 A 
ATOM      4  C   UNL     1       1.939   1.703  18.135  0.00  0.00    +0.000 A 
ATOM      5  C   UNL     1       3.258   2.146  18.028  0.00  0.00    +0.000 A 
ATOM      6  C   UNL     1       3.674   3.393  18.549  0.00  0.00    +0.000 A 
ENDROOT
BRANCH   1   8
ATOM      7  O   UNL     1       4.033   6.095  19.686  0.00  0.00    +0.000 OA
ATOM      8  C   UNL     1       2.899   5.674  19.484  0.00  0.00    +0.000 C 
ATOM      9  N   UNL     1       1.790   6.474  19.634  0.00  0.00    +0.000 N 
ATOM     10  H   UNL     1       0.900   6.102  19.309  0.00  0.00    +0.000 HD
BRANCH   9  11
ATOM     11  C   UNL     1       1.893   7.870  20.061  0.00  0.00    +0.000 C 
ATOM     12  C   UNL     1       1.049   8.073  21.328  0.00  0.00    +0.000 C 
ATOM     13  C   UNL     1       1.135   9.506  21.853  0.00  0.00    +0.000 C 
ATOM     14  C   UNL     1       0.958  10.493  20.762  0.00  0.00    +0.000 A 
ATOM     15  N   UNL     1       0.579  11.747  20.840  0.00  0.00    +0.000 NA
ATOM     16  C   UNL     1       0.595  12.157  19.533  0.00  0.00    +0.000 A 
ATOM     17  N   UNL     1       0.959  11.220  18.649  0.00  0.00    +0.000 NA
ATOM     18  N   UNL     1       1.199  10.176  19.455  0.00  0.00    +0.000 N 
ATOM     19  C   UNL     1       1.502   8.857  18.942  0.00  0.00    +0.000 C 
ENDBRANCH   9  11
ENDBRANCH   1   8
BRANCH   6  20
ATOM     20  N   UNL     1       5.057   3.763  18.465  0.00  0.00    +0.000 N 
ATOM     21  H   UNL     1       5.272   4.385  19.244  0.00  0.00    +0.000 HD
BRANCH  20  22
ATOM     22  C   UNL     1       5.704   4.194  17.271  0.00  0.00    +0.000 A 
ATOM     23  C   UNL     1       5.408   3.607  16.033  0.00  0.00    +0.000 A 
ATOM     24  C   UNL     1       6.116   3.976  14.872  0.00  0.00    +0.000 A 
ATOM     25  C   UNL     1       7.107   4.956  14.935  0.00  0.00    +0.000 A 
ATOM     26  C   UNL     1       7.349   5.595  16.148  0.00  0.00    +0.000 A 
ATOM     27  C   UNL     1       6.626   5.249  17.290  0.00  0.00    +0.000 A 
BRANCH  25  28
ATOM     28  O   UNL     1       7.921   5.369  13.922  0.00  0.00    +0.000 OA
BRANCH  28  29
ATOM     29  C   UNL     1       7.385   5.356  12.614  0.00  0.00    +0.000 C 
ATOM     30  F   UNL     1       8.051   6.300  11.902  0.00  0.00    +0.000 F 
ATOM     31  F   UNL     1       7.663   4.161  12.038  0.00  0.00    +0.000 F 
ENDBRANCH  28  29
ENDBRANCH  25  28
ENDBRANCH  20  22
ENDBRANCH   6  20
TORSDOF 6
ENDMDL
MODEL 8
REMARK VINA RESULT:      -8.3      3.958      8.080
REMARK  Name = 
REMARK  6 active torsions:
REMARK  status: ('A' for Active; 'I' for Inactive)
REMARK    1  A    between atoms: C_2  and  C_13
REMARK    2  A    between atoms: N_3  and  C_4
REMARK    3  A    between atoms: C_18  and  N_19
REMARK    4  A    between atoms: N_19  and  C_20
REMARK    5  A    between atoms: C_23  and  O_24
REMARK    6  A    between atoms: O_24  and  C_25
REMARK                            x       y       z     vdW  Elec       q    Type
REMARK                         _______ _______ _______ _____ _____    ______ ____
ROOT
ATOM      1  C   UNL     1       2.879   3.779  19.015  0.00  0.00    +0.000 A 
ATOM      2  C   UNL     1       2.279   2.503  19.044  0.00  0.00    +0.000 A 
ATOM      3  C   UNL     1       1.469   2.104  20.107  0.00  0.00    +0.000 A 
ATOM      4  C   UNL     1       1.285   2.957  21.184  0.00  0.00    +0.000 A 
ATOM      5  C   UNL     1       1.870   4.223  21.168  0.00  0.00    +0.000 A 
ATOM      6  C   UNL     1       2.615   4.690  20.061  0.00  0.00    +0.000 A 
ENDROOT
BRANCH   1   8
ATOM      7  O   UNL     1       3.339   4.376  16.771  0.00  0.00    +0.000 OA
ATOM      8  C   UNL     1       3.792   4.031  17.857  0.00  0.00    +0.000 C 
ATOM      9  N   UNL     1       5.142   3.864  18.060  0.00  0.00    +0.000 N 
ATOM     10  H   UNL     1       5.454   3.722  19.018  0.00  0.00    +0.000 HD
BRANCH   9  11
ATOM     11  C   UNL     1       6.119   4.069  16.990  0.00  0.00    +0.000 C 
ATOM     12  C   UNL     1       6.399   5.571  16.843  0.00  0.00    +0.000 C 
ATOM     13  C   UNL     1       7.440   5.860  15.762  0.00  0.00    +0.000 C 
ATOM     14  C   UNL     1       7.152   5.105  14.520  0.00  0.00    +0.000 A 
ATOM     15  N   UNL     1       7.541   5.361  13.292  0.00  0.00    +0.000 NA
ATOM     16  C   UNL     1       6.982   4.339  12.572  0.00  0.00    +0.000 A 
ATOM     17  N   UNL     1       6.262   3.466  13.288  0.00  0.00    +0.000 NA
ATOM     18  N   UNL     1       6.398   3.966  14.525  0.00  0.00    +0.000 N 
ATOM     19  C   UNL     1       5.674   3.430  15.658  0.00  0.00    +0.000 C 
ENDBRANCH   9  11
ENDBRANCH   1   8
BRANCH   6  20
ATOM     20  N   UNL     1       3.137   6.026  20.079  0.00  0.00    +0.000 N 
ATOM     21  H   UNL     1       3.568   6.192  20.989  0.00  0.00    +0.000 HD
BRANCH  20  22
ATOM     22  C   UNL     1       2.424   7.176  19.631  0.00  0.00    +0.000 A 
ATOM     23  C   UNL     1       2.494   7.599  18.297  0.00  0.00    +0.000 A 
ATOM     24  C   UNL     1       1.860   8.786  17.882  0.00  0.00    +0.000 A 
ATOM     25  C   UNL     1       1.125   9.545  18.794  0.00  0.00    +0.000 A 
ATOM     26  C   UNL     1       0.990   9.086  20.101  0.00  0.00    +0.000 A 
ATOM     27  C   UNL     1       1.595   7.895  20.502  0.00  0.00    +0.000 A 
BRANCH  25  28
ATOM     28  O   UNL     1       0.517  10.743  18.564  0.00  0.00    +0.000 OA
BRANCH  28  29
ATOM     29  C   UNL     1      -0.835  10.717  18.155  0.00  0.00    +0.000 C 
ATOM     30  F   UNL     1      -1.016   9.573  17.447  0.00  0.00    +0.000 F 
ATOM     31  F   UNL     1      -1.624  10.626  19.254  0.00  0.00    +0.000 F 
ENDBRANCH  28  29
ENDBRANCH  25  28
ENDBRANCH  20  22
ENDBRANCH   6  20
TORSDOF 6
ENDMDL
MODEL 9
REMARK VINA RESULT:      -8.2      1.124      1.226
REMARK  Name = 
REMARK  6 active torsions:
REMARK  status: ('A' for Active; 'I' for Inactive)
REMARK    1  A    between atoms: C_2  and  C_13
REMARK    2  A    between atoms: N_3  and  C_4
REMARK    3  A    between atoms: C_18  and  N_19
REMARK    4  A    between atoms: N_19  and  C_20
REMARK    5  A    between atoms: C_23  and  O_24
REMARK    6  A    between atoms: O_24  and  C_25
REMARK                            x       y       z     vdW  Elec       q    Type
REMARK                         _______ _______ _______ _____ _____    ______ ____
ROOT
ATOM      1  C   UNL     1       2.957   5.344  19.826  0.00  0.00    +0.000 A 
ATOM      2  C   UNL     1       1.953   4.648  20.531  0.00  0.00    +0.000 A 
ATOM      3  C   UNL     1       2.078   3.290  20.823  0.00  0.00    +0.000 A 
ATOM      4  C   UNL     1       3.188   2.593  20.372  0.00  0.00    +0.000 A 
ATOM      5  C   UNL     1       4.190   3.269  19.676  0.00  0.00    +0.000 A 
ATOM      6  C   UNL     1       4.136   4.663  19.451  0.00  0.00    +0.000 A 
ENDROOT
BRANCH   1   8
ATOM      7  O   UNL     1       3.096   7.299  18.498  0.00  0.00    +0.000 OA
ATOM      8  C   UNL     1       2.644   6.773  19.509  0.00  0.00    +0.000 C 
ATOM      9  N   UNL     1       1.837   7.459  20.386  0.00  0.00    +0.000 N 
ATOM     10  H   UNL     1       1.382   6.920  21.120  0.00  0.00    +0.000 HD
BRANCH   9  11
ATOM     11  C   UNL     1       1.483   8.864  20.178  0.00  0.00    +0.000 C 
ATOM     12  C   UNL     1       0.940   9.446  21.491  0.00  0.00    +0.000 C 
ATOM     13  C   UNL     1       0.579  10.926  21.358  0.00  0.00    +0.000 C 
ATOM     14  C   UNL     1      -0.212  11.181  20.131  0.00  0.00    +0.000 A 
ATOM     15  N   UNL     1      -1.020  12.180  19.865  0.00  0.00    +0.000 NA
ATOM     16  C   UNL     1      -1.463  11.893  18.601  0.00  0.00    +0.000 A 
ATOM     17  N   UNL     1      -0.976  10.764  18.072  0.00  0.00    +0.000 NA
ATOM     18  N   UNL     1      -0.171  10.338  19.057  0.00  0.00    +0.000 N 
ATOM     19  C   UNL     1       0.495   9.054  19.009  0.00  0.00    +0.000 C 
ENDBRANCH   9  11
ENDBRANCH   1   8
BRANCH   6  20
ATOM     20  N   UNL     1       5.229   5.311  18.785  0.00  0.00    +0.000 N 
ATOM     21  H   UNL     1       5.217   6.300  19.032  0.00  0.00    +0.000 HD
BRANCH  20  22
ATOM     22  C   UNL     1       5.555   5.130  17.409  0.00  0.00    +0.000 A 
ATOM     23  C   UNL     1       4.571   4.799  16.468  0.00  0.00    +0.000 A 
ATOM     24  C   UNL     1       4.914   4.533  15.128  0.00  0.00    +0.000 A 
ATOM     25  C   UNL     1       6.243   4.625  14.712  0.00  0.00    +0.000 A 
ATOM     26  C   UNL     1       7.211   5.029  15.628  0.00  0.00    +0.000 A 
ATOM     27  C   UNL     1       6.864   5.319  16.946  0.00  0.00    +0.000 A 
BRANCH  25  28
ATOM     28  O   UNL     1       6.739   4.333  13.477  0.00  0.00    +0.000 OA
BRANCH  28  29
ATOM     29  C   UNL     1       6.125   3.279  12.763  0.00  0.00    +0.000 C 
ATOM     30  F   UNL     1       5.070   3.809  12.096  0.00  0.00    +0.000 F 
ATOM     31  F   UNL     1       6.991   2.821  11.826  0.00  0.00    +0.000 F 
ENDBRANCH  28  29
ENDBRANCH  25  28
ENDBRANCH  20  22
ENDBRANCH   6  20
TORSDOF 6
ENDMDL
