MODEL 1
REMARK VINA RESULT:      -8.4      0.000      0.000
REMARK  Name = 
REMARK  5 active torsions:
REMARK  status: ('A' for Active; 'I' for Inactive)
REMARK    1  A    between atoms: C_2  and  C_23
REMARK    2  A    between atoms: N_3  and  C_4
REMARK    3  A    between atoms: C_8  and  N_9
REMARK    4  A    between atoms: C_10  and  C_12
REMARK    5  A    between atoms: C_12  and  C_13
REMARK                            x       y       z     vdW  Elec       q    Type
REMARK                         _______ _______ _______ _____ _____    ______ ____
ROOT
ATOM      1  C   UNL     1       3.401   4.192  18.905  0.00  0.00    +0.000 A 
ATOM      2  C   UNL     1       3.437   3.070  19.741  0.00  0.00    +0.000 A 
ATOM      3  C   UNL     1       2.715   3.029  20.923  0.00  0.00    +0.000 A 
ATOM      4  C   UNL     1       1.981   4.135  21.321  0.00  0.00    +0.000 A 
ATOM      5  C   UNL     1       1.996   5.316  20.575  0.00  0.00    +0.000 A 
ATOM      6  C   UNL     1       2.695   5.332  19.344  0.00  0.00    +0.000 A 
ENDROOT
BRANCH   1   9
ATOM      7  O   UNL     1       6.249   4.394  18.456  0.00  0.00    +0.000 OA
ATOM      8  C   UNL     1       5.463   4.355  17.512  0.00  0.00    +0.000 C 
ATOM      9  N   UNL     1       4.081   4.186  17.653  0.00  0.00    +0.000 N 
ATOM     10  H   UNL     1       3.564   3.956  16.813  0.00  0.00    +0.000 HD
BRANCH   8  11
ATOM     11  C   UNL     1       5.980   4.454  16.160  0.00  0.00    +0.000 A 
ATOM     12  C   UNL     1       5.357   4.083  14.980  0.00  0.00    +0.000 A 
ATOM     13  C   UNL     1       6.279   4.311  13.938  0.00  0.00    +0.000 A 
ATOM     14  C   UNL     1       7.409   4.812  14.540  0.00  0.00    +0.000 A 
ATOM     15  O   UNL     1       7.238   4.919  15.889  0.00  0.00    +0.000 OA
ENDBRANCH   8  11
ENDBRANCH   1   9
BRANCH   5  16
ATOM     16  N   UNL     1       1.314   6.479  21.029  0.00  0.00    +0.000 N 
ATOM     17  C   UNL     1       1.462   7.763  20.490  0.00  0.00    +0.000 C 
ATOM     18  O   UNL     1       2.141   8.019  19.486  0.00  0.00    +0.000 OA
ATOM     19  H   UNL     1       0.588   6.350  21.721  0.00  0.00    +0.000 HD
BRANCH  17  20
ATOM     20  C   UNL     1       0.677   8.913  21.237  0.00  0.00    +0.000 C 
ATOM     21  C   UNL     1       1.394   9.388  22.576  0.00  0.00    +0.000 C 
ATOM     22  C   UNL     1       0.009   9.490  23.224  0.00  0.00    +0.000 C 
ATOM     23  C   UNL     1      -0.486   8.462  22.193  0.00  0.00    +0.000 C 
BRANCH  20  24
ATOM     24  C   UNL     1       0.425  10.120  20.185  0.00  0.00    +0.000 A 
ATOM     25  C   UNL     1      -0.606  10.107  19.226  0.00  0.00    +0.000 A 
ATOM     26  C   UNL     1      -0.859  11.201  18.391  0.00  0.00    +0.000 A 
ATOM     27  C   UNL     1      -0.076  12.344  18.481  0.00  0.00    +0.000 A 
ATOM     28  C   UNL     1       0.971  12.385  19.391  0.00  0.00    +0.000 A 
ATOM     29  C   UNL     1       1.214  11.290  20.226  0.00  0.00    +0.000 A 
ENDBRANCH  20  24
ENDBRANCH  17  20
ENDBRANCH   5  16
TORSDOF 5
ENDMDL
MODEL 2
REMARK VINA RESULT:      -8.3      3.330      9.148
REMARK  Name = 
REMARK  5 active torsions:
REMARK  status: ('A' for Active; 'I' for Inactive)
REMARK    1  A    between atoms: C_2  and  C_23
REMARK    2  A    between atoms: N_3  and  C_4
REMARK    3  A    between atoms: C_8  and  N_9
REMARK    4  A    between atoms: C_10  and  C_12
REMARK    5  A    between atoms: C_12  and  C_13
REMARK                            x       y       z     vdW  Elec       q    Type
REMARK                         _______ _______ _______ _____ _____    ______ ____
ROOT
ATOM      1  C   UNL     1      -0.496  11.009  18.537  0.00  0.00    +0.000 A 
ATOM      2  C   UNL     1       0.343  12.124  18.653  0.00  0.00    +0.000 A 
ATOM      3  C   UNL     1       1.711  12.018  18.464  0.00  0.00    +0.000 A 
ATOM      4  C   UNL     1       2.278  10.779  18.210  0.00  0.00    +0.000 A 
ATOM      5  C   UNL     1       1.497   9.620  18.189  0.00  0.00    +0.000 A 
ATOM      6  C   UNL     1       0.094   9.745  18.331  0.00  0.00    +0.000 A 
ENDROOT
BRANCH   1   9
ATOM      7  O   UNL     1      -2.400  11.355  16.389  0.00  0.00    +0.000 OA
ATOM      8  C   UNL     1      -2.761  11.383  17.563  0.00  0.00    +0.000 C 
ATOM      9  N   UNL     1      -1.910  11.151  18.649  0.00  0.00    +0.000 N 
ATOM     10  H   UNL     1      -2.352  10.988  19.545  0.00  0.00    +0.000 HD
BRANCH   8  11
ATOM     11  C   UNL     1      -4.159  11.634  17.864  0.00  0.00    +0.000 A 
ATOM     12  C   UNL     1      -5.226  11.678  16.983  0.00  0.00    +0.000 A 
ATOM     13  C   UNL     1      -6.369  12.016  17.737  0.00  0.00    +0.000 A 
ATOM     14  C   UNL     1      -5.935  12.156  19.034  0.00  0.00    +0.000 A 
ATOM     15  O   UNL     1      -4.596  11.912  19.131  0.00  0.00    +0.000 OA
ENDBRANCH   8  11
ENDBRANCH   1   9
BRANCH   5  16
ATOM     16  N   UNL     1       2.091   8.339  18.015  0.00  0.00    +0.000 N 
ATOM     17  C   UNL     1       2.441   7.465  19.053  0.00  0.00    +0.000 C 
ATOM     18  O   UNL     1       2.186   7.669  20.246  0.00  0.00    +0.000 OA
ATOM     19  H   UNL     1       2.168   7.988  17.070  0.00  0.00    +0.000 HD
BRANCH  17  20
ATOM     20  C   UNL     1       3.187   6.144  18.610  0.00  0.00    +0.000 C 
ATOM     21  C   UNL     1       4.652   6.022  19.220  0.00  0.00    +0.000 C 
ATOM     22  C   UNL     1       5.114   5.455  17.873  0.00  0.00    +0.000 C 
ATOM     23  C   UNL     1       3.926   6.187  17.224  0.00  0.00    +0.000 C 
BRANCH  20  24
ATOM     24  C   UNL     1       2.238   4.881  18.971  0.00  0.00    +0.000 A 
ATOM     25  C   UNL     1       1.756   3.975  18.006  0.00  0.00    +0.000 A 
ATOM     26  C   UNL     1       1.014   2.842  18.356  0.00  0.00    +0.000 A 
ATOM     27  C   UNL     1       0.717   2.584  19.688  0.00  0.00    +0.000 A 
ATOM     28  C   UNL     1       1.145   3.471  20.667  0.00  0.00    +0.000 A 
ATOM     29  C   UNL     1       1.892   4.598  20.310  0.00  0.00    +0.000 A 
ENDBRANCH  20  24
ENDBRANCH  17  20
ENDBRANCH   5  16
TORSDOF 5
ENDMDL
MODEL 3
REMARK VINA RESULT:      -8.2      3.418      9.188
REMARK  Name = 
REMARK  5 active torsions:
REMARK  status: ('A' for Active; 'I' for Inactive)
REMARK    1  A    between atoms: C_2  and  C_23
REMARK    2  A    between atoms: N_3  and  C_4
REMARK    3  A    between atoms: C_8  and  N_9
REMARK    4  A    between atoms: C_10  and  C_12
REMARK    5  A    between atoms: C_12  and  C_13
REMARK                            x       y       z     vdW  Elec       q    Type
REMARK                         _______ _______ _______ _____ _____    ______ ____
ROOT
ATOM      1  C   UNL     1      -0.859  10.909  18.485  0.00  0.00    +0.000 A 
ATOM      2  C   UNL     1      -0.110  12.069  18.712  0.00  0.00    +0.000 A 
ATOM      3  C   UNL     1       1.273  12.063  18.624  0.00  0.00    +0.000 A 
ATOM      4  C   UNL     1       1.941  10.878  18.360  0.00  0.00    +0.000 A 
ATOM      5  C   UNL     1       1.246   9.672  18.231  0.00  0.00    +0.000 A 
ATOM      6  C   UNL     1      -0.169   9.698  18.271  0.00  0.00    +0.000 A 
ENDROOT
BRANCH   1   9
ATOM      7  O   UNL     1      -2.622  11.218  16.215  0.00  0.00    +0.000 OA
ATOM      8  C   UNL     1      -3.068  11.172  17.359  0.00  0.00    +0.000 C 
ATOM      9  N   UNL     1      -2.284  10.952  18.496  0.00  0.00    +0.000 N 
ATOM     10  H   UNL     1      -2.777  10.722  19.350  0.00  0.00    +0.000 HD
BRANCH   8  11
ATOM     11  C   UNL     1      -4.498  11.316  17.563  0.00  0.00    +0.000 A 
ATOM     12  C   UNL     1      -5.340  12.283  17.040  0.00  0.00    +0.000 A 
ATOM     13  C   UNL     1      -6.623  12.044  17.574  0.00  0.00    +0.000 A 
ATOM     14  C   UNL     1      -6.492  10.944  18.389  0.00  0.00    +0.000 A 
ATOM     15  O   UNL     1      -5.208  10.481  18.382  0.00  0.00    +0.000 OA
ENDBRANCH   8  11
ENDBRANCH   1   9
BRANCH   5  16
ATOM     16  N   UNL     1       1.938   8.443  18.047  0.00  0.00    +0.000 N 
ATOM     17  C   UNL     1       2.281   7.550  19.071  0.00  0.00    +0.000 C 
ATOM     18  O   UNL     1       1.935   7.685  20.252  0.00  0.00    +0.000 OA
ATOM     19  H   UNL     1       2.100   8.139  17.096  0.00  0.00    +0.000 HD
BRANCH  17  20
ATOM     20  C   UNL     1       3.145   6.303  18.629  0.00  0.00    +0.000 C 
ATOM     21  C   UNL     1       4.633   6.346  19.191  0.00  0.00    +0.000 C 
ATOM     22  C   UNL     1       5.108   5.799  17.840  0.00  0.00    +0.000 C 
ATOM     23  C   UNL     1       3.831   6.390  17.218  0.00  0.00    +0.000 C 
BRANCH  20  24
ATOM     24  C   UNL     1       2.343   4.958  19.046  0.00  0.00    +0.000 A 
ATOM     25  C   UNL     1       2.151   4.555  20.382  0.00  0.00    +0.000 A 
ATOM     26  C   UNL     1       1.377   3.438  20.718  0.00  0.00    +0.000 A 
ATOM     27  C   UNL     1       0.777   2.679  19.723  0.00  0.00    +0.000 A 
ATOM     28  C   UNL     1       0.969   3.024  18.391  0.00  0.00    +0.000 A 
ATOM     29  C   UNL     1       1.739   4.144  18.064  0.00  0.00    +0.000 A 
ENDBRANCH  20  24
ENDBRANCH  17  20
ENDBRANCH   5  16
TORSDOF 5
ENDMDL
MODEL 4
REMARK VINA RESULT:      -8.2      1.795      2.857
REMARK  Name = 
REMARK  5 active torsions:
REMARK  status: ('A' for Active; 'I' for Inactive)
REMARK    1  A    between atoms: C_2  and  C_23
REMARK    2  A    between atoms: N_3  and  C_4
REMARK    3  A    between atoms: C_8  and  N_9
REMARK    4  A    between atoms: C_10  and  C_12
REMARK    5  A    between atoms: C_12  and  C_13
REMARK                            x       y       z     vdW  Elec       q    Type
REMARK                         _______ _______ _______ _____ _____    ______ ____
ROOT
ATOM      1  C   UNL     1       3.471   5.909  18.125  0.00  0.00    +0.000 A 
ATOM      2  C   UNL     1       3.307   5.183  19.310  0.00  0.00    +0.000 A 
ATOM      3  C   UNL     1       2.527   5.665  20.349  0.00  0.00    +0.000 A 
ATOM      4  C   UNL     1       1.937   6.914  20.245  0.00  0.00    +0.000 A 
ATOM      5  C   UNL     1       2.156   7.724  19.127  0.00  0.00    +0.000 A 
ATOM      6  C   UNL     1       2.911   7.202  18.050  0.00  0.00    +0.000 A 
ENDROOT
BRANCH   1   9
ATOM      7  O   UNL     1       6.087   6.712  17.194  0.00  0.00    +0.000 OA
ATOM      8  C   UNL     1       5.443   5.850  16.601  0.00  0.00    +0.000 C 
ATOM      9  N   UNL     1       4.206   5.361  17.034  0.00  0.00    +0.000 N 
ATOM     10  H   UNL     1       3.873   4.513  16.593  0.00  0.00    +0.000 HD
BRANCH   8  11
ATOM     11  C   UNL     1       5.997   5.263  15.394  0.00  0.00    +0.000 A 
ATOM     12  C   UNL     1       5.436   4.289  14.586  0.00  0.00    +0.000 A 
ATOM     13  C   UNL     1       6.376   4.002  13.574  0.00  0.00    +0.000 A 
ATOM     14  C   UNL     1       7.454   4.818  13.821  0.00  0.00    +0.000 A 
ATOM     15  O   UNL     1       7.233   5.602  14.916  0.00  0.00    +0.000 OA
ENDBRANCH   8  11
ENDBRANCH   1   9
BRANCH   5  16
ATOM     16  N   UNL     1       1.622   9.041  19.060  0.00  0.00    +0.000 N 
ATOM     17  C   UNL     1       0.611   9.544  19.889  0.00  0.00    +0.000 C 
ATOM     18  O   UNL     1       0.128   8.925  20.845  0.00  0.00    +0.000 OA
ATOM     19  H   UNL     1       2.079   9.696  18.440  0.00  0.00    +0.000 HD
BRANCH  17  20
ATOM     20  C   UNL     1       0.111  11.004  19.547  0.00  0.00    +0.000 C 
ATOM     21  C   UNL     1       1.213  11.883  18.810  0.00  0.00    +0.000 C 
ATOM     22  C   UNL     1       0.751  13.079  19.650  0.00  0.00    +0.000 C 
ATOM     23  C   UNL     1       0.233  12.073  20.693  0.00  0.00    +0.000 C 
BRANCH  20  24
ATOM     24  C   UNL     1      -1.273  10.882  18.712  0.00  0.00    +0.000 A 
ATOM     25  C   UNL     1      -2.425  11.634  19.011  0.00  0.00    +0.000 A 
ATOM     26  C   UNL     1      -3.577  11.577  18.219  0.00  0.00    +0.000 A 
ATOM     27  C   UNL     1      -3.617  10.751  17.103  0.00  0.00    +0.000 A 
ATOM     28  C   UNL     1      -2.513   9.968  16.793  0.00  0.00    +0.000 A 
ATOM     29  C   UNL     1      -1.364  10.036  17.586  0.00  0.00    +0.000 A 
ENDBRANCH  20  24
ENDBRANCH  17  20
ENDBRANCH   5  16
TORSDOF 5
ENDMDL
MODEL 5
REMARK VINA RESULT:      -8.1      2.527      8.438
REMARK  Name = 
REMARK  5 active torsions:
REMARK  status: ('A' for Active; 'I' for Inactive)
REMARK    1  A    between atoms: C_2  and  C_23
REMARK    2  A    between atoms: N_3  and  C_4
REMARK    3  A    between atoms: C_8  and  N_9
REMARK    4  A    between atoms: C_10  and  C_12
REMARK    5  A    between atoms: C_12  and  C_13
REMARK                            x       y       z     vdW  Elec       q    Type
REMARK                         _______ _______ _______ _____ _____    ______ ____
ROOT
ATOM      1  C   UNL     1       1.384   7.564  20.330  0.00  0.00    +0.000 A 
ATOM      2  C   UNL     1       0.933   6.414  20.987  0.00  0.00    +0.000 A 
ATOM      3  C   UNL     1       1.585   5.200  20.845  0.00  0.00    +0.000 A 
ATOM      4  C   UNL     1       2.676   5.099  19.996  0.00  0.00    +0.000 A 
ATOM      5  C   UNL     1       3.101   6.193  19.237  0.00  0.00    +0.000 A 
ATOM      6  C   UNL     1       2.461   7.441  19.427  0.00  0.00    +0.000 A 
ENDROOT
BRANCH   1   9
ATOM      7  O   UNL     1       1.631   9.261  22.657  0.00  0.00    +0.000 OA
ATOM      8  C   UNL     1       0.869   9.556  21.739  0.00  0.00    +0.000 C 
ATOM      9  N   UNL     1       0.753   8.822  20.554  0.00  0.00    +0.000 N 
ATOM     10  H   UNL     1       0.262   9.269  19.789  0.00  0.00    +0.000 HD
BRANCH   8  11
ATOM     11  C   UNL     1       0.057  10.754  21.854  0.00  0.00    +0.000 A 
ATOM     12  C   UNL     1      -0.326  11.623  20.847  0.00  0.00    +0.000 A 
ATOM     13  C   UNL     1      -1.051  12.667  21.457  0.00  0.00    +0.000 A 
ATOM     14  C   UNL     1      -1.072  12.374  22.800  0.00  0.00    +0.000 A 
ATOM     15  O   UNL     1      -0.414  11.206  23.056  0.00  0.00    +0.000 OA
ENDBRANCH   8  11
ENDBRANCH   1   9
BRANCH   5  16
ATOM     16  N   UNL     1       4.165   6.066  18.301  0.00  0.00    +0.000 N 
ATOM     17  C   UNL     1       4.239   5.097  17.291  0.00  0.00    +0.000 C 
ATOM     18  O   UNL     1       3.334   4.292  17.036  0.00  0.00    +0.000 OA
ATOM     19  H   UNL     1       4.867   6.793  18.295  0.00  0.00    +0.000 HD
BRANCH  17  20
ATOM     20  C   UNL     1       5.574   5.093  16.445  0.00  0.00    +0.000 C 
ATOM     21  C   UNL     1       5.354   5.535  14.932  0.00  0.00    +0.000 C 
ATOM     22  C   UNL     1       6.356   4.450  14.520  0.00  0.00    +0.000 C 
ATOM     23  C   UNL     1       6.008   3.714  15.827  0.00  0.00    +0.000 C 
BRANCH  20  24
ATOM     24  C   UNL     1       6.669   6.000  17.223  0.00  0.00    +0.000 A 
ATOM     25  C   UNL     1       6.960   7.332  16.871  0.00  0.00    +0.000 A 
ATOM     26  C   UNL     1       7.843   8.122  17.616  0.00  0.00    +0.000 A 
ATOM     27  C   UNL     1       8.476   7.597  18.735  0.00  0.00    +0.000 A 
ATOM     28  C   UNL     1       8.241   6.277  19.096  0.00  0.00    +0.000 A 
ATOM     29  C   UNL     1       7.353   5.496  18.351  0.00  0.00    +0.000 A 
ENDBRANCH  20  24
ENDBRANCH  17  20
ENDBRANCH   5  16
TORSDOF 5
ENDMDL
MODEL 6
REMARK VINA RESULT:      -7.9      2.609      8.281
REMARK  Name = 
REMARK  5 active torsions:
REMARK  status: ('A' for Active; 'I' for Inactive)
REMARK    1  A    between atoms: C_2  and  C_23
REMARK    2  A    between atoms: N_3  and  C_4
REMARK    3  A    between atoms: C_8  and  N_9
REMARK    4  A    between atoms: C_10  and  C_12
REMARK    5  A    between atoms: C_12  and  C_13
REMARK                            x       y       z     vdW  Elec       q    Type
REMARK                         _______ _______ _______ _____ _____    ______ ____
ROOT
ATOM      1  C   UNL     1       0.855   9.898  20.036  0.00  0.00    +0.000 A 
ATOM      2  C   UNL     1      -0.108   9.512  20.977  0.00  0.00    +0.000 A 
ATOM      3  C   UNL     1      -0.071   8.262  21.574  0.00  0.00    +0.000 A 
ATOM      4  C   UNL     1       0.901   7.348  21.200  0.00  0.00    +0.000 A 
ATOM      5  C   UNL     1       1.819   7.646  20.189  0.00  0.00    +0.000 A 
ATOM      6  C   UNL     1       1.807   8.943  19.623  0.00  0.00    +0.000 A 
ENDROOT
BRANCH   1   9
ATOM      7  O   UNL     1       1.774  12.320  21.319  0.00  0.00    +0.000 OA
ATOM      8  C   UNL     1       1.253  12.354  20.206  0.00  0.00    +0.000 C 
ATOM      9  N   UNL     1       0.852  11.217  19.496  0.00  0.00    +0.000 N 
ATOM     10  H   UNL     1       0.638  11.346  18.515  0.00  0.00    +0.000 HD
BRANCH   8  11
ATOM     11  C   UNL     1       1.067  13.636  19.554  0.00  0.00    +0.000 A 
ATOM     12  C   UNL     1       2.030  14.577  19.231  0.00  0.00    +0.000 A 
ATOM     13  C   UNL     1       1.357  15.681  18.670  0.00  0.00    +0.000 A 
ATOM     14  C   UNL     1       0.023  15.351  18.679  0.00  0.00    +0.000 A 
ATOM     15  O   UNL     1      -0.169  14.105  19.200  0.00  0.00    +0.000 OA
ENDBRANCH   8  11
ENDBRANCH   1   9
BRANCH   5  16
ATOM     16  N   UNL     1       2.760   6.677  19.745  0.00  0.00    +0.000 N 
ATOM     17  C   UNL     1       2.582   5.823  18.648  0.00  0.00    +0.000 C 
ATOM     18  O   UNL     1       1.616   5.880  17.877  0.00  0.00    +0.000 OA
ATOM     19  H   UNL     1       3.670   6.676  20.187  0.00  0.00    +0.000 HD
BRANCH  17  20
ATOM     20  C   UNL     1       3.725   4.756  18.420  0.00  0.00    +0.000 C 
ATOM     21  C   UNL     1       3.466   3.827  17.154  0.00  0.00    +0.000 C 
ATOM     22  C   UNL     1       4.006   2.647  17.970  0.00  0.00    +0.000 C 
ATOM     23  C   UNL     1       3.612   3.420  19.240  0.00  0.00    +0.000 C 
BRANCH  20  24
ATOM     24  C   UNL     1       5.143   5.539  18.358  0.00  0.00    +0.000 A 
ATOM     25  C   UNL     1       6.216   5.265  19.228  0.00  0.00    +0.000 A 
ATOM     26  C   UNL     1       7.460   5.891  19.095  0.00  0.00    +0.000 A 
ATOM     27  C   UNL     1       7.667   6.827  18.090  0.00  0.00    +0.000 A 
ATOM     28  C   UNL     1       6.624   7.150  17.232  0.00  0.00    +0.000 A 
ATOM     29  C   UNL     1       5.386   6.515  17.367  0.00  0.00    +0.000 A 
ENDBRANCH  20  24
ENDBRANCH  17  20
ENDBRANCH   5  16
TORSDOF 5
ENDMDL
MODEL 7
REMARK VINA RESULT:      -7.9      0.977      1.087
REMARK  Name = 
REMARK  5 active torsions:
REMARK  status: ('A' for Active; 'I' for Inactive)
REMARK    1  A    between atoms: C_2  and  C_23
REMARK    2  A    between atoms: N_3  and  C_4
REMARK    3  A    between atoms: C_8  and  N_9
REMARK    4  A    between atoms: C_10  and  C_12
REMARK    5  A    between atoms: C_12  and  C_13
REMARK                            x       y       z     vdW  Elec       q    Type
REMARK                         _______ _______ _______ _____ _____    ______ ____
ROOT
ATOM      1  C   UNL     1       3.849   4.615  19.070  0.00  0.00    +0.000 A 
ATOM      2  C   UNL     1       3.753   3.405  19.767  0.00  0.00    +0.000 A 
ATOM      3  C   UNL     1       2.849   3.240  20.804  0.00  0.00    +0.000 A 
ATOM      4  C   UNL     1       2.057   4.305  21.203  0.00  0.00    +0.000 A 
ATOM      5  C   UNL     1       2.189   5.563  20.610  0.00  0.00    +0.000 A 
ATOM      6  C   UNL     1       3.078   5.708  19.518  0.00  0.00    +0.000 A 
ENDROOT
BRANCH   1   9
ATOM      7  O   UNL     1       3.376   3.714  16.365  0.00  0.00    +0.000 OA
ATOM      8  C   UNL     1       4.450   4.218  16.683  0.00  0.00    +0.000 C 
ATOM      9  N   UNL     1       4.723   4.741  17.951  0.00  0.00    +0.000 N 
ATOM     10  H   UNL     1       5.552   5.317  18.037  0.00  0.00    +0.000 HD
BRANCH   8  11
ATOM     11  C   UNL     1       5.503   4.320  15.689  0.00  0.00    +0.000 A 
ATOM     12  C   UNL     1       6.784   4.820  15.852  0.00  0.00    +0.000 A 
ATOM     13  C   UNL     1       7.410   4.768  14.590  0.00  0.00    +0.000 A 
ATOM     14  C   UNL     1       6.478   4.237  13.730  0.00  0.00    +0.000 A 
ATOM     15  O   UNL     1       5.318   3.946  14.386  0.00  0.00    +0.000 OA
ENDBRANCH   8  11
ENDBRANCH   1   9
BRANCH   5  16
ATOM     16  N   UNL     1       1.439   6.677  21.079  0.00  0.00    +0.000 N 
ATOM     17  C   UNL     1       1.397   7.937  20.467  0.00  0.00    +0.000 C 
ATOM     18  O   UNL     1       1.939   8.199  19.386  0.00  0.00    +0.000 OA
ATOM     19  H   UNL     1       0.804   6.518  21.851  0.00  0.00    +0.000 HD
BRANCH  17  20
ATOM     20  C   UNL     1       0.576   9.045  21.239  0.00  0.00    +0.000 C 
ATOM     21  C   UNL     1       1.284   9.521  22.582  0.00  0.00    +0.000 C 
ATOM     22  C   UNL     1      -0.101   9.563  23.239  0.00  0.00    +0.000 C 
ATOM     23  C   UNL     1      -0.565   8.535  22.192  0.00  0.00    +0.000 C 
BRANCH  20  24
ATOM     24  C   UNL     1       0.274  10.260  20.210  0.00  0.00    +0.000 A 
ATOM     25  C   UNL     1      -0.799  10.254  19.299  0.00  0.00    +0.000 A 
ATOM     26  C   UNL     1      -1.091  11.354  18.485  0.00  0.00    +0.000 A 
ATOM     27  C   UNL     1      -0.306  12.498  18.549  0.00  0.00    +0.000 A 
ATOM     28  C   UNL     1       0.782  12.532  19.411  0.00  0.00    +0.000 A 
ATOM     29  C   UNL     1       1.064  11.430  20.224  0.00  0.00    +0.000 A 
ENDBRANCH  20  24
ENDBRANCH  17  20
ENDBRANCH   5  16
TORSDOF 5
ENDMDL
MODEL 8
REMARK VINA RESULT:      -7.9      2.109      8.142
REMARK  Name = 
REMARK  5 active torsions:
REMARK  status: ('A' for Active; 'I' for Inactive)
REMARK    1  A    between atoms: C_2  and  C_23
REMARK    2  A    between atoms: N_3  and  C_4
REMARK    3  A    between atoms: C_8  and  N_9
REMARK    4  A    between atoms: C_10  and  C_12
REMARK    5  A    between atoms: C_12  and  C_13
REMARK                            x       y       z     vdW  Elec       q    Type
REMARK                         _______ _______ _______ _____ _____    ______ ____
ROOT
ATOM      1  C   UNL     1       1.505   5.966  20.606  0.00  0.00    +0.000 A 
ATOM      2  C   UNL     1       1.068   4.656  20.835  0.00  0.00    +0.000 A 
ATOM      3  C   UNL     1       1.751   3.567  20.318  0.00  0.00    +0.000 A 
ATOM      4  C   UNL     1       2.859   3.769  19.510  0.00  0.00    +0.000 A 
ATOM      5  C   UNL     1       3.273   5.059  19.164  0.00  0.00    +0.000 A 
ATOM      6  C   UNL     1       2.601   6.163  19.739  0.00  0.00    +0.000 A 
ENDROOT
BRANCH   1   9
ATOM      7  O   UNL     1       1.482   8.713  19.707  0.00  0.00    +0.000 OA
ATOM      8  C   UNL     1       0.932   8.387  20.757  0.00  0.00    +0.000 C 
ATOM      9  N   UNL     1       0.841   7.069  21.216  0.00  0.00    +0.000 N 
ATOM     10  H   UNL     1       0.189   6.895  21.971  0.00  0.00    +0.000 HD
BRANCH   8  11
ATOM     11  C   UNL     1       0.301   9.412  21.568  0.00  0.00    +0.000 A 
ATOM     12  C   UNL     1      -0.399   9.251  22.752  0.00  0.00    +0.000 A 
ATOM     13  C   UNL     1      -0.874  10.524  23.126  0.00  0.00    +0.000 A 
ATOM     14  C   UNL     1      -0.435  11.390  22.153  0.00  0.00    +0.000 A 
ATOM     15  O   UNL     1       0.293  10.731  21.206  0.00  0.00    +0.000 OA
ENDBRANCH   8  11
ENDBRANCH   1   9
BRANCH   5  16
ATOM     16  N   UNL     1       4.356   5.264  18.265  0.00  0.00    +0.000 N 
ATOM     17  C   UNL     1       4.515   4.616  17.033  0.00  0.00    +0.000 C 
ATOM     18  O   UNL     1       3.677   3.851  16.539  0.00  0.00    +0.000 OA
ATOM     19  H   UNL     1       5.002   6.012  18.480  0.00  0.00    +0.000 HD
BRANCH  17  20
ATOM     20  C   UNL     1       5.858   4.933  16.263  0.00  0.00    +0.000 C 
ATOM     21  C   UNL     1       5.616   5.483  14.790  0.00  0.00    +0.000 C 
ATOM     22  C   UNL     1       6.810   4.639  14.330  0.00  0.00    +0.000 C 
ATOM     23  C   UNL     1       6.554   3.723  15.539  0.00  0.00    +0.000 C 
BRANCH  20  24
ATOM     24  C   UNL     1       6.744   5.931  17.181  0.00  0.00    +0.000 A 
ATOM     25  C   UNL     1       7.474   5.504  18.307  0.00  0.00    +0.000 A 
ATOM     26  C   UNL     1       8.304   6.369  19.029  0.00  0.00    +0.000 A 
ATOM     27  C   UNL     1       8.420   7.701  18.652  0.00  0.00    +0.000 A 
ATOM     28  C   UNL     1       7.691   8.170  17.568  0.00  0.00    +0.000 A 
ATOM     29  C   UNL     1       6.869   7.298  16.848  0.00  0.00    +0.000 A 
ENDBRANCH  20  24
ENDBRANCH  17  20
ENDBRANCH   5  16
TORSDOF 5
ENDMDL
MODEL 9
REMARK VINA RESULT:      -7.8      2.727      8.381
REMARK  Name = 
REMARK  5 active torsions:
REMARK  status: ('A' for Active; 'I' for Inactive)
REMARK    1  A    between atoms: C_2  and  C_23
REMARK    2  A    between atoms: N_3  and  C_4
REMARK    3  A    between atoms: C_8  and  N_9
REMARK    4  A    between atoms: C_10  and  C_12
REMARK    5  A    between atoms: C_12  and  C_13
REMARK                            x       y       z     vdW  Elec       q    Type
REMARK                         _______ _______ _______ _____ _____    ______ ____
ROOT
ATOM      1  C   UNL     1       0.836  10.295  20.077  0.00  0.00    +0.000 A 
ATOM      2  C   UNL     1       0.202   9.950  21.277  0.00  0.00    +0.000 A 
ATOM      3  C   UNL     1       0.357   8.692  21.838  0.00  0.00    +0.000 A 
ATOM      4  C   UNL     1       1.108   7.732  21.179  0.00  0.00    +0.000 A 
ATOM      5  C   UNL     1       1.674   7.993  19.928  0.00  0.00    +0.000 A 
ATOM      6  C   UNL     1       1.553   9.295  19.387  0.00  0.00    +0.000 A 
ENDROOT
BRANCH   1   9
ATOM      7  O   UNL     1       2.007  12.701  21.170  0.00  0.00    +0.000 OA
ATOM      8  C   UNL     1       1.276  12.747  20.183  0.00  0.00    +0.000 C 
ATOM      9  N   UNL     1       0.735  11.618  19.558  0.00  0.00    +0.000 N 
ATOM     10  H   UNL     1       0.330  11.757  18.640  0.00  0.00    +0.000 HD
BRANCH   8  11
ATOM     11  C   UNL     1       0.972  14.036  19.591  0.00  0.00    +0.000 A 
ATOM     12  C   UNL     1      -0.272  14.562  19.286  0.00  0.00    +0.000 A 
ATOM     13  C   UNL     1      -0.053  15.811  18.670  0.00  0.00    +0.000 A 
ATOM     14  C   UNL     1       1.311  15.979  18.638  0.00  0.00    +0.000 A 
ATOM     15  O   UNL     1       1.948  14.915  19.207  0.00  0.00    +0.000 OA
ENDBRANCH   8  11
ENDBRANCH   1   9
BRANCH   5  16
ATOM     16  N   UNL     1       2.370   6.979  19.213  0.00  0.00    +0.000 N 
ATOM     17  C   UNL     1       2.736   5.731  19.734  0.00  0.00    +0.000 C 
ATOM     18  O   UNL     1       2.409   5.327  20.857  0.00  0.00    +0.000 OA
ATOM     19  H   UNL     1       2.518   7.127  18.223  0.00  0.00    +0.000 HD
BRANCH  17  20
ATOM     20  C   UNL     1       3.600   4.817  18.777  0.00  0.00    +0.000 C 
ATOM     21  C   UNL     1       2.841   4.431  17.432  0.00  0.00    +0.000 C 
ATOM     22  C   UNL     1       3.445   3.027  17.552  0.00  0.00    +0.000 C 
ATOM     23  C   UNL     1       3.569   3.272  19.066  0.00  0.00    +0.000 C 
BRANCH  20  24
ATOM     24  C   UNL     1       5.020   5.554  18.521  0.00  0.00    +0.000 A 
ATOM     25  C   UNL     1       6.174   5.297  19.285  0.00  0.00    +0.000 A 
ATOM     26  C   UNL     1       7.411   5.879  18.985  0.00  0.00    +0.000 A 
ATOM     27  C   UNL     1       7.530   6.753  17.912  0.00  0.00    +0.000 A 
ATOM     28  C   UNL     1       6.408   7.059  17.154  0.00  0.00    +0.000 A 
ATOM     29  C   UNL     1       5.177   6.468  17.456  0.00  0.00    +0.000 A 
ENDBRANCH  20  24
ENDBRANCH  17  20
ENDBRANCH   5  16
TORSDOF 5
ENDMDL
