MODEL 1
REMARK VINA RESULT:      -8.6      0.000      0.000
REMARK  Name = 
REMARK  5 active torsions:
REMARK  status: ('A' for Active; 'I' for Inactive)
REMARK    1  A    between atoms: C_2  and  C_4
REMARK    2  A    between atoms: C_8  and  N_9
REMARK    3  A    between atoms: C_10  and  C_12
REMARK    4  A    between atoms: C_14  and  C_15
REMARK    5  A    between atoms: N_19  and  C_20
REMARK                            x       y       z     vdW  Elec       q    Type
REMARK                         _______ _______ _______ _____ _____    ______ ____
ROOT
ATOM      1  N   UNL     1       1.760   8.941  18.523  0.00  0.00    +0.000 N 
ATOM      2  C   UNL     1       2.116   7.747  19.143  0.00  0.00    +0.000 C 
ATOM      3  O   UNL     1       1.657   7.377  20.217  0.00  0.00    +0.000 OA
ATOM      4  H   UNL     1       2.140   9.119  17.603  0.00  0.00    +0.000 HD
ENDROOT
BRANCH   1   9
ATOM      5  C   UNL     1      -1.338  11.015  18.631  0.00  0.00    +0.000 A 
ATOM      6  C   UNL     1      -1.305  11.513  19.938  0.00  0.00    +0.000 A 
ATOM      7  C   UNL     1      -0.220  11.227  20.753  0.00  0.00    +0.000 A 
ATOM      8  C   UNL     1       0.813  10.418  20.280  0.00  0.00    +0.000 A 
ATOM      9  C   UNL     1       0.774   9.849  19.000  0.00  0.00    +0.000 A 
ATOM     10  C   UNL     1      -0.304  10.176  18.167  0.00  0.00    +0.000 A 
BRANCH   5  12
ATOM     11  N   UNL     1      -2.187  11.614  16.425  0.00  0.00    +0.000 N 
ATOM     12  C   UNL     1      -2.480  11.324  17.732  0.00  0.00    +0.000 C 
ATOM     13  O   UNL     1      -3.633  11.299  18.132  0.00  0.00    +0.000 OA
ATOM     14  H   UNL     1      -2.968  11.761  15.803  0.00  0.00    +0.000 HD
ATOM     15  H   UNL     1      -1.284  11.431  16.012  0.00  0.00    +0.000 HD
ENDBRANCH   5  12
ENDBRANCH   1   9
BRANCH   2  16
ATOM     16  C   UNL     1       3.071   6.922  18.439  0.00  0.00    +0.000 A 
ATOM     17  C   UNL     1       4.011   7.255  17.476  0.00  0.00    +0.000 A 
ATOM     18  C   UNL     1       4.876   6.147  17.416  0.00  0.00    +0.000 A 
ATOM     19  N   UNL     1       4.509   5.172  18.241  0.00  0.00    +0.000 NA
ATOM     20  N   UNL     1       3.334   5.594  18.778  0.00  0.00    +0.000 N 
BRANCH  20  21
ATOM     21  C   UNL     1       2.555   4.681  19.548  0.00  0.00    +0.000 A 
ATOM     22  C   UNL     1       1.485   4.008  18.940  0.00  0.00    +0.000 A 
ATOM     23  C   UNL     1       0.755   3.059  19.658  0.00  0.00    +0.000 A 
ATOM     24  C   UNL     1       1.062   2.802  20.993  0.00  0.00    +0.000 A 
ATOM     25  C   UNL     1       2.089   3.506  21.619  0.00  0.00    +0.000 A 
ATOM     26  C   UNL     1       2.832   4.447  20.903  0.00  0.00    +0.000 A 
ENDBRANCH  20  21
BRANCH  18  27
ATOM     27  C   UNL     1       6.135   5.998  16.575  0.00  0.00    +0.000 C 
ATOM     28  C   UNL     1       7.254   5.083  17.020  0.00  0.00    +0.000 C 
ATOM     29  C   UNL     1       7.442   6.560  17.090  0.00  0.00    +0.000 C 
ENDBRANCH  18  27
ENDBRANCH   2  16
TORSDOF 5
ENDMDL
MODEL 2
REMARK VINA RESULT:      -8.6      2.003      2.588
REMARK  Name = 
REMARK  5 active torsions:
REMARK  status: ('A' for Active; 'I' for Inactive)
REMARK    1  A    between atoms: C_2  and  C_4
REMARK    2  A    between atoms: C_8  and  N_9
REMARK    3  A    between atoms: C_10  and  C_12
REMARK    4  A    between atoms: C_14  and  C_15
REMARK    5  A    between atoms: N_19  and  C_20
REMARK                            x       y       z     vdW  Elec       q    Type
REMARK                         _______ _______ _______ _____ _____    ______ ____
ROOT
ATOM      1  N   UNL     1       2.095   8.469  19.362  0.00  0.00    +0.000 N 
ATOM      2  C   UNL     1       2.122   7.722  18.190  0.00  0.00    +0.000 C 
ATOM      3  O   UNL     1       1.217   7.721  17.364  0.00  0.00    +0.000 OA
ATOM      4  H   UNL     1       2.924   8.458  19.942  0.00  0.00    +0.000 HD
ENDROOT
BRANCH   1   9
ATOM      5  C   UNL     1      -0.281  10.407  21.487  0.00  0.00    +0.000 A 
ATOM      6  C   UNL     1      -0.847  11.286  20.556  0.00  0.00    +0.000 A 
ATOM      7  C   UNL     1      -0.502  11.181  19.217  0.00  0.00    +0.000 A 
ATOM      8  C   UNL     1       0.431  10.228  18.810  0.00  0.00    +0.000 A 
ATOM      9  C   UNL     1       1.066   9.382  19.729  0.00  0.00    +0.000 A 
ATOM     10  C   UNL     1       0.683   9.464  21.074  0.00  0.00    +0.000 A 
BRANCH   5  12
ATOM     11  N   UNL     1      -1.768  11.211  23.243  0.00  0.00    +0.000 N 
ATOM     12  C   UNL     1      -0.650  10.486  22.924  0.00  0.00    +0.000 C 
ATOM     13  O   UNL     1       0.001   9.911  23.783  0.00  0.00    +0.000 OA
ATOM     14  H   UNL     1      -2.052  11.209  24.212  0.00  0.00    +0.000 HD
ATOM     15  H   UNL     1      -2.443  11.509  22.555  0.00  0.00    +0.000 HD
ENDBRANCH   5  12
ENDBRANCH   1   9
BRANCH   2  16
ATOM     16  C   UNL     1       3.310   6.928  17.965  0.00  0.00    +0.000 A 
ATOM     17  C   UNL     1       4.526   7.272  17.397  0.00  0.00    +0.000 A 
ATOM     18  C   UNL     1       5.401   6.230  17.757  0.00  0.00    +0.000 A 
ATOM     19  N   UNL     1       4.796   5.283  18.467  0.00  0.00    +0.000 NA
ATOM     20  N   UNL     1       3.487   5.648  18.490  0.00  0.00    +0.000 N 
BRANCH  20  21
ATOM     21  C   UNL     1       2.518   4.728  18.990  0.00  0.00    +0.000 A 
ATOM     22  C   UNL     1       1.903   3.831  18.105  0.00  0.00    +0.000 A 
ATOM     23  C   UNL     1       1.004   2.877  18.588  0.00  0.00    +0.000 A 
ATOM     24  C   UNL     1       0.687   2.835  19.945  0.00  0.00    +0.000 A 
ATOM     25  C   UNL     1       1.255   3.758  20.821  0.00  0.00    +0.000 A 
ATOM     26  C   UNL     1       2.165   4.707  20.347  0.00  0.00    +0.000 A 
ENDBRANCH  20  21
BRANCH  18  27
ATOM     27  C   UNL     1       6.889   6.125  17.461  0.00  0.00    +0.000 C 
ATOM     28  C   UNL     1       7.855   5.656  18.527  0.00  0.00    +0.000 C 
ATOM     29  C   UNL     1       7.847   7.091  18.124  0.00  0.00    +0.000 C 
ENDBRANCH  18  27
ENDBRANCH   2  16
TORSDOF 5
ENDMDL
MODEL 3
REMARK VINA RESULT:      -8.6      0.915      1.431
REMARK  Name = 
REMARK  5 active torsions:
REMARK  status: ('A' for Active; 'I' for Inactive)
REMARK    1  A    between atoms: C_2  and  C_4
REMARK    2  A    between atoms: C_8  and  N_9
REMARK    3  A    between atoms: C_10  and  C_12
REMARK    4  A    between atoms: C_14  and  C_15
REMARK    5  A    between atoms: N_19  and  C_20
REMARK                            x       y       z     vdW  Elec       q    Type
REMARK                         _______ _______ _______ _____ _____    ______ ____
ROOT
ATOM      1  N   UNL     1       1.891   8.716  17.908  0.00  0.00    +0.000 N 
ATOM      2  C   UNL     1       2.408   7.673  18.669  0.00  0.00    +0.000 C 
ATOM      3  O   UNL     1       2.147   7.503  19.855  0.00  0.00    +0.000 OA
ATOM      4  H   UNL     1       2.108   8.725  16.920  0.00  0.00    +0.000 HD
ENDROOT
BRANCH   1   9
ATOM      5  C   UNL     1      -1.319  10.581  18.269  0.00  0.00    +0.000 A 
ATOM      6  C   UNL     1      -1.035  11.436  19.340  0.00  0.00    +0.000 A 
ATOM      7  C   UNL     1       0.240  11.451  19.886  0.00  0.00    +0.000 A 
ATOM      8  C   UNL     1       1.220  10.591  19.391  0.00  0.00    +0.000 A 
ATOM      9  C   UNL     1       0.945   9.675  18.366  0.00  0.00    +0.000 A 
ATOM     10  C   UNL     1      -0.331   9.694  17.791  0.00  0.00    +0.000 A 
BRANCH   5  12
ATOM     11  N   UNL     1      -3.268  11.771  17.419  0.00  0.00    +0.000 N 
ATOM     12  C   UNL     1      -2.671  10.561  17.654  0.00  0.00    +0.000 C 
ATOM     13  O   UNL     1      -3.219   9.513  17.349  0.00  0.00    +0.000 OA
ATOM     14  H   UNL     1      -4.159  11.757  16.943  0.00  0.00    +0.000 HD
ATOM     15  H   UNL     1      -2.766  12.646  17.451  0.00  0.00    +0.000 HD
ENDBRANCH   5  12
ENDBRANCH   1   9
BRANCH   2  16
ATOM     16  C   UNL     1       3.283   6.751  17.979  0.00  0.00    +0.000 A 
ATOM     17  C   UNL     1       4.221   6.975  16.985  0.00  0.00    +0.000 A 
ATOM     18  C   UNL     1       5.000   5.804  16.952  0.00  0.00    +0.000 A 
ATOM     19  N   UNL     1       4.582   4.892  17.823  0.00  0.00    +0.000 NA
ATOM     20  N   UNL     1       3.455   5.422  18.367  0.00  0.00    +0.000 N 
BRANCH  20  21
ATOM     21  C   UNL     1       2.628   4.600  19.190  0.00  0.00    +0.000 A 
ATOM     22  C   UNL     1       2.960   4.428  20.541  0.00  0.00    +0.000 A 
ATOM     23  C   UNL     1       2.124   3.684  21.378  0.00  0.00    +0.000 A 
ATOM     24  C   UNL     1       0.977   3.080  20.866  0.00  0.00    +0.000 A 
ATOM     25  C   UNL     1       0.670   3.203  19.513  0.00  0.00    +0.000 A 
ATOM     26  C   UNL     1       1.494   3.957  18.673  0.00  0.00    +0.000 A 
ENDBRANCH  20  21
BRANCH  18  27
ATOM     27  C   UNL     1       6.224   5.529  16.092  0.00  0.00    +0.000 C 
ATOM     28  C   UNL     1       6.070   5.084  14.653  0.00  0.00    +0.000 C 
ATOM     29  C   UNL     1       6.535   4.106  15.678  0.00  0.00    +0.000 C 
ENDBRANCH  18  27
ENDBRANCH   2  16
TORSDOF 5
ENDMDL
MODEL 4
REMARK VINA RESULT:      -8.5      2.422      3.158
REMARK  Name = 
REMARK  5 active torsions:
REMARK  status: ('A' for Active; 'I' for Inactive)
REMARK    1  A    between atoms: C_2  and  C_4
REMARK    2  A    between atoms: C_8  and  N_9
REMARK    3  A    between atoms: C_10  and  C_12
REMARK    4  A    between atoms: C_14  and  C_15
REMARK    5  A    between atoms: N_19  and  C_20
REMARK                            x       y       z     vdW  Elec       q    Type
REMARK                         _______ _______ _______ _____ _____    ______ ____
ROOT
ATOM      1  N   UNL     1       2.894   6.716  17.729  0.00  0.00    +0.000 N 
ATOM      2  C   UNL     1       4.246   6.691  17.404  0.00  0.00    +0.000 C 
ATOM      3  O   UNL     1       5.064   7.492  17.841  0.00  0.00    +0.000 OA
ATOM      4  H   UNL     1       2.315   5.966  17.374  0.00  0.00    +0.000 HD
ENDROOT
BRANCH   1   9
ATOM      5  C   UNL     1       1.162   9.733  19.074  0.00  0.00    +0.000 A 
ATOM      6  C   UNL     1       0.933   9.363  20.404  0.00  0.00    +0.000 A 
ATOM      7  C   UNL     1       1.422   8.154  20.873  0.00  0.00    +0.000 A 
ATOM      8  C   UNL     1       2.107   7.297  20.011  0.00  0.00    +0.000 A 
ATOM      9  C   UNL     1       2.290   7.610  18.657  0.00  0.00    +0.000 A 
ATOM     10  C   UNL     1       1.831   8.851  18.200  0.00  0.00    +0.000 A 
BRANCH   5  12
ATOM     11  N   UNL     1      -0.594  11.052  18.016  0.00  0.00    +0.000 N 
ATOM     12  C   UNL     1       0.666  11.033  18.554  0.00  0.00    +0.000 C 
ATOM     13  O   UNL     1       1.341  12.049  18.623  0.00  0.00    +0.000 OA
ATOM     14  H   UNL     1      -0.952  11.949  17.722  0.00  0.00    +0.000 HD
ATOM     15  H   UNL     1      -1.255  10.300  18.140  0.00  0.00    +0.000 HD
ENDBRANCH   5  12
ENDBRANCH   1   9
BRANCH   2  16
ATOM     16  C   UNL     1       4.669   5.637  16.510  0.00  0.00    +0.000 A 
ATOM     17  C   UNL     1       5.394   5.694  15.330  0.00  0.00    +0.000 A 
ATOM     18  C   UNL     1       5.803   4.369  15.091  0.00  0.00    +0.000 A 
ATOM     19  N   UNL     1       5.354   3.526  16.016  0.00  0.00    +0.000 NA
ATOM     20  N   UNL     1       4.557   4.280  16.818  0.00  0.00    +0.000 N 
BRANCH  20  21
ATOM     21  C   UNL     1       3.739   3.633  17.791  0.00  0.00    +0.000 A 
ATOM     22  C   UNL     1       2.448   3.218  17.436  0.00  0.00    +0.000 A 
ATOM     23  C   UNL     1       1.659   2.521  18.354  0.00  0.00    +0.000 A 
ATOM     24  C   UNL     1       2.138   2.266  19.638  0.00  0.00    +0.000 A 
ATOM     25  C   UNL     1       3.399   2.723  20.014  0.00  0.00    +0.000 A 
ATOM     26  C   UNL     1       4.199   3.409  19.097  0.00  0.00    +0.000 A 
ENDBRANCH  20  21
BRANCH  18  27
ATOM     27  C   UNL     1       6.690   3.861  13.965  0.00  0.00    +0.000 C 
ATOM     28  C   UNL     1       6.948   4.716  12.744  0.00  0.00    +0.000 C 
ATOM     29  C   UNL     1       6.068   3.518  12.629  0.00  0.00    +0.000 C 
ENDBRANCH  18  27
ENDBRANCH   2  16
TORSDOF 5
ENDMDL
MODEL 5
REMARK VINA RESULT:      -8.5      2.521      3.214
REMARK  Name = 
REMARK  5 active torsions:
REMARK  status: ('A' for Active; 'I' for Inactive)
REMARK    1  A    between atoms: C_2  and  C_4
REMARK    2  A    between atoms: C_8  and  N_9
REMARK    3  A    between atoms: C_10  and  C_12
REMARK    4  A    between atoms: C_14  and  C_15
REMARK    5  A    between atoms: N_19  and  C_20
REMARK                            x       y       z     vdW  Elec       q    Type
REMARK                         _______ _______ _______ _____ _____    ______ ____
ROOT
ATOM      1  N   UNL     1       2.648   7.577  17.763  0.00  0.00    +0.000 N 
ATOM      2  C   UNL     1       3.542   6.672  18.326  0.00  0.00    +0.000 C 
ATOM      3  O   UNL     1       3.920   6.728  19.491  0.00  0.00    +0.000 OA
ATOM      4  H   UNL     1       2.342   7.401  16.815  0.00  0.00    +0.000 HD
ENDROOT
BRANCH   1   9
ATOM      5  C   UNL     1       0.979   9.448  20.524  0.00  0.00    +0.000 A 
ATOM      6  C   UNL     1       0.855  10.728  19.970  0.00  0.00    +0.000 A 
ATOM      7  C   UNL     1       1.249  10.947  18.659  0.00  0.00    +0.000 A 
ATOM      8  C   UNL     1       1.799   9.906  17.912  0.00  0.00    +0.000 A 
ATOM      9  C   UNL     1       1.999   8.632  18.463  0.00  0.00    +0.000 A 
ATOM     10  C   UNL     1       1.561   8.405  19.773  0.00  0.00    +0.000 A 
BRANCH   5  12
ATOM     11  N   UNL     1      -0.622   8.485  22.090  0.00  0.00    +0.000 N 
ATOM     12  C   UNL     1       0.545   9.183  21.920  0.00  0.00    +0.000 C 
ATOM     13  O   UNL     1       1.210   9.549  22.877  0.00  0.00    +0.000 OA
ATOM     14  H   UNL     1      -0.881   8.251  23.037  0.00  0.00    +0.000 HD
ATOM     15  H   UNL     1      -1.074   7.983  21.340  0.00  0.00    +0.000 HD
ENDBRANCH   5  12
ENDBRANCH   1   9
BRANCH   2  16
ATOM     16  C   UNL     1       4.012   5.614  17.460  0.00  0.00    +0.000 A 
ATOM     17  C   UNL     1       4.831   5.664  16.344  0.00  0.00    +0.000 A 
ATOM     18  C   UNL     1       5.227   4.331  16.127  0.00  0.00    +0.000 A 
ATOM     19  N   UNL     1       4.686   3.492  17.004  0.00  0.00    +0.000 NA
ATOM     20  N   UNL     1       3.844   4.259  17.745  0.00  0.00    +0.000 N 
BRANCH  20  21
ATOM     21  C   UNL     1       2.935   3.624  18.643  0.00  0.00    +0.000 A 
ATOM     22  C   UNL     1       3.374   3.266  19.926  0.00  0.00    +0.000 A 
ATOM     23  C   UNL     1       2.480   2.707  20.842  0.00  0.00    +0.000 A 
ATOM     24  C   UNL     1       1.157   2.470  20.474  0.00  0.00    +0.000 A 
ATOM     25  C   UNL     1       0.728   2.774  19.184  0.00  0.00    +0.000 A 
ATOM     26  C   UNL     1       1.613   3.346  18.267  0.00  0.00    +0.000 A 
ENDBRANCH  20  21
BRANCH  18  27
ATOM     27  C   UNL     1       6.191   3.811  15.072  0.00  0.00    +0.000 C 
ATOM     28  C   UNL     1       6.895   4.767  14.134  0.00  0.00    +0.000 C 
ATOM     29  C   UNL     1       5.806   3.894  13.611  0.00  0.00    +0.000 C 
ENDBRANCH  18  27
ENDBRANCH   2  16
TORSDOF 5
ENDMDL
MODEL 6
REMARK VINA RESULT:      -8.5      1.921      2.693
REMARK  Name = 
REMARK  5 active torsions:
REMARK  status: ('A' for Active; 'I' for Inactive)
REMARK    1  A    between atoms: C_2  and  C_4
REMARK    2  A    between atoms: C_8  and  N_9
REMARK    3  A    between atoms: C_10  and  C_12
REMARK    4  A    between atoms: C_14  and  C_15
REMARK    5  A    between atoms: N_19  and  C_20
REMARK                            x       y       z     vdW  Elec       q    Type
REMARK                         _______ _______ _______ _____ _____    ______ ____
ROOT
ATOM      1  N   UNL     1       2.063   8.618  19.261  0.00  0.00    +0.000 N 
ATOM      2  C   UNL     1       2.061   7.776  18.153  0.00  0.00    +0.000 C 
ATOM      3  O   UNL     1       1.103   7.649  17.399  0.00  0.00    +0.000 OA
ATOM      4  H   UNL     1       2.929   8.707  19.776  0.00  0.00    +0.000 HD
ENDROOT
BRANCH   1   9
ATOM      5  C   UNL     1      -0.424  10.418  21.378  0.00  0.00    +0.000 A 
ATOM      6  C   UNL     1      -0.978  11.322  20.464  0.00  0.00    +0.000 A 
ATOM      7  C   UNL     1      -0.586  11.279  19.135  0.00  0.00    +0.000 A 
ATOM      8  C   UNL     1       0.381  10.363  18.722  0.00  0.00    +0.000 A 
ATOM      9  C   UNL     1       1.003   9.493  19.628  0.00  0.00    +0.000 A 
ATOM     10  C   UNL     1       0.573   9.512  20.961  0.00  0.00    +0.000 A 
BRANCH   5  12
ATOM     11  N   UNL     1      -0.393   9.408  23.596  0.00  0.00    +0.000 N 
ATOM     12  C   UNL     1      -0.844  10.430  22.803  0.00  0.00    +0.000 C 
ATOM     13  O   UNL     1      -1.542  11.324  23.256  0.00  0.00    +0.000 OA
ATOM     14  H   UNL     1      -0.627   9.454  24.577  0.00  0.00    +0.000 HD
ATOM     15  H   UNL     1       0.351   8.786  23.318  0.00  0.00    +0.000 HD
ENDBRANCH   5  12
ENDBRANCH   1   9
BRANCH   2  16
ATOM     16  C   UNL     1       3.281   7.042  17.906  0.00  0.00    +0.000 A 
ATOM     17  C   UNL     1       4.472   7.446  17.323  0.00  0.00    +0.000 A 
ATOM     18  C   UNL     1       5.400   6.444  17.663  0.00  0.00    +0.000 A 
ATOM     19  N   UNL     1       4.850   5.465  18.374  0.00  0.00    +0.000 NA
ATOM     20  N   UNL     1       3.526   5.767  18.419  0.00  0.00    +0.000 N 
BRANCH  20  21
ATOM     21  C   UNL     1       2.609   4.799  18.925  0.00  0.00    +0.000 A 
ATOM     22  C   UNL     1       2.308   4.789  20.295  0.00  0.00    +0.000 A 
ATOM     23  C   UNL     1       1.361   3.894  20.797  0.00  0.00    +0.000 A 
ATOM     24  C   UNL     1       0.736   2.984  19.947  0.00  0.00    +0.000 A 
ATOM     25  C   UNL     1       1.070   2.953  18.594  0.00  0.00    +0.000 A 
ATOM     26  C   UNL     1       2.008   3.854  18.082  0.00  0.00    +0.000 A 
ENDBRANCH  20  21
BRANCH  18  27
ATOM     27  C   UNL     1       6.886   6.412  17.345  0.00  0.00    +0.000 C 
ATOM     28  C   UNL     1       7.912   6.391  18.458  0.00  0.00    +0.000 C 
ATOM     29  C   UNL     1       7.736   7.628  17.645  0.00  0.00    +0.000 C 
ENDBRANCH  18  27
ENDBRANCH   2  16
TORSDOF 5
ENDMDL
MODEL 7
REMARK VINA RESULT:      -8.4      2.196      3.106
REMARK  Name = 
REMARK  5 active torsions:
REMARK  status: ('A' for Active; 'I' for Inactive)
REMARK    1  A    between atoms: C_2  and  C_4
REMARK    2  A    between atoms: C_8  and  N_9
REMARK    3  A    between atoms: C_10  and  C_12
REMARK    4  A    between atoms: C_14  and  C_15
REMARK    5  A    between atoms: N_19  and  C_20
REMARK                            x       y       z     vdW  Elec       q    Type
REMARK                         _______ _______ _______ _____ _____    ______ ____
ROOT
ATOM      1  N   UNL     1       2.763   6.764  17.968  0.00  0.00    +0.000 N 
ATOM      2  C   UNL     1       4.101   6.761  17.588  0.00  0.00    +0.000 C 
ATOM      3  O   UNL     1       4.915   7.597  17.963  0.00  0.00    +0.000 OA
ATOM      4  H   UNL     1       2.190   5.987  17.664  0.00  0.00    +0.000 HD
ENDROOT
BRANCH   1   9
ATOM      5  C   UNL     1       1.135   9.846  19.295  0.00  0.00    +0.000 A 
ATOM      6  C   UNL     1       0.846   9.473  20.613  0.00  0.00    +0.000 A 
ATOM      7  C   UNL     1       1.262   8.237  21.082  0.00  0.00    +0.000 A 
ATOM      8  C   UNL     1       1.932   7.357  20.231  0.00  0.00    +0.000 A 
ATOM      9  C   UNL     1       2.173   7.675  18.888  0.00  0.00    +0.000 A 
ATOM     10  C   UNL     1       1.789   8.942  18.432  0.00  0.00    +0.000 A 
BRANCH   5  12
ATOM     11  N   UNL     1       1.638  11.873  18.037  0.00  0.00    +0.000 N 
ATOM     12  C   UNL     1       0.719  11.174  18.776  0.00  0.00    +0.000 C 
ATOM     13  O   UNL     1      -0.401  11.617  18.978  0.00  0.00    +0.000 OA
ATOM     14  H   UNL     1       1.331  12.746  17.633  0.00  0.00    +0.000 HD
ATOM     15  H   UNL     1       2.478  11.453  17.668  0.00  0.00    +0.000 HD
ENDBRANCH   5  12
ENDBRANCH   1   9
BRANCH   2  16
ATOM     16  C   UNL     1       4.515   5.685  16.716  0.00  0.00    +0.000 A 
ATOM     17  C   UNL     1       5.275   5.708  15.558  0.00  0.00    +0.000 A 
ATOM     18  C   UNL     1       5.648   4.369  15.342  0.00  0.00    +0.000 A 
ATOM     19  N   UNL     1       5.146   3.549  16.260  0.00  0.00    +0.000 NA
ATOM     20  N   UNL     1       4.352   4.336  17.032  0.00  0.00    +0.000 N 
BRANCH  20  21
ATOM     21  C   UNL     1       3.486   3.724  17.986  0.00  0.00    +0.000 A 
ATOM     22  C   UNL     1       3.947   3.510  19.293  0.00  0.00    +0.000 A 
ATOM     23  C   UNL     1       3.091   2.976  20.259  0.00  0.00    +0.000 A 
ATOM     24  C   UNL     1       1.786   2.621  19.921  0.00  0.00    +0.000 A 
ATOM     25  C   UNL     1       1.339   2.781  18.611  0.00  0.00    +0.000 A 
ATOM     26  C   UNL     1       2.186   3.326  17.642  0.00  0.00    +0.000 A 
ENDBRANCH  20  21
BRANCH  18  27
ATOM     27  C   UNL     1       6.551   3.823  14.246  0.00  0.00    +0.000 C 
ATOM     28  C   UNL     1       6.998   4.709  13.104  0.00  0.00    +0.000 C 
ATOM     29  C   UNL     1       5.994   3.637  12.851  0.00  0.00    +0.000 C 
ENDBRANCH  18  27
ENDBRANCH   2  16
TORSDOF 5
ENDMDL
MODEL 8
REMARK VINA RESULT:      -8.4      2.456      3.179
REMARK  Name = 
REMARK  5 active torsions:
REMARK  status: ('A' for Active; 'I' for Inactive)
REMARK    1  A    between atoms: C_2  and  C_4
REMARK    2  A    between atoms: C_8  and  N_9
REMARK    3  A    between atoms: C_10  and  C_12
REMARK    4  A    between atoms: C_14  and  C_15
REMARK    5  A    between atoms: N_19  and  C_20
REMARK                            x       y       z     vdW  Elec       q    Type
REMARK                         _______ _______ _______ _____ _____    ______ ____
ROOT
ATOM      1  N   UNL     1       2.248   7.396  17.975  0.00  0.00    +0.000 N 
ATOM      2  C   UNL     1       3.614   7.340  17.719  0.00  0.00    +0.000 C 
ATOM      3  O   UNL     1       4.398   8.234  18.017  0.00  0.00    +0.000 OA
ATOM      4  H   UNL     1       1.700   6.574  17.757  0.00  0.00    +0.000 HD
ENDROOT
BRANCH   1   9
ATOM      5  C   UNL     1       0.891   9.414  20.803  0.00  0.00    +0.000 A 
ATOM      6  C   UNL     1       0.438  10.563  20.144  0.00  0.00    +0.000 A 
ATOM      7  C   UNL     1       0.510  10.633  18.761  0.00  0.00    +0.000 A 
ATOM      8  C   UNL     1       1.063   9.576  18.037  0.00  0.00    +0.000 A 
ATOM      9  C   UNL     1       1.587   8.444  18.674  0.00  0.00    +0.000 A 
ATOM     10  C   UNL     1       1.474   8.361  20.068  0.00  0.00    +0.000 A 
BRANCH   5  12
ATOM     11  N   UNL     1      -0.427   9.052  22.821  0.00  0.00    +0.000 N 
ATOM     12  C   UNL     1       0.806   9.307  22.282  0.00  0.00    +0.000 C 
ATOM     13  O   UNL     1       1.797   9.418  22.989  0.00  0.00    +0.000 OA
ATOM     14  H   UNL     1      -0.470   8.917  23.821  0.00  0.00    +0.000 HD
ATOM     15  H   UNL     1      -1.212   8.740  22.270  0.00  0.00    +0.000 HD
ENDBRANCH   5  12
ENDBRANCH   1   9
BRANCH   2  16
ATOM     16  C   UNL     1       4.096   6.137  17.079  0.00  0.00    +0.000 A 
ATOM     17  C   UNL     1       4.943   5.972  15.994  0.00  0.00    +0.000 A 
ATOM     18  C   UNL     1       5.333   4.621  16.041  0.00  0.00    +0.000 A 
ATOM     19  N   UNL     1       4.764   3.964  17.046  0.00  0.00    +0.000 NA
ATOM     20  N   UNL     1       3.911   4.860  17.609  0.00  0.00    +0.000 N 
BRANCH  20  21
ATOM     21  C   UNL     1       2.975   4.408  18.587  0.00  0.00    +0.000 A 
ATOM     22  C   UNL     1       1.826   3.720  18.172  0.00  0.00    +0.000 A 
ATOM     23  C   UNL     1       0.935   3.210  19.118  0.00  0.00    +0.000 A 
ATOM     24  C   UNL     1       1.164   3.412  20.478  0.00  0.00    +0.000 A 
ATOM     25  C   UNL     1       2.277   4.141  20.895  0.00  0.00    +0.000 A 
ATOM     26  C   UNL     1       3.179   4.643  19.954  0.00  0.00    +0.000 A 
ENDBRANCH  20  21
BRANCH  18  27
ATOM     27  C   UNL     1       6.318   3.909  15.127  0.00  0.00    +0.000 C 
ATOM     28  C   UNL     1       7.099   4.680  14.086  0.00  0.00    +0.000 C 
ATOM     29  C   UNL     1       5.998   3.773  13.654  0.00  0.00    +0.000 C 
ENDBRANCH  18  27
ENDBRANCH   2  16
TORSDOF 5
ENDMDL
MODEL 9
REMARK VINA RESULT:      -8.4      1.640      2.324
REMARK  Name = 
REMARK  5 active torsions:
REMARK  status: ('A' for Active; 'I' for Inactive)
REMARK    1  A    between atoms: C_2  and  C_4
REMARK    2  A    between atoms: C_8  and  N_9
REMARK    3  A    between atoms: C_10  and  C_12
REMARK    4  A    between atoms: C_14  and  C_15
REMARK    5  A    between atoms: N_19  and  C_20
REMARK                            x       y       z     vdW  Elec       q    Type
REMARK                         _______ _______ _______ _____ _____    ______ ____
ROOT
ATOM      1  N   UNL     1       1.483   8.850  18.612  0.00  0.00    +0.000 N 
ATOM      2  C   UNL     1       2.064   7.769  19.266  0.00  0.00    +0.000 C 
ATOM      3  O   UNL     1       1.831   7.476  20.433  0.00  0.00    +0.000 OA
ATOM      4  H   UNL     1       1.684   8.963  17.627  0.00  0.00    +0.000 HD
ENDROOT
BRANCH   1   9
ATOM      5  C   UNL     1      -0.532  10.697  21.151  0.00  0.00    +0.000 A 
ATOM      6  C   UNL     1      -1.324  11.521  20.344  0.00  0.00    +0.000 A 
ATOM      7  C   UNL     1      -1.248  11.407  18.964  0.00  0.00    +0.000 A 
ATOM      8  C   UNL     1      -0.360  10.500  18.387  0.00  0.00    +0.000 A 
ATOM      9  C   UNL     1       0.496   9.711  19.169  0.00  0.00    +0.000 A 
ATOM     10  C   UNL     1       0.384   9.800  20.562  0.00  0.00    +0.000 A 
BRANCH   5  12
ATOM     11  N   UNL     1      -0.578   9.608  23.331  0.00  0.00    +0.000 N 
ATOM     12  C   UNL     1      -0.611  10.785  22.631  0.00  0.00    +0.000 C 
ATOM     13  O   UNL     1      -0.679  11.862  23.204  0.00  0.00    +0.000 OA
ATOM     14  H   UNL     1      -0.567   9.675  24.339  0.00  0.00    +0.000 HD
ATOM     15  H   UNL     1      -0.304   8.731  22.915  0.00  0.00    +0.000 HD
ENDBRANCH   5  12
ENDBRANCH   1   9
BRANCH   2  16
ATOM     16  C   UNL     1       2.975   6.964  18.484  0.00  0.00    +0.000 A 
ATOM     17  C   UNL     1       3.868   7.326  17.489  0.00  0.00    +0.000 A 
ATOM     18  C   UNL     1       4.719   6.215  17.342  0.00  0.00    +0.000 A 
ATOM     19  N   UNL     1       4.383   5.212  18.147  0.00  0.00    +0.000 NA
ATOM     20  N   UNL     1       3.242   5.622  18.759  0.00  0.00    +0.000 N 
BRANCH  20  21
ATOM     21  C   UNL     1       2.492   4.686  19.532  0.00  0.00    +0.000 A 
ATOM     22  C   UNL     1       1.449   3.973  18.925  0.00  0.00    +0.000 A 
ATOM     23  C   UNL     1       0.751   3.002  19.647  0.00  0.00    +0.000 A 
ATOM     24  C   UNL     1       1.063   2.764  20.984  0.00  0.00    +0.000 A 
ATOM     25  C   UNL     1       2.063   3.506  21.609  0.00  0.00    +0.000 A 
ATOM     26  C   UNL     1       2.775   4.469  20.888  0.00  0.00    +0.000 A 
ENDBRANCH  20  21
BRANCH  18  27
ATOM     27  C   UNL     1       5.932   6.088  16.434  0.00  0.00    +0.000 C 
ATOM     28  C   UNL     1       6.981   5.029  16.693  0.00  0.00    +0.000 C 
ATOM     29  C   UNL     1       7.299   6.459  16.967  0.00  0.00    +0.000 C 
ENDBRANCH  18  27
ENDBRANCH   2  16
TORSDOF 5
ENDMDL
