MODEL 1
REMARK VINA RESULT:      -9.4      0.000      0.000
REMARK  Name = 
REMARK  3 active torsions:
REMARK  status: ('A' for Active; 'I' for Inactive)
REMARK    1  A    between atoms: C_5  and  C_7
REMARK    2  A    between atoms: C_11  and  N_12
REMARK    3  A    between atoms: C_13  and  C_15
REMARK                            x       y       z     vdW  Elec       q    Type
REMARK                         _______ _______ _______ _____ _____    ______ ____
ROOT
ATOM      1  C   UNL     1      -0.465  10.078  19.921  0.00  0.00    +0.000 A 
ATOM      2  C   UNL     1      -0.636  10.142  21.307  0.00  0.00    +0.000 A 
ATOM      3  C   UNL     1       0.234   9.442  22.143  0.00  0.00    +0.000 A 
ATOM      4  C   UNL     1       1.258   8.659  21.604  0.00  0.00    +0.000 A 
ATOM      5  C   UNL     1       1.423   8.554  20.222  0.00  0.00    +0.000 A 
ATOM      6  C   UNL     1       0.567   9.284  19.386  0.00  0.00    +0.000 A 
ENDROOT
BRANCH   1  11
ATOM      7  N   UNL     1      -2.966  11.799  16.844  0.00  0.00    +0.000 N 
ATOM      8  C   UNL     1      -2.394  10.584  16.715  0.00  0.00    +0.000 C 
ATOM      9  O   UNL     1      -2.543   9.903  15.707  0.00  0.00    +0.000 OA
ATOM     10  N   UNL     1      -1.635  10.140  17.762  0.00  0.00    +0.000 N 
ATOM     11  C   UNL     1      -1.386  10.771  18.970  0.00  0.00    +0.000 C 
ATOM     12  O   UNL     1      -1.887  11.844  19.301  0.00  0.00    +0.000 OA
ATOM     13  H   UNL     1      -3.529  12.172  16.099  0.00  0.00    +0.000 HD
ATOM     14  H   UNL     1      -2.788  12.357  17.676  0.00  0.00    +0.000 HD
ATOM     15  H   UNL     1      -1.258   9.221  17.584  0.00  0.00    +0.000 HD
ENDBRANCH   1  11
BRANCH   5  16
ATOM     16  N   UNL     1       2.390   7.726  19.612  0.00  0.00    +0.000 N 
ATOM     17  C   UNL     1       2.466   6.339  19.659  0.00  0.00    +0.000 C 
ATOM     18  O   UNL     1       1.746   5.593  20.317  0.00  0.00    +0.000 OA
ATOM     19  H   UNL     1       3.040   8.177  18.972  0.00  0.00    +0.000 HD
BRANCH  17  20
ATOM     20  C   UNL     1       3.649   5.791  18.851  0.00  0.00    +0.000 C 
ATOM     21  C   UNL     1       4.019   6.702  17.685  0.00  0.00    +0.000 C 
ATOM     22  C   UNL     1       5.105   5.976  16.940  0.00  0.00    +0.000 A 
ATOM     23  C   UNL     1       5.158   5.919  15.545  0.00  0.00    +0.000 A 
ATOM     24  C   UNL     1       6.138   5.144  14.921  0.00  0.00    +0.000 A 
ATOM     25  C   UNL     1       7.085   4.454  15.681  0.00  0.00    +0.000 A 
ATOM     26  C   UNL     1       7.066   4.544  17.073  0.00  0.00    +0.000 A 
ATOM     27  C   UNL     1       6.070   5.295  17.700  0.00  0.00    +0.000 A 
ATOM     28  C   UNL     1       6.008   5.347  19.183  0.00  0.00    +0.000 C 
ATOM     29  O   UNL     1       6.988   5.128  19.879  0.00  0.00    +0.000 OA
ATOM     30  O   UNL     1       4.788   5.623  19.723  0.00  0.00    +0.000 OA
ENDBRANCH  17  20
ENDBRANCH   5  16
TORSDOF 3
ENDMDL
MODEL 2
REMARK VINA RESULT:      -9.1      1.261      1.410
REMARK  Name = 
REMARK  3 active torsions:
REMARK  status: ('A' for Active; 'I' for Inactive)
REMARK    1  A    between atoms: C_5  and  C_7
REMARK    2  A    between atoms: C_11  and  N_12
REMARK    3  A    between atoms: C_13  and  C_15
REMARK                            x       y       z     vdW  Elec       q    Type
REMARK                         _______ _______ _______ _____ _____    ______ ____
ROOT
ATOM      1  C   UNL     1      -1.056  10.482  18.403  0.00  0.00    +0.000 A 
ATOM      2  C   UNL     1      -0.931  11.254  19.562  0.00  0.00    +0.000 A 
ATOM      3  C   UNL     1       0.207  11.125  20.358  0.00  0.00    +0.000 A 
ATOM      4  C   UNL     1       1.210  10.213  20.018  0.00  0.00    +0.000 A 
ATOM      5  C   UNL     1       1.087   9.408  18.885  0.00  0.00    +0.000 A 
ATOM      6  C   UNL     1      -0.043   9.563  18.070  0.00  0.00    +0.000 A 
ENDROOT
BRANCH   1  11
ATOM      7  N   UNL     1      -4.268  10.692  15.518  0.00  0.00    +0.000 N 
ATOM      8  C   UNL     1      -3.006  10.367  15.171  0.00  0.00    +0.000 C 
ATOM      9  O   UNL     1      -2.695  10.125  14.011  0.00  0.00    +0.000 OA
ATOM     10  N   UNL     1      -2.078  10.320  16.175  0.00  0.00    +0.000 N 
ATOM     11  C   UNL     1      -2.267  10.544  17.530  0.00  0.00    +0.000 C 
ATOM     12  O   UNL     1      -3.361  10.770  18.042  0.00  0.00    +0.000 OA
ATOM     13  H   UNL     1      -4.985  10.746  14.815  0.00  0.00    +0.000 HD
ATOM     14  H   UNL     1      -4.483  10.929  16.484  0.00  0.00    +0.000 HD
ATOM     15  H   UNL     1      -1.168  10.058  15.828  0.00  0.00    +0.000 HD
ENDBRANCH   1  11
BRANCH   5  16
ATOM     16  N   UNL     1       2.026   8.418  18.524  0.00  0.00    +0.000 N 
ATOM     17  C   UNL     1       2.323   7.244  19.207  0.00  0.00    +0.000 C 
ATOM     18  O   UNL     1       1.872   6.905  20.298  0.00  0.00    +0.000 OA
ATOM     19  H   UNL     1       2.458   8.510  17.607  0.00  0.00    +0.000 HD
BRANCH  17  20
ATOM     20  C   UNL     1       3.389   6.405  18.493  0.00  0.00    +0.000 C 
ATOM     21  C   UNL     1       4.102   7.194  17.398  0.00  0.00    +0.000 C 
ATOM     22  C   UNL     1       5.022   6.209  16.732  0.00  0.00    +0.000 A 
ATOM     23  C   UNL     1       5.194   6.153  15.346  0.00  0.00    +0.000 A 
ATOM     24  C   UNL     1       5.987   5.149  14.787  0.00  0.00    +0.000 A 
ATOM     25  C   UNL     1       6.635   4.222  15.606  0.00  0.00    +0.000 A 
ATOM     26  C   UNL     1       6.504   4.299  16.992  0.00  0.00    +0.000 A 
ATOM     27  C   UNL     1       5.689   5.286  17.552  0.00  0.00    +0.000 A 
ATOM     28  C   UNL     1       5.498   5.337  19.024  0.00  0.00    +0.000 C 
ATOM     29  O   UNL     1       6.310   4.855  19.798  0.00  0.00    +0.000 OA
ATOM     30  O   UNL     1       4.350   5.927  19.458  0.00  0.00    +0.000 OA
ENDBRANCH  17  20
ENDBRANCH   5  16
TORSDOF 3
ENDMDL
MODEL 3
REMARK VINA RESULT:      -8.9      2.850      8.637
REMARK  Name = 
REMARK  3 active torsions:
REMARK  status: ('A' for Active; 'I' for Inactive)
REMARK    1  A    between atoms: C_5  and  C_7
REMARK    2  A    between atoms: C_11  and  N_12
REMARK    3  A    between atoms: C_13  and  C_15
REMARK                            x       y       z     vdW  Elec       q    Type
REMARK                         _______ _______ _______ _____ _____    ______ ____
ROOT
ATOM      1  C   UNL     1       4.143   4.517  19.283  0.00  0.00    +0.000 A 
ATOM      2  C   UNL     1       3.479   3.330  19.606  0.00  0.00    +0.000 A 
ATOM      3  C   UNL     1       2.215   3.383  20.193  0.00  0.00    +0.000 A 
ATOM      4  C   UNL     1       1.619   4.614  20.482  0.00  0.00    +0.000 A 
ATOM      5  C   UNL     1       2.281   5.809  20.200  0.00  0.00    +0.000 A 
ATOM      6  C   UNL     1       3.537   5.752  19.582  0.00  0.00    +0.000 A 
ENDROOT
BRANCH   1  11
ATOM      7  N   UNL     1       7.919   4.381  17.184  0.00  0.00    +0.000 N 
ATOM      8  C   UNL     1       6.733   4.344  16.542  0.00  0.00    +0.000 C 
ATOM      9  O   UNL     1       6.661   4.256  15.322  0.00  0.00    +0.000 OA
ATOM     10  N   UNL     1       5.606   4.407  17.314  0.00  0.00    +0.000 N 
ATOM     11  C   UNL     1       5.514   4.529  18.691  0.00  0.00    +0.000 C 
ATOM     12  O   UNL     1       6.485   4.661  19.434  0.00  0.00    +0.000 OA
ATOM     13  H   UNL     1       8.777   4.332  16.661  0.00  0.00    +0.000 HD
ATOM     14  H   UNL     1       7.944   4.412  18.200  0.00  0.00    +0.000 HD
ATOM     15  H   UNL     1       4.769   4.385  16.751  0.00  0.00    +0.000 HD
ENDBRANCH   1  11
BRANCH   5  16
ATOM     16  N   UNL     1       1.768   7.083  20.531  0.00  0.00    +0.000 N 
ATOM     17  C   UNL     1       1.632   8.183  19.694  0.00  0.00    +0.000 C 
ATOM     18  O   UNL     1       2.016   8.263  18.530  0.00  0.00    +0.000 OA
ATOM     19  H   UNL     1       1.346   7.180  21.452  0.00  0.00    +0.000 HD
BRANCH  17  20
ATOM     20  C   UNL     1       1.013   9.390  20.410  0.00  0.00    +0.000 C 
ATOM     21  C   UNL     1      -0.346   9.767  19.829  0.00  0.00    +0.000 C 
ATOM     22  C   UNL     1      -0.758  11.017  20.557  0.00  0.00    +0.000 A 
ATOM     23  C   UNL     1      -1.354  12.105  19.913  0.00  0.00    +0.000 A 
ATOM     24  C   UNL     1      -1.620  13.272  20.631  0.00  0.00    +0.000 A 
ATOM     25  C   UNL     1      -1.325  13.348  21.995  0.00  0.00    +0.000 A 
ATOM     26  C   UNL     1      -0.772  12.249  22.653  0.00  0.00    +0.000 A 
ATOM     27  C   UNL     1      -0.479  11.091  21.930  0.00  0.00    +0.000 A 
ATOM     28  C   UNL     1       0.165   9.939  22.612  0.00  0.00    +0.000 C 
ATOM     29  O   UNL     1       0.080   9.773  23.820  0.00  0.00    +0.000 OA
ATOM     30  O   UNL     1       0.880   9.095  21.817  0.00  0.00    +0.000 OA
ENDBRANCH  17  20
ENDBRANCH   5  16
TORSDOF 3
ENDMDL
MODEL 4
REMARK VINA RESULT:      -8.8      2.882      8.708
REMARK  Name = 
REMARK  3 active torsions:
REMARK  status: ('A' for Active; 'I' for Inactive)
REMARK    1  A    between atoms: C_5  and  C_7
REMARK    2  A    between atoms: C_11  and  N_12
REMARK    3  A    between atoms: C_13  and  C_15
REMARK                            x       y       z     vdW  Elec       q    Type
REMARK                         _______ _______ _______ _____ _____    ______ ____
ROOT
ATOM      1  C   UNL     1       4.028   4.745  18.767  0.00  0.00    +0.000 A 
ATOM      2  C   UNL     1       3.679   3.562  19.425  0.00  0.00    +0.000 A 
ATOM      3  C   UNL     1       2.682   3.582  20.400  0.00  0.00    +0.000 A 
ATOM      4  C   UNL     1       2.049   4.780  20.741  0.00  0.00    +0.000 A 
ATOM      5  C   UNL     1       2.408   5.977  20.122  0.00  0.00    +0.000 A 
ATOM      6  C   UNL     1       3.388   5.948  19.120  0.00  0.00    +0.000 A 
ENDROOT
BRANCH   1  11
ATOM      7  N   UNL     1       7.469   4.878  16.156  0.00  0.00    +0.000 N 
ATOM      8  C   UNL     1       7.546   4.442  17.430  0.00  0.00    +0.000 C 
ATOM      9  O   UNL     1       8.603   4.070  17.924  0.00  0.00    +0.000 OA
ATOM     10  N   UNL     1       6.386   4.434  18.155  0.00  0.00    +0.000 N 
ATOM     11  C   UNL     1       5.114   4.799  17.743  0.00  0.00    +0.000 C 
ATOM     12  O   UNL     1       4.836   5.141  16.595  0.00  0.00    +0.000 OA
ATOM     13  H   UNL     1       8.296   4.909  15.583  0.00  0.00    +0.000 HD
ATOM     14  H   UNL     1       6.584   5.220  15.789  0.00  0.00    +0.000 HD
ATOM     15  H   UNL     1       6.535   4.083  19.088  0.00  0.00    +0.000 HD
ENDBRANCH   1  11
BRANCH   5  16
ATOM     16  N   UNL     1       1.860   7.231  20.469  0.00  0.00    +0.000 N 
ATOM     17  C   UNL     1       1.591   8.300  19.622  0.00  0.00    +0.000 C 
ATOM     18  O   UNL     1       1.864   8.367  18.427  0.00  0.00    +0.000 OA
ATOM     19  H   UNL     1       1.517   7.332  21.422  0.00  0.00    +0.000 HD
BRANCH  17  20
ATOM     20  C   UNL     1       0.974   9.493  20.364  0.00  0.00    +0.000 C 
ATOM     21  C   UNL     1      -0.381   9.890  19.787  0.00  0.00    +0.000 C 
ATOM     22  C   UNL     1      -0.789  11.124  20.542  0.00  0.00    +0.000 A 
ATOM     23  C   UNL     1      -1.379  12.229  19.922  0.00  0.00    +0.000 A 
ATOM     24  C   UNL     1      -1.642  13.381  20.665  0.00  0.00    +0.000 A 
ATOM     25  C   UNL     1      -1.351  13.424  22.031  0.00  0.00    +0.000 A 
ATOM     26  C   UNL     1      -0.804  12.309  22.666  0.00  0.00    +0.000 A 
ATOM     27  C   UNL     1      -0.514  11.165  21.918  0.00  0.00    +0.000 A 
ATOM     28  C   UNL     1       0.122   9.995  22.575  0.00  0.00    +0.000 C 
ATOM     29  O   UNL     1       0.033   9.802  23.778  0.00  0.00    +0.000 OA
ATOM     30  O   UNL     1       0.836   9.167  21.764  0.00  0.00    +0.000 OA
ENDBRANCH  17  20
ENDBRANCH   5  16
TORSDOF 3
ENDMDL
MODEL 5
REMARK VINA RESULT:      -8.7      3.694      8.661
REMARK  Name = 
REMARK  3 active torsions:
REMARK  status: ('A' for Active; 'I' for Inactive)
REMARK    1  A    between atoms: C_5  and  C_7
REMARK    2  A    between atoms: C_11  and  N_12
REMARK    3  A    between atoms: C_13  and  C_15
REMARK                            x       y       z     vdW  Elec       q    Type
REMARK                         _______ _______ _______ _____ _____    ______ ____
ROOT
ATOM      1  C   UNL     1       6.736   4.931  15.834  0.00  0.00    +0.000 A 
ATOM      2  C   UNL     1       7.606   4.410  16.797  0.00  0.00    +0.000 A 
ATOM      3  C   UNL     1       7.351   4.632  18.150  0.00  0.00    +0.000 A 
ATOM      4  C   UNL     1       6.246   5.390  18.548  0.00  0.00    +0.000 A 
ATOM      5  C   UNL     1       5.387   5.948  17.602  0.00  0.00    +0.000 A 
ATOM      6  C   UNL     1       5.628   5.697  16.244  0.00  0.00    +0.000 A 
ENDROOT
BRANCH   1  11
ATOM      7  N   UNL     1       7.208   4.041  11.631  0.00  0.00    +0.000 N 
ATOM      8  C   UNL     1       6.297   3.414  12.404  0.00  0.00    +0.000 C 
ATOM      9  O   UNL     1       5.559   2.544  11.959  0.00  0.00    +0.000 OA
ATOM     10  N   UNL     1       6.232   3.791  13.718  0.00  0.00    +0.000 N 
ATOM     11  C   UNL     1       6.974   4.764  14.369  0.00  0.00    +0.000 C 
ATOM     12  O   UNL     1       7.791   5.494  13.810  0.00  0.00    +0.000 OA
ATOM     13  H   UNL     1       7.298   3.794  10.660  0.00  0.00    +0.000 HD
ATOM     14  H   UNL     1       7.834   4.728  12.042  0.00  0.00    +0.000 HD
ATOM     15  H   UNL     1       5.519   3.281  14.215  0.00  0.00    +0.000 HD
ENDBRANCH   1  11
BRANCH   5  16
ATOM     16  N   UNL     1       4.296   6.782  17.932  0.00  0.00    +0.000 N 
ATOM     17  C   UNL     1       2.964   6.414  18.079  0.00  0.00    +0.000 C 
ATOM     18  O   UNL     1       2.489   5.303  17.862  0.00  0.00    +0.000 OA
ATOM     19  H   UNL     1       4.518   7.737  18.205  0.00  0.00    +0.000 HD
BRANCH  17  20
ATOM     20  C   UNL     1       2.070   7.599  18.465  0.00  0.00    +0.000 C 
ATOM     21  C   UNL     1       2.093   7.870  19.967  0.00  0.00    +0.000 C 
ATOM     22  C   UNL     1       1.094   8.972  20.188  0.00  0.00    +0.000 A 
ATOM     23  C   UNL     1       0.202   8.977  21.263  0.00  0.00    +0.000 A 
ATOM     24  C   UNL     1      -0.767   9.980  21.354  0.00  0.00    +0.000 A 
ATOM     25  C   UNL     1      -0.827  10.994  20.395  0.00  0.00    +0.000 A 
ATOM     26  C   UNL     1       0.090  11.019  19.344  0.00  0.00    +0.000 A 
ATOM     27  C   UNL     1       1.041  10.002  19.236  0.00  0.00    +0.000 A 
ATOM     28  C   UNL     1       1.982   9.990  18.087  0.00  0.00    +0.000 C 
ATOM     29  O   UNL     1       2.257  11.006  17.467  0.00  0.00    +0.000 OA
ATOM     30  O   UNL     1       2.497   8.776  17.747  0.00  0.00    +0.000 OA
ENDBRANCH  17  20
ENDBRANCH   5  16
TORSDOF 3
ENDMDL
MODEL 6
REMARK VINA RESULT:      -8.7      2.937      5.123
REMARK  Name = 
REMARK  3 active torsions:
REMARK  status: ('A' for Active; 'I' for Inactive)
REMARK    1  A    between atoms: C_5  and  C_7
REMARK    2  A    between atoms: C_11  and  N_12
REMARK    3  A    between atoms: C_13  and  C_15
REMARK                            x       y       z     vdW  Elec       q    Type
REMARK                         _______ _______ _______ _____ _____    ______ ____
ROOT
ATOM      1  C   UNL     1       2.331   6.387  19.955  0.00  0.00    +0.000 A 
ATOM      2  C   UNL     1       1.945   5.357  20.817  0.00  0.00    +0.000 A 
ATOM      3  C   UNL     1       2.382   4.055  20.577  0.00  0.00    +0.000 A 
ATOM      4  C   UNL     1       3.183   3.769  19.469  0.00  0.00    +0.000 A 
ATOM      5  C   UNL     1       3.551   4.777  18.576  0.00  0.00    +0.000 A 
ATOM      6  C   UNL     1       3.136   6.090  18.838  0.00  0.00    +0.000 A 
ENDROOT
BRANCH   1  11
ATOM      7  N   UNL     1       0.837  10.333  20.891  0.00  0.00    +0.000 N 
ATOM      8  C   UNL     1       1.095   9.414  21.844  0.00  0.00    +0.000 C 
ATOM      9  O   UNL     1       0.908   9.643  23.033  0.00  0.00    +0.000 OA
ATOM     10  N   UNL     1       1.579   8.204  21.425  0.00  0.00    +0.000 N 
ATOM     11  C   UNL     1       1.865   7.795  20.133  0.00  0.00    +0.000 C 
ATOM     12  O   UNL     1       1.772   8.522  19.146  0.00  0.00    +0.000 OA
ATOM     13  H   UNL     1       0.475  11.236  21.148  0.00  0.00    +0.000 HD
ATOM     14  H   UNL     1       0.964  10.096  19.911  0.00  0.00    +0.000 HD
ATOM     15  H   UNL     1       1.753   7.586  22.202  0.00  0.00    +0.000 HD
ENDBRANCH   1  11
BRANCH   5  16
ATOM     16  N   UNL     1       4.297   4.546  17.400  0.00  0.00    +0.000 N 
ATOM     17  C   UNL     1       5.668   4.688  17.227  0.00  0.00    +0.000 C 
ATOM     18  O   UNL     1       6.464   5.126  18.054  0.00  0.00    +0.000 OA
ATOM     19  H   UNL     1       3.800   4.120  16.621  0.00  0.00    +0.000 HD
BRANCH  17  20
ATOM     20  C   UNL     1       6.119   4.323  15.807  0.00  0.00    +0.000 C 
ATOM     21  C   UNL     1       4.977   4.416  14.800  0.00  0.00    +0.000 C 
ATOM     22  C   UNL     1       5.551   3.925  13.500  0.00  0.00    +0.000 A 
ATOM     23  C   UNL     1       4.849   3.082  12.635  0.00  0.00    +0.000 A 
ATOM     24  C   UNL     1       5.479   2.584  11.492  0.00  0.00    +0.000 A 
ATOM     25  C   UNL     1       6.793   2.950  11.192  0.00  0.00    +0.000 A 
ATOM     26  C   UNL     1       7.484   3.827  12.028  0.00  0.00    +0.000 A 
ATOM     27  C   UNL     1       6.865   4.304  13.186  0.00  0.00    +0.000 A 
ATOM     28  C   UNL     1       7.616   5.191  14.112  0.00  0.00    +0.000 C 
ATOM     29  O   UNL     1       8.569   5.858  13.737  0.00  0.00    +0.000 OA
ATOM     30  O   UNL     1       7.198   5.195  15.408  0.00  0.00    +0.000 OA
ENDBRANCH  17  20
ENDBRANCH   5  16
TORSDOF 3
ENDMDL
MODEL 7
REMARK VINA RESULT:      -8.6      3.197      8.557
REMARK  Name = 
REMARK  3 active torsions:
REMARK  status: ('A' for Active; 'I' for Inactive)
REMARK    1  A    between atoms: C_5  and  C_7
REMARK    2  A    between atoms: C_11  and  N_12
REMARK    3  A    between atoms: C_13  and  C_15
REMARK                            x       y       z     vdW  Elec       q    Type
REMARK                         _______ _______ _______ _____ _____    ______ ____
ROOT
ATOM      1  C   UNL     1       4.419   5.104  16.925  0.00  0.00    +0.000 A 
ATOM      2  C   UNL     1       4.005   3.804  17.231  0.00  0.00    +0.000 A 
ATOM      3  C   UNL     1       2.902   3.608  18.061  0.00  0.00    +0.000 A 
ATOM      4  C   UNL     1       2.223   4.701  18.607  0.00  0.00    +0.000 A 
ATOM      5  C   UNL     1       2.643   6.005  18.342  0.00  0.00    +0.000 A 
ATOM      6  C   UNL     1       3.732   6.199  17.482  0.00  0.00    +0.000 A 
ENDROOT
BRANCH   1  11
ATOM      7  N   UNL     1       7.794   5.504  14.254  0.00  0.00    +0.000 N 
ATOM      8  C   UNL     1       6.766   4.669  13.999  0.00  0.00    +0.000 C 
ATOM      9  O   UNL     1       6.737   3.965  12.997  0.00  0.00    +0.000 OA
ATOM     10  N   UNL     1       5.747   4.639  14.912  0.00  0.00    +0.000 N 
ATOM     11  C   UNL     1       5.616   5.381  16.076  0.00  0.00    +0.000 C 
ATOM     12  O   UNL     1       6.411   6.250  16.429  0.00  0.00    +0.000 OA
ATOM     13  H   UNL     1       8.569   5.558  13.615  0.00  0.00    +0.000 HD
ATOM     14  H   UNL     1       7.806   6.044  15.116  0.00  0.00    +0.000 HD
ATOM     15  H   UNL     1       5.020   3.999  14.635  0.00  0.00    +0.000 HD
ENDBRANCH   1  11
BRANCH   5  16
ATOM     16  N   UNL     1       2.048   7.149  18.918  0.00  0.00    +0.000 N 
ATOM     17  C   UNL     1       1.870   8.396  18.330  0.00  0.00    +0.000 C 
ATOM     18  O   UNL     1       2.280   8.744  17.226  0.00  0.00    +0.000 OA
ATOM     19  H   UNL     1       1.596   7.024  19.821  0.00  0.00    +0.000 HD
BRANCH  17  20
ATOM     20  C   UNL     1       1.163   9.386  19.263  0.00  0.00    +0.000 C 
ATOM     21  C   UNL     1       1.356   9.028  20.734  0.00  0.00    +0.000 C 
ATOM     22  C   UNL     1       0.519  10.017  21.498  0.00  0.00    +0.000 A 
ATOM     23  C   UNL     1      -0.263   9.654  22.597  0.00  0.00    +0.000 A 
ATOM     24  C   UNL     1      -1.093  10.602  23.199  0.00  0.00    +0.000 A 
ATOM     25  C   UNL     1      -1.120  11.918  22.730  0.00  0.00    +0.000 A 
ATOM     26  C   UNL     1      -0.307  12.298  21.662  0.00  0.00    +0.000 A 
ATOM     27  C   UNL     1       0.502  11.344  21.041  0.00  0.00    +0.000 A 
ATOM     28  C   UNL     1       1.325  11.727  19.865  0.00  0.00    +0.000 C 
ATOM     29  O   UNL     1       1.661  12.884  19.662  0.00  0.00    +0.000 OA
ATOM     30  O   UNL     1       1.659  10.719  19.013  0.00  0.00    +0.000 OA
ENDBRANCH  17  20
ENDBRANCH   5  16
TORSDOF 3
ENDMDL
MODEL 8
REMARK VINA RESULT:      -8.6      1.504      1.920
REMARK  Name = 
REMARK  3 active torsions:
REMARK  status: ('A' for Active; 'I' for Inactive)
REMARK    1  A    between atoms: C_5  and  C_7
REMARK    2  A    between atoms: C_11  and  N_12
REMARK    3  A    between atoms: C_13  and  C_15
REMARK                            x       y       z     vdW  Elec       q    Type
REMARK                         _______ _______ _______ _____ _____    ______ ____
ROOT
ATOM      1  C   UNL     1       0.042  10.336  20.280  0.00  0.00    +0.000 A 
ATOM      2  C   UNL     1      -0.561   9.961  21.484  0.00  0.00    +0.000 A 
ATOM      3  C   UNL     1      -0.133   8.807  22.141  0.00  0.00    +0.000 A 
ATOM      4  C   UNL     1       0.877   8.013  21.592  0.00  0.00    +0.000 A 
ATOM      5  C   UNL     1       1.467   8.351  20.374  0.00  0.00    +0.000 A 
ATOM      6  C   UNL     1       1.056   9.528  19.732  0.00  0.00    +0.000 A 
ENDROOT
BRANCH   1  11
ATOM      7  N   UNL     1      -0.863  14.030  18.226  0.00  0.00    +0.000 N 
ATOM      8  C   UNL     1       0.356  13.770  18.741  0.00  0.00    +0.000 C 
ATOM      9  O   UNL     1       1.276  14.576  18.667  0.00  0.00    +0.000 OA
ATOM     10  N   UNL     1       0.526  12.560  19.357  0.00  0.00    +0.000 N 
ATOM     11  C   UNL     1      -0.397  11.537  19.507  0.00  0.00    +0.000 C 
ATOM     12  O   UNL     1      -1.530  11.559  19.032  0.00  0.00    +0.000 OA
ATOM     13  H   UNL     1      -1.039  14.908  17.768  0.00  0.00    +0.000 HD
ATOM     14  H   UNL     1      -1.616  13.356  18.342  0.00  0.00    +0.000 HD
ATOM     15  H   UNL     1       1.467  12.447  19.700  0.00  0.00    +0.000 HD
ENDBRANCH   1  11
BRANCH   5  16
ATOM     16  N   UNL     1       2.439   7.556  19.729  0.00  0.00    +0.000 N 
ATOM     17  C   UNL     1       2.478   6.169  19.646  0.00  0.00    +0.000 C 
ATOM     18  O   UNL     1       1.709   5.386  20.197  0.00  0.00    +0.000 OA
ATOM     19  H   UNL     1       3.130   8.047  19.166  0.00  0.00    +0.000 HD
BRANCH  17  20
ATOM     20  C   UNL     1       3.683   5.665  18.842  0.00  0.00    +0.000 C 
ATOM     21  C   UNL     1       4.007   6.576  17.662  0.00  0.00    +0.000 C 
ATOM     22  C   UNL     1       5.125   5.891  16.925  0.00  0.00    +0.000 A 
ATOM     23  C   UNL     1       5.176   5.817  15.530  0.00  0.00    +0.000 A 
ATOM     24  C   UNL     1       6.189   5.080  14.914  0.00  0.00    +0.000 A 
ATOM     25  C   UNL     1       7.169   4.445  15.680  0.00  0.00    +0.000 A 
ATOM     26  C   UNL     1       7.150   4.553  17.071  0.00  0.00    +0.000 A 
ATOM     27  C   UNL     1       6.121   5.266  17.691  0.00  0.00    +0.000 A 
ATOM     28  C   UNL     1       6.060   5.335  19.173  0.00  0.00    +0.000 C 
ATOM     29  O   UNL     1       7.051   5.171  19.869  0.00  0.00    +0.000 OA
ATOM     30  O   UNL     1       4.831   5.562  19.712  0.00  0.00    +0.000 OA
ENDBRANCH  17  20
ENDBRANCH   5  16
TORSDOF 3
ENDMDL
MODEL 9
REMARK VINA RESULT:      -8.6      3.224      8.507
REMARK  Name = 
REMARK  3 active torsions:
REMARK  status: ('A' for Active; 'I' for Inactive)
REMARK    1  A    between atoms: C_5  and  C_7
REMARK    2  A    between atoms: C_11  and  N_12
REMARK    3  A    between atoms: C_13  and  C_15
REMARK                            x       y       z     vdW  Elec       q    Type
REMARK                         _______ _______ _______ _____ _____    ______ ____
ROOT
ATOM      1  C   UNL     1       4.340   5.308  17.095  0.00  0.00    +0.000 A 
ATOM      2  C   UNL     1       3.914   4.034  17.484  0.00  0.00    +0.000 A 
ATOM      3  C   UNL     1       2.847   3.904  18.373  0.00  0.00    +0.000 A 
ATOM      4  C   UNL     1       2.217   5.038  18.894  0.00  0.00    +0.000 A 
ATOM      5  C   UNL     1       2.650   6.317  18.546  0.00  0.00    +0.000 A 
ATOM      6  C   UNL     1       3.702   6.444  17.628  0.00  0.00    +0.000 A 
ENDROOT
BRANCH   1  11
ATOM      7  N   UNL     1       7.613   5.486  14.279  0.00  0.00    +0.000 N 
ATOM      8  C   UNL     1       6.598   4.607  14.152  0.00  0.00    +0.000 C 
ATOM      9  O   UNL     1       6.554   3.797  13.233  0.00  0.00    +0.000 OA
ATOM     10  N   UNL     1       5.612   4.655  15.098  0.00  0.00    +0.000 N 
ATOM     11  C   UNL     1       5.501   5.516  16.179  0.00  0.00    +0.000 C 
ATOM     12  O   UNL     1       6.285   6.435  16.408  0.00  0.00    +0.000 OA
ATOM     13  H   UNL     1       8.366   5.486  13.611  0.00  0.00    +0.000 HD
ATOM     14  H   UNL     1       7.641   6.116  15.076  0.00  0.00    +0.000 HD
ATOM     15  H   UNL     1       4.891   3.973  14.918  0.00  0.00    +0.000 HD
ENDBRANCH   1  11
BRANCH   5  16
ATOM     16  N   UNL     1       2.107   7.501  19.090  0.00  0.00    +0.000 N 
ATOM     17  C   UNL     1       1.805   8.680  18.419  0.00  0.00    +0.000 C 
ATOM     18  O   UNL     1       2.040   8.925  17.239  0.00  0.00    +0.000 OA
ATOM     19  H   UNL     1       1.795   7.458  20.058  0.00  0.00    +0.000 HD
BRANCH  17  20
ATOM     20  C   UNL     1       1.207   9.744  19.347  0.00  0.00    +0.000 C 
ATOM     21  C   UNL     1      -0.238  10.075  18.985  0.00  0.00    +0.000 C 
ATOM     22  C   UNL     1      -0.633  11.198  19.904  0.00  0.00    +0.000 A 
ATOM     23  C   UNL     1      -1.377  12.299  19.475  0.00  0.00    +0.000 A 
ATOM     24  C   UNL     1      -1.623  13.354  20.357  0.00  0.00    +0.000 A 
ATOM     25  C   UNL     1      -1.159  13.298  21.674  0.00  0.00    +0.000 A 
ATOM     26  C   UNL     1      -0.454  12.181  22.121  0.00  0.00    +0.000 A 
ATOM     27  C   UNL     1      -0.183  11.138  21.233  0.00  0.00    +0.000 A 
ATOM     28  C   UNL     1       0.618   9.972  21.686  0.00  0.00    +0.000 C 
ATOM     29  O   UNL     1       0.702   9.665  22.865  0.00  0.00    +0.000 OA
ATOM     30  O   UNL     1       1.277   9.284  20.713  0.00  0.00    +0.000 OA
ENDBRANCH  17  20
ENDBRANCH   5  16
TORSDOF 3
ENDMDL
