MODEL 1
REMARK VINA RESULT:      -8.3      0.000      0.000
REMARK  Name = 
REMARK  6 active torsions:
REMARK  status: ('A' for Active; 'I' for Inactive)
REMARK    1  A    between atoms: C_5  and  C_6
REMARK    2  A    between atoms: C_9  and  C_10
REMARK    3  A    between atoms: C_10  and  S_11
REMARK    4  A    between atoms: S_11  and  C_12
REMARK    5  A    between atoms: C_15  and  C_16
REMARK    6  A    between atoms: N_23  and  C_24
REMARK                            x       y       z     vdW  Elec       q    Type
REMARK                         _______ _______ _______ _____ _____    ______ ____
ROOT
ATOM      1  C   UNL     1       6.103   5.421  17.961  0.00  0.00    +0.000 A 
ATOM      2  N   UNL     1       6.632   4.410  18.610  0.00  0.00    +0.000 NA
ATOM      3  N   UNL     1       5.602   3.676  19.151  0.00  0.00    +0.000 NA
ATOM      4  C   UNL     1       4.449   4.264  18.855  0.00  0.00    +0.000 A 
ATOM      5  N   UNL     1       4.736   5.321  18.005  0.00  0.00    +0.000 N 
ENDROOT
BRANCH   4   6
ATOM      6  C   UNL     1       3.133   3.805  19.316  0.00  0.00    +0.000 A 
ATOM      7  C   UNL     1       2.677   4.185  20.589  0.00  0.00    +0.000 A 
ATOM      8  C   UNL     1       1.432   3.757  21.071  0.00  0.00    +0.000 A 
ATOM      9  C   UNL     1       0.621   2.938  20.288  0.00  0.00    +0.000 A 
ATOM     10  C   UNL     1       1.040   2.578  19.013  0.00  0.00    +0.000 A 
ATOM     11  C   UNL     1       2.268   3.030  18.531  0.00  0.00    +0.000 A 
ATOM     12  F   UNL     1       2.575   2.725  17.263  0.00  0.00    +0.000 F 
ENDBRANCH   4   6
BRANCH   5  13
ATOM     13  C   UNL     1       3.775   6.165  17.339  0.00  0.00    +0.000 C 
ATOM     14  C   UNL     1       3.578   7.612  17.714  0.00  0.00    +0.000 C 
ATOM     15  C   UNL     1       2.446   6.622  17.866  0.00  0.00    +0.000 C 
ENDBRANCH   5  13
BRANCH   1  16
ATOM     16  S   UNL     1       6.979   6.714  17.213  0.00  0.00    +0.000 S 
BRANCH  16  17
ATOM     17  C   UNL     1       8.063   7.227  18.590  0.00  0.00    +0.000 C 
BRANCH  17  21
ATOM     18  C   UNL     1       9.167  10.638  18.598  0.00  0.00    +0.000 A 
ATOM     19  N   UNL     1       8.238  10.694  17.629  0.00  0.00    +0.000 NA
ATOM     20  O   UNL     1       7.748   9.395  17.556  0.00  0.00    +0.000 OA
ATOM     21  C   UNL     1       8.424   8.667  18.493  0.00  0.00    +0.000 A 
ATOM     22  N   UNL     1       9.323   9.377  19.142  0.00  0.00    +0.000 NA
BRANCH  18  27
ATOM     23  F   UNL     1      12.095  15.113  20.284  0.00  0.00    +0.000 F 
ATOM     24  C   UNL     1      11.394  14.041  19.892  0.00  0.00    +0.000 A 
ATOM     25  C   UNL     1      12.056  12.843  19.648  0.00  0.00    +0.000 A 
ATOM     26  C   UNL     1      11.322  11.725  19.233  0.00  0.00    +0.000 A 
ATOM     27  C   UNL     1       9.929  11.799  19.057  0.00  0.00    +0.000 A 
ATOM     28  C   UNL     1       9.288  13.021  19.314  0.00  0.00    +0.000 A 
ATOM     29  C   UNL     1      10.018  14.140  19.730  0.00  0.00    +0.000 A 
ENDBRANCH  18  27
ENDBRANCH  17  21
ENDBRANCH  16  17
ENDBRANCH   1  16
TORSDOF 6
ENDMDL
MODEL 2
REMARK VINA RESULT:      -8.2      1.902      2.326
REMARK  Name = 
REMARK  6 active torsions:
REMARK  status: ('A' for Active; 'I' for Inactive)
REMARK    1  A    between atoms: C_5  and  C_6
REMARK    2  A    between atoms: C_9  and  C_10
REMARK    3  A    between atoms: C_10  and  S_11
REMARK    4  A    between atoms: S_11  and  C_12
REMARK    5  A    between atoms: C_15  and  C_16
REMARK    6  A    between atoms: N_23  and  C_24
REMARK                            x       y       z     vdW  Elec       q    Type
REMARK                         _______ _______ _______ _____ _____    ______ ____
ROOT
ATOM      1  C   UNL     1       6.863   5.883  18.285  0.00  0.00    +0.000 A 
ATOM      2  N   UNL     1       6.914   5.521  19.546  0.00  0.00    +0.000 NA
ATOM      3  N   UNL     1       5.803   4.751  19.804  0.00  0.00    +0.000 NA
ATOM      4  C   UNL     1       5.063   4.677  18.704  0.00  0.00    +0.000 A 
ATOM      5  N   UNL     1       5.773   5.302  17.691  0.00  0.00    +0.000 N 
ENDROOT
BRANCH   4   6
ATOM      6  C   UNL     1       3.767   3.993  18.613  0.00  0.00    +0.000 A 
ATOM      7  C   UNL     1       3.677   2.636  18.962  0.00  0.00    +0.000 A 
ATOM      8  C   UNL     1       2.461   1.943  18.877  0.00  0.00    +0.000 A 
ATOM      9  C   UNL     1       1.312   2.598  18.438  0.00  0.00    +0.000 A 
ATOM     10  C   UNL     1       1.373   3.948  18.119  0.00  0.00    +0.000 A 
ATOM     11  C   UNL     1       2.581   4.636  18.232  0.00  0.00    +0.000 A 
ATOM     12  F   UNL     1       2.556   5.955  17.998  0.00  0.00    +0.000 F 
ENDBRANCH   4   6
BRANCH   5  13
ATOM     13  C   UNL     1       5.403   5.356  16.298  0.00  0.00    +0.000 C 
ATOM     14  C   UNL     1       5.207   4.113  15.467  0.00  0.00    +0.000 C 
ATOM     15  C   UNL     1       6.287   5.108  15.111  0.00  0.00    +0.000 C 
ENDBRANCH   5  13
BRANCH   1  16
ATOM     16  S   UNL     1       7.960   6.969  17.499  0.00  0.00    +0.000 S 
BRANCH  16  17
ATOM     17  C   UNL     1       7.163   8.572  17.859  0.00  0.00    +0.000 C 
BRANCH  17  21
ATOM     18  C   UNL     1       9.450  11.309  18.220  0.00  0.00    +0.000 A 
ATOM     19  N   UNL     1       9.848  10.534  19.243  0.00  0.00    +0.000 NA
ATOM     20  O   UNL     1       9.004   9.431  19.178  0.00  0.00    +0.000 OA
ATOM     21  C   UNL     1       8.169   9.636  18.117  0.00  0.00    +0.000 A 
ATOM     22  N   UNL     1       8.386  10.785  17.510  0.00  0.00    +0.000 NA
BRANCH  18  27
ATOM     23  F   UNL     1      11.865  16.166  16.799  0.00  0.00    +0.000 F 
ATOM     24  C   UNL     1      11.293  15.006  17.148  0.00  0.00    +0.000 A 
ATOM     25  C   UNL     1      11.962  13.813  16.904  0.00  0.00    +0.000 A 
ATOM     26  C   UNL     1      11.361  12.601  17.265  0.00  0.00    +0.000 A 
ATOM     27  C   UNL     1      10.090  12.576  17.867  0.00  0.00    +0.000 A 
ATOM     28  C   UNL     1       9.440  13.798  18.105  0.00  0.00    +0.000 A 
ATOM     29  C   UNL     1      10.040  15.009  17.747  0.00  0.00    +0.000 A 
ENDBRANCH  18  27
ENDBRANCH  17  21
ENDBRANCH  16  17
ENDBRANCH   1  16
TORSDOF 6
ENDMDL
MODEL 3
REMARK VINA RESULT:      -8.0      0.889      1.140
REMARK  Name = 
REMARK  6 active torsions:
REMARK  status: ('A' for Active; 'I' for Inactive)
REMARK    1  A    between atoms: C_5  and  C_6
REMARK    2  A    between atoms: C_9  and  C_10
REMARK    3  A    between atoms: C_10  and  S_11
REMARK    4  A    between atoms: S_11  and  C_12
REMARK    5  A    between atoms: C_15  and  C_16
REMARK    6  A    between atoms: N_23  and  C_24
REMARK                            x       y       z     vdW  Elec       q    Type
REMARK                         _______ _______ _______ _____ _____    ______ ____
ROOT
ATOM      1  C   UNL     1       6.309   6.012  18.125  0.00  0.00    +0.000 A 
ATOM      2  N   UNL     1       6.951   5.106  18.824  0.00  0.00    +0.000 NA
ATOM      3  N   UNL     1       6.015   4.252  19.361  0.00  0.00    +0.000 NA
ATOM      4  C   UNL     1       4.802   4.666  19.011  0.00  0.00    +0.000 A 
ATOM      5  N   UNL     1       4.969   5.725  18.133  0.00  0.00    +0.000 N 
ENDROOT
BRANCH   4   6
ATOM      6  C   UNL     1       3.547   4.043  19.451  0.00  0.00    +0.000 A 
ATOM      7  C   UNL     1       2.853   4.587  20.544  0.00  0.00    +0.000 A 
ATOM      8  C   UNL     1       1.659   4.015  21.002  0.00  0.00    +0.000 A 
ATOM      9  C   UNL     1       1.137   2.885  20.375  0.00  0.00    +0.000 A 
ATOM     10  C   UNL     1       1.792   2.351  19.272  0.00  0.00    +0.000 A 
ATOM     11  C   UNL     1       2.966   2.943  18.806  0.00  0.00    +0.000 A 
ATOM     12  F   UNL     1       3.500   2.439  17.686  0.00  0.00    +0.000 F 
ENDBRANCH   4   6
BRANCH   5  13
ATOM     13  C   UNL     1       3.924   6.407  17.410  0.00  0.00    +0.000 C 
ATOM     14  C   UNL     1       3.340   7.714  17.882  0.00  0.00    +0.000 C 
ATOM     15  C   UNL     1       2.469   6.485  17.772  0.00  0.00    +0.000 C 
ENDBRANCH   5  13
BRANCH   1  16
ATOM     16  S   UNL     1       7.024   7.391  17.357  0.00  0.00    +0.000 S 
BRANCH  16  17
ATOM     17  C   UNL     1       8.363   7.777  18.536  0.00  0.00    +0.000 C 
BRANCH  17  21
ATOM     18  C   UNL     1       9.160  11.242  18.996  0.00  0.00    +0.000 A 
ATOM     19  N   UNL     1       8.500  11.306  17.828  0.00  0.00    +0.000 NA
ATOM     20  O   UNL     1       8.147   9.987  17.568  0.00  0.00    +0.000 OA
ATOM     21  C   UNL     1       8.623   9.240  18.607  0.00  0.00    +0.000 A 
ATOM     22  N   UNL     1       9.274   9.959  19.498  0.00  0.00    +0.000 NA
BRANCH  18  27
ATOM     23  F   UNL     1      11.252  15.689  21.694  0.00  0.00    +0.000 F 
ATOM     24  C   UNL     1      10.744  14.634  21.045  0.00  0.00    +0.000 A 
ATOM     25  C   UNL     1       9.710  13.908  21.623  0.00  0.00    +0.000 A 
ATOM     26  C   UNL     1       9.184  12.801  20.945  0.00  0.00    +0.000 A 
ATOM     27  C   UNL     1       9.691  12.414  19.692  0.00  0.00    +0.000 A 
ATOM     28  C   UNL     1      10.734  13.168  19.132  0.00  0.00    +0.000 A 
ATOM     29  C   UNL     1      11.260  14.275  19.806  0.00  0.00    +0.000 A 
ENDBRANCH  18  27
ENDBRANCH  17  21
ENDBRANCH  16  17
ENDBRANCH   1  16
TORSDOF 6
ENDMDL
MODEL 4
REMARK VINA RESULT:      -8.0      6.201      8.457
REMARK  Name = 
REMARK  6 active torsions:
REMARK  status: ('A' for Active; 'I' for Inactive)
REMARK    1  A    between atoms: C_5  and  C_6
REMARK    2  A    between atoms: C_9  and  C_10
REMARK    3  A    between atoms: C_10  and  S_11
REMARK    4  A    between atoms: S_11  and  C_12
REMARK    5  A    between atoms: C_15  and  C_16
REMARK    6  A    between atoms: N_23  and  C_24
REMARK                            x       y       z     vdW  Elec       q    Type
REMARK                         _______ _______ _______ _____ _____    ______ ____
ROOT
ATOM      1  C   UNL     1       2.234   7.481  19.051  0.00  0.00    +0.000 A 
ATOM      2  N   UNL     1       2.559   7.754  17.808  0.00  0.00    +0.000 NA
ATOM      3  N   UNL     1       2.110   9.025  17.530  0.00  0.00    +0.000 NA
ATOM      4  C   UNL     1       1.484   9.506  18.597  0.00  0.00    +0.000 A 
ATOM      5  N   UNL     1       1.644   8.581  19.617  0.00  0.00    +0.000 N 
ENDROOT
BRANCH   4   6
ATOM      6  C   UNL     1       0.814  10.812  18.656  0.00  0.00    +0.000 A 
ATOM      7  C   UNL     1       1.574  11.965  18.910  0.00  0.00    +0.000 A 
ATOM      8  C   UNL     1       0.971  13.228  18.986  0.00  0.00    +0.000 A 
ATOM      9  C   UNL     1      -0.406  13.360  18.812  0.00  0.00    +0.000 A 
ATOM     10  C   UNL     1      -1.169  12.234  18.528  0.00  0.00    +0.000 A 
ATOM     11  C   UNL     1      -0.557  10.985  18.427  0.00  0.00    +0.000 A 
ATOM     12  F   UNL     1      -1.331   9.954  18.061  0.00  0.00    +0.000 F 
ENDBRANCH   4   6
BRANCH   5  13
ATOM     13  C   UNL     1       1.229   8.742  20.988  0.00  0.00    +0.000 C 
ATOM     14  C   UNL     1      -0.162   8.393  21.455  0.00  0.00    +0.000 C 
ATOM     15  C   UNL     1       0.341   9.814  21.550  0.00  0.00    +0.000 C 
ENDBRANCH   5  13
BRANCH   1  16
ATOM     16  S   UNL     1       2.458   5.957  19.843  0.00  0.00    +0.000 S 
BRANCH  16  17
ATOM     17  C   UNL     1       4.246   5.700  19.582  0.00  0.00    +0.000 C 
BRANCH  17  21
ATOM     18  C   UNL     1       5.117   4.360  16.373  0.00  0.00    +0.000 A 
ATOM     19  N   UNL     1       4.278   3.405  16.807  0.00  0.00    +0.000 NA
ATOM     20  O   UNL     1       3.884   3.848  18.064  0.00  0.00    +0.000 OA
ATOM     21  C   UNL     1       4.519   5.038  18.278  0.00  0.00    +0.000 A 
ATOM     22  N   UNL     1       5.307   5.384  17.281  0.00  0.00    +0.000 NA
BRANCH  18  27
ATOM     23  F   UNL     1       7.603   4.216  11.349  0.00  0.00    +0.000 F 
ATOM     24  C   UNL     1       7.004   4.260  12.546  0.00  0.00    +0.000 A 
ATOM     25  C   UNL     1       7.590   4.982  13.578  0.00  0.00    +0.000 A 
ATOM     26  C   UNL     1       6.964   5.023  14.831  0.00  0.00    +0.000 A 
ATOM     27  C   UNL     1       5.756   4.340  15.057  0.00  0.00    +0.000 A 
ATOM     28  C   UNL     1       5.186   3.621  13.994  0.00  0.00    +0.000 A 
ATOM     29  C   UNL     1       5.808   3.581  12.742  0.00  0.00    +0.000 A 
ENDBRANCH  18  27
ENDBRANCH  17  21
ENDBRANCH  16  17
ENDBRANCH   1  16
TORSDOF 6
ENDMDL
MODEL 5
REMARK VINA RESULT:      -7.9      1.179      1.522
REMARK  Name = 
REMARK  6 active torsions:
REMARK  status: ('A' for Active; 'I' for Inactive)
REMARK    1  A    between atoms: C_5  and  C_6
REMARK    2  A    between atoms: C_9  and  C_10
REMARK    3  A    between atoms: C_10  and  S_11
REMARK    4  A    between atoms: S_11  and  C_12
REMARK    5  A    between atoms: C_15  and  C_16
REMARK    6  A    between atoms: N_23  and  C_24
REMARK                            x       y       z     vdW  Elec       q    Type
REMARK                         _______ _______ _______ _____ _____    ______ ____
ROOT
ATOM      1  C   UNL     1       6.515   5.808  18.346  0.00  0.00    +0.000 A 
ATOM      2  N   UNL     1       6.787   5.349  19.545  0.00  0.00    +0.000 NA
ATOM      3  N   UNL     1       5.720   4.579  19.949  0.00  0.00    +0.000 NA
ATOM      4  C   UNL     1       4.788   4.602  19.003  0.00  0.00    +0.000 A 
ATOM      5  N   UNL     1       5.318   5.291  17.924  0.00  0.00    +0.000 N 
ENDROOT
BRANCH   4   6
ATOM      6  C   UNL     1       3.477   3.947  19.105  0.00  0.00    +0.000 A 
ATOM      7  C   UNL     1       2.473   4.536  19.890  0.00  0.00    +0.000 A 
ATOM      8  C   UNL     1       1.212   3.936  20.023  0.00  0.00    +0.000 A 
ATOM      9  C   UNL     1       0.936   2.734  19.374  0.00  0.00    +0.000 A 
ATOM     10  C   UNL     1       1.906   2.154  18.568  0.00  0.00    +0.000 A 
ATOM     11  C   UNL     1       3.148   2.770  18.419  0.00  0.00    +0.000 A 
ATOM     12  F   UNL     1       4.008   2.211  17.558  0.00  0.00    +0.000 F 
ENDBRANCH   4   6
BRANCH   5  13
ATOM     13  C   UNL     1       4.699   5.459  16.632  0.00  0.00    +0.000 C 
ATOM     14  C   UNL     1       5.051   4.589  15.452  0.00  0.00    +0.000 C 
ATOM     15  C   UNL     1       5.305   6.078  15.407  0.00  0.00    +0.000 C 
ENDBRANCH   5  13
BRANCH   1  16
ATOM     16  S   UNL     1       7.480   6.934  17.451  0.00  0.00    +0.000 S 
BRANCH  16  17
ATOM     17  C   UNL     1       8.437   7.705  18.800  0.00  0.00    +0.000 C 
BRANCH  17  21
ATOM     18  C   UNL     1       9.176  11.197  18.456  0.00  0.00    +0.000 A 
ATOM     19  N   UNL     1       8.162  11.084  17.582  0.00  0.00    +0.000 NA
ATOM     20  O   UNL     1       7.805   9.742  17.652  0.00  0.00    +0.000 OA
ATOM     21  C   UNL     1       8.636   9.161  18.566  0.00  0.00    +0.000 A 
ATOM     22  N   UNL     1       9.512  10.005  19.070  0.00  0.00    +0.000 NA
BRANCH  18  27
ATOM     23  F   UNL     1      11.700  16.066  19.620  0.00  0.00    +0.000 F 
ATOM     24  C   UNL     1      11.107  14.898  19.338  0.00  0.00    +0.000 A 
ATOM     25  C   UNL     1      10.669  14.648  18.044  0.00  0.00    +0.000 A 
ATOM     26  C   UNL     1      10.045  13.429  17.753  0.00  0.00    +0.000 A 
ATOM     27  C   UNL     1       9.853  12.459  18.753  0.00  0.00    +0.000 A 
ATOM     28  C   UNL     1      10.309  12.738  20.051  0.00  0.00    +0.000 A 
ATOM     29  C   UNL     1      10.935  13.955  20.343  0.00  0.00    +0.000 A 
ENDBRANCH  18  27
ENDBRANCH  17  21
ENDBRANCH  16  17
ENDBRANCH   1  16
TORSDOF 6
ENDMDL
MODEL 6
REMARK VINA RESULT:      -7.9      6.881      9.132
REMARK  Name = 
REMARK  6 active torsions:
REMARK  status: ('A' for Active; 'I' for Inactive)
REMARK    1  A    between atoms: C_5  and  C_6
REMARK    2  A    between atoms: C_9  and  C_10
REMARK    3  A    between atoms: C_10  and  S_11
REMARK    4  A    between atoms: S_11  and  C_12
REMARK    5  A    between atoms: C_15  and  C_16
REMARK    6  A    between atoms: N_23  and  C_24
REMARK                            x       y       z     vdW  Elec       q    Type
REMARK                         _______ _______ _______ _____ _____    ______ ____
ROOT
ATOM      1  C   UNL     1       2.286   7.559  19.170  0.00  0.00    +0.000 A 
ATOM      2  N   UNL     1       2.322   8.269  18.066  0.00  0.00    +0.000 NA
ATOM      3  N   UNL     1       3.252   7.693  17.230  0.00  0.00    +0.000 NA
ATOM      4  C   UNL     1       3.803   6.654  17.847  0.00  0.00    +0.000 A 
ATOM      5  N   UNL     1       3.125   6.483  19.044  0.00  0.00    +0.000 N 
ENDROOT
BRANCH   4   6
ATOM      6  C   UNL     1       4.884   5.829  17.292  0.00  0.00    +0.000 A 
ATOM      7  C   UNL     1       6.217   6.238  17.460  0.00  0.00    +0.000 A 
ATOM      8  C   UNL     1       7.278   5.487  16.935  0.00  0.00    +0.000 A 
ATOM      9  C   UNL     1       7.023   4.311  16.231  0.00  0.00    +0.000 A 
ATOM     10  C   UNL     1       5.713   3.873  16.083  0.00  0.00    +0.000 A 
ATOM     11  C   UNL     1       4.665   4.613  16.631  0.00  0.00    +0.000 A 
ATOM     12  F   UNL     1       3.434   4.093  16.534  0.00  0.00    +0.000 F 
ENDBRANCH   4   6
BRANCH   5  13
ATOM     13  C   UNL     1       3.309   5.402  19.981  0.00  0.00    +0.000 C 
ATOM     14  C   UNL     1       2.874   3.991  19.678  0.00  0.00    +0.000 C 
ATOM     15  C   UNL     1       2.261   4.748  20.832  0.00  0.00    +0.000 C 
ENDBRANCH   5  13
BRANCH   1  16
ATOM     16  S   UNL     1       1.372   7.944  20.589  0.00  0.00    +0.000 S 
BRANCH  16  17
ATOM     17  C   UNL     1       0.711   9.583  20.132  0.00  0.00    +0.000 C 
BRANCH  17  21
ATOM     18  C   UNL     1      -1.025  11.399  22.690  0.00  0.00    +0.000 A 
ATOM     19  N   UNL     1      -0.453  10.436  23.432  0.00  0.00    +0.000 NA
ATOM     20  O   UNL     1       0.253   9.673  22.509  0.00  0.00    +0.000 OA
ATOM     21  C   UNL     1       0.047  10.245  21.286  0.00  0.00    +0.000 A 
ATOM     22  N   UNL     1      -0.749  11.293  21.339  0.00  0.00    +0.000 NA
BRANCH  18  27
ATOM     23  F   UNL     1      -4.135  15.504  24.905  0.00  0.00    +0.000 F 
ATOM     24  C   UNL     1      -3.396  14.526  24.366  0.00  0.00    +0.000 A 
ATOM     25  C   UNL     1      -3.973  13.285  24.125  0.00  0.00    +0.000 A 
ATOM     26  C   UNL     1      -3.196  12.263  23.566  0.00  0.00    +0.000 A 
ATOM     27  C   UNL     1      -1.843  12.475  23.249  0.00  0.00    +0.000 A 
ATOM     28  C   UNL     1      -1.288  13.740  23.500  0.00  0.00    +0.000 A 
ATOM     29  C   UNL     1      -2.062  14.763  24.057  0.00  0.00    +0.000 A 
ENDBRANCH  18  27
ENDBRANCH  17  21
ENDBRANCH  16  17
ENDBRANCH   1  16
TORSDOF 6
ENDMDL
MODEL 7
REMARK VINA RESULT:      -7.9      1.497      1.804
REMARK  Name = 
REMARK  6 active torsions:
REMARK  status: ('A' for Active; 'I' for Inactive)
REMARK    1  A    between atoms: C_5  and  C_6
REMARK    2  A    between atoms: C_9  and  C_10
REMARK    3  A    between atoms: C_10  and  S_11
REMARK    4  A    between atoms: S_11  and  C_12
REMARK    5  A    between atoms: C_15  and  C_16
REMARK    6  A    between atoms: N_23  and  C_24
REMARK                            x       y       z     vdW  Elec       q    Type
REMARK                         _______ _______ _______ _____ _____    ______ ____
ROOT
ATOM      1  C   UNL     1       6.692   5.563  18.391  0.00  0.00    +0.000 A 
ATOM      2  N   UNL     1       7.007   5.276  19.633  0.00  0.00    +0.000 NA
ATOM      3  N   UNL     1       5.914   4.673  20.212  0.00  0.00    +0.000 NA
ATOM      4  C   UNL     1       4.926   4.627  19.327  0.00  0.00    +0.000 A 
ATOM      5  N   UNL     1       5.433   5.092  18.124  0.00  0.00    +0.000 N 
ENDROOT
BRANCH   4   6
ATOM      6  C   UNL     1       3.579   4.111  19.603  0.00  0.00    +0.000 A 
ATOM      7  C   UNL     1       2.569   5.001  20.005  0.00  0.00    +0.000 A 
ATOM      8  C   UNL     1       1.274   4.546  20.290  0.00  0.00    +0.000 A 
ATOM      9  C   UNL     1       0.966   3.192  20.181  0.00  0.00    +0.000 A 
ATOM     10  C   UNL     1       1.943   2.301  19.753  0.00  0.00    +0.000 A 
ATOM     11  C   UNL     1       3.222   2.765  19.446  0.00  0.00    +0.000 A 
ATOM     12  F   UNL     1       4.092   1.874  18.953  0.00  0.00    +0.000 F 
ENDBRANCH   4   6
BRANCH   5  13
ATOM     13  C   UNL     1       4.744   5.107  16.857  0.00  0.00    +0.000 C 
ATOM     14  C   UNL     1       4.208   3.852  16.216  0.00  0.00    +0.000 C 
ATOM     15  C   UNL     1       5.277   4.665  15.525  0.00  0.00    +0.000 C 
ENDBRANCH   5  13
BRANCH   1  16
ATOM     16  S   UNL     1       7.678   6.449  17.276  0.00  0.00    +0.000 S 
BRANCH  16  17
ATOM     17  C   UNL     1       6.921   8.105  17.398  0.00  0.00    +0.000 C 
BRANCH  17  21
ATOM     18  C   UNL     1       9.135  10.756  18.363  0.00  0.00    +0.000 A 
ATOM     19  N   UNL     1       9.517   9.803  19.230  0.00  0.00    +0.000 NA
ATOM     20  O   UNL     1       8.699   8.721  18.923  0.00  0.00    +0.000 OA
ATOM     21  C   UNL     1       7.895   9.115  17.893  0.00  0.00    +0.000 A 
ATOM     22  N   UNL     1       8.105  10.363  17.528  0.00  0.00    +0.000 NA
BRANCH  18  27
ATOM     23  F   UNL     1      11.465  15.843  18.013  0.00  0.00    +0.000 F 
ATOM     24  C   UNL     1      10.916  14.625  18.104  0.00  0.00    +0.000 A 
ATOM     25  C   UNL     1      11.383  13.602  17.287  0.00  0.00    +0.000 A 
ATOM     26  C   UNL     1      10.804  12.330  17.380  0.00  0.00    +0.000 A 
ATOM     27  C   UNL     1       9.757  12.077  18.285  0.00  0.00    +0.000 A 
ATOM     28  C   UNL     1       9.309  13.129  19.099  0.00  0.00    +0.000 A 
ATOM     29  C   UNL     1       9.887  14.400  19.009  0.00  0.00    +0.000 A 
ENDBRANCH  18  27
ENDBRANCH  17  21
ENDBRANCH  16  17
ENDBRANCH   1  16
TORSDOF 6
ENDMDL
MODEL 8
REMARK VINA RESULT:      -7.8      1.445      1.963
REMARK  Name = 
REMARK  6 active torsions:
REMARK  status: ('A' for Active; 'I' for Inactive)
REMARK    1  A    between atoms: C_5  and  C_6
REMARK    2  A    between atoms: C_9  and  C_10
REMARK    3  A    between atoms: C_10  and  S_11
REMARK    4  A    between atoms: S_11  and  C_12
REMARK    5  A    between atoms: C_15  and  C_16
REMARK    6  A    between atoms: N_23  and  C_24
REMARK                            x       y       z     vdW  Elec       q    Type
REMARK                         _______ _______ _______ _____ _____    ______ ____
ROOT
ATOM      1  C   UNL     1       6.556   5.837  18.233  0.00  0.00    +0.000 A 
ATOM      2  N   UNL     1       6.680   5.476  19.489  0.00  0.00    +0.000 NA
ATOM      3  N   UNL     1       5.618   4.656  19.794  0.00  0.00    +0.000 NA
ATOM      4  C   UNL     1       4.834   4.549  18.728  0.00  0.00    +0.000 A 
ATOM      5  N   UNL     1       5.469   5.206  17.686  0.00  0.00    +0.000 N 
ENDROOT
BRANCH   4   6
ATOM      6  C   UNL     1       3.567   3.807  18.693  0.00  0.00    +0.000 A 
ATOM      7  C   UNL     1       3.558   2.443  19.028  0.00  0.00    +0.000 A 
ATOM      8  C   UNL     1       2.372   1.696  18.995  0.00  0.00    +0.000 A 
ATOM      9  C   UNL     1       1.173   2.301  18.623  0.00  0.00    +0.000 A 
ATOM     10  C   UNL     1       1.156   3.656  18.319  0.00  0.00    +0.000 A 
ATOM     11  C   UNL     1       2.336   4.398  18.381  0.00  0.00    +0.000 A 
ATOM     12  F   UNL     1       2.238   5.717  18.166  0.00  0.00    +0.000 F 
ENDBRANCH   4   6
BRANCH   5  13
ATOM     13  C   UNL     1       5.034   5.245  16.311  0.00  0.00    +0.000 C 
ATOM     14  C   UNL     1       5.213   4.075  15.377  0.00  0.00    +0.000 C 
ATOM     15  C   UNL     1       5.893   5.393  15.090  0.00  0.00    +0.000 C 
ENDBRANCH   5  13
BRANCH   1  16
ATOM     16  S   UNL     1       7.566   6.972  17.402  0.00  0.00    +0.000 S 
BRANCH  16  17
ATOM     17  C   UNL     1       8.433   7.745  18.810  0.00  0.00    +0.000 C 
BRANCH  17  21
ATOM     18  C   UNL     1       9.208  11.232  18.494  0.00  0.00    +0.000 A 
ATOM     19  N   UNL     1       8.190  11.137  17.622  0.00  0.00    +0.000 NA
ATOM     20  O   UNL     1       7.820   9.798  17.680  0.00  0.00    +0.000 OA
ATOM     21  C   UNL     1       8.647   9.200  18.587  0.00  0.00    +0.000 A 
ATOM     22  N   UNL     1       9.532  10.031  19.097  0.00  0.00    +0.000 NA
BRANCH  18  27
ATOM     23  F   UNL     1      11.805  16.043  19.734  0.00  0.00    +0.000 F 
ATOM     24  C   UNL     1      11.191  14.893  19.429  0.00  0.00    +0.000 A 
ATOM     25  C   UNL     1      10.142  14.898  18.518  0.00  0.00    +0.000 A 
ATOM     26  C   UNL     1       9.499  13.694  18.205  0.00  0.00    +0.000 A 
ATOM     27  C   UNL     1       9.897  12.484  18.801  0.00  0.00    +0.000 A 
ATOM     28  C   UNL     1      10.963  12.510  19.715  0.00  0.00    +0.000 A 
ATOM     29  C   UNL     1      11.608  13.711  20.029  0.00  0.00    +0.000 A 
ENDBRANCH  18  27
ENDBRANCH  17  21
ENDBRANCH  16  17
ENDBRANCH   1  16
TORSDOF 6
ENDMDL
MODEL 9
REMARK VINA RESULT:      -7.7      1.444      1.531
REMARK  Name = 
REMARK  6 active torsions:
REMARK  status: ('A' for Active; 'I' for Inactive)
REMARK    1  A    between atoms: C_5  and  C_6
REMARK    2  A    between atoms: C_9  and  C_10
REMARK    3  A    between atoms: C_10  and  S_11
REMARK    4  A    between atoms: S_11  and  C_12
REMARK    5  A    between atoms: C_15  and  C_16
REMARK    6  A    between atoms: N_23  and  C_24
REMARK                            x       y       z     vdW  Elec       q    Type
REMARK                         _______ _______ _______ _____ _____    ______ ____
ROOT
ATOM      1  C   UNL     1       5.981   6.184  18.060  0.00  0.00    +0.000 A 
ATOM      2  N   UNL     1       6.631   5.204  18.644  0.00  0.00    +0.000 NA
ATOM      3  N   UNL     1       5.702   4.292  19.088  0.00  0.00    +0.000 NA
ATOM      4  C   UNL     1       4.485   4.740  18.802  0.00  0.00    +0.000 A 
ATOM      5  N   UNL     1       4.641   5.894  18.049  0.00  0.00    +0.000 N 
ENDROOT
BRANCH   4   6
ATOM      6  C   UNL     1       3.235   4.067  19.179  0.00  0.00    +0.000 A 
ATOM      7  C   UNL     1       2.718   4.249  20.472  0.00  0.00    +0.000 A 
ATOM      8  C   UNL     1       1.535   3.615  20.875  0.00  0.00    +0.000 A 
ATOM      9  C   UNL     1       0.849   2.784  19.992  0.00  0.00    +0.000 A 
ATOM     10  C   UNL     1       1.327   2.617  18.698  0.00  0.00    +0.000 A 
ATOM     11  C   UNL     1       2.490   3.274  18.297  0.00  0.00    +0.000 A 
ATOM     12  F   UNL     1       2.850   3.146  17.012  0.00  0.00    +0.000 F 
ENDBRANCH   4   6
BRANCH   5  13
ATOM     13  C   UNL     1       3.587   6.651  17.421  0.00  0.00    +0.000 C 
ATOM     14  C   UNL     1       3.274   8.073  17.812  0.00  0.00    +0.000 C 
ATOM     15  C   UNL     1       2.241   6.986  17.993  0.00  0.00    +0.000 C 
ENDBRANCH   5  13
BRANCH   1  16
ATOM     16  S   UNL     1       6.685   7.643  17.449  0.00  0.00    +0.000 S 
BRANCH  16  17
ATOM     17  C   UNL     1       8.267   7.661  18.359  0.00  0.00    +0.000 C 
BRANCH  17  21
ATOM     18  C   UNL     1       9.381  11.061  18.589  0.00  0.00    +0.000 A 
ATOM     19  N   UNL     1       9.450  10.703  19.882  0.00  0.00    +0.000 NA
ATOM     20  O   UNL     1       9.030   9.378  19.888  0.00  0.00    +0.000 OA
ATOM     21  C   UNL     1       8.747   9.049  18.593  0.00  0.00    +0.000 A 
ATOM     22  N   UNL     1       8.922  10.054  17.760  0.00  0.00    +0.000 NA
BRANCH  18  27
ATOM     23  F   UNL     1      10.844  16.101  16.616  0.00  0.00    +0.000 F 
ATOM     24  C   UNL     1      10.501  14.899  17.096  0.00  0.00    +0.000 A 
ATOM     25  C   UNL     1      11.330  13.808  16.866  0.00  0.00    +0.000 A 
ATOM     26  C   UNL     1      10.966  12.551  17.366  0.00  0.00    +0.000 A 
ATOM     27  C   UNL     1       9.774  12.379  18.091  0.00  0.00    +0.000 A 
ATOM     28  C   UNL     1       8.958  13.500  18.311  0.00  0.00    +0.000 A 
ATOM     29  C   UNL     1       9.320  14.757  17.815  0.00  0.00    +0.000 A 
ENDBRANCH  18  27
ENDBRANCH  17  21
ENDBRANCH  16  17
ENDBRANCH   1  16
TORSDOF 6
ENDMDL
