MODEL 1
REMARK VINA RESULT:      -9.6      0.000      0.000
REMARK  Name = 
REMARK  5 active torsions:
REMARK  status: ('A' for Active; 'I' for Inactive)
REMARK    1  A    between atoms: C_2  and  C_3
REMARK    2  A    between atoms: C_3  and  C_4
REMARK    3  A    between atoms: C_6  and  C_7
REMARK    4  A    between atoms: N_21  and  C_22
REMARK    5  A    between atoms: C_26  and  N_27
REMARK                            x       y       z     vdW  Elec       q    Type
REMARK                         _______ _______ _______ _____ _____    ______ ____
ROOT
ATOM      1  C   UNL     1       3.649   3.369  19.946  0.00  0.00    +0.000 C 
ATOM      2  S   UNL     1       4.876   4.482  19.222  0.00  0.00    +0.000 S 
ATOM      3  C   UNL     1       4.785   3.633  17.696  0.00  0.00    +0.000 C 
ATOM      4  N   UNL     1       3.878   2.716  17.604  0.00  0.00    +0.000 NA
ATOM      5  C   UNL     1       3.139   2.572  18.759  0.00  0.00    +0.000 C 
ATOM      6  O   UNL     1       2.128   1.879  18.840  0.00  0.00    +0.000 OA
ENDROOT
BRANCH   3   7
ATOM      7  C   UNL     1       5.704   4.062  16.608  0.00  0.00    +0.000 A 
ATOM      8  C   UNL     1       5.475   3.555  15.382  0.00  0.00    +0.000 A 
ATOM      9  C   UNL     1       6.258   4.007  14.241  0.00  0.00    +0.000 A 
ATOM     10  C   UNL     1       6.085   3.491  12.955  0.00  0.00    +0.000 A 
ATOM     11  C   UNL     1       6.824   4.013  11.884  0.00  0.00    +0.000 A 
ATOM     12  C   UNL     1       7.732   5.054  12.092  0.00  0.00    +0.000 A 
ATOM     13  C   UNL     1       7.915   5.567  13.372  0.00  0.00    +0.000 A 
ATOM     14  C   UNL     1       7.179   5.032  14.427  0.00  0.00    +0.000 A 
ATOM     15  O   UNL     1       7.424   5.558  15.704  0.00  0.00    +0.000 OA
ATOM     16  C   UNL     1       6.822   5.014  16.831  0.00  0.00    +0.000 A 
ATOM     17  O   UNL     1       7.228   5.309  17.950  0.00  0.00    +0.000 OA
ENDBRANCH   3   7
BRANCH   1  18
ATOM     18  C   UNL     1       2.542   4.084  20.707  0.00  0.00    +0.000 C 
BRANCH  18  20
ATOM     19  O   UNL     1       1.524   5.209  18.873  0.00  0.00    +0.000 OA
ATOM     20  C   UNL     1       2.022   5.317  19.990  0.00  0.00    +0.000 C 
ATOM     21  N   UNL     1       2.141   6.483  20.723  0.00  0.00    +0.000 N 
ATOM     22  H   UNL     1       2.592   6.418  21.634  0.00  0.00    +0.000 HD
BRANCH  21  23
ATOM     23  C   UNL     1       1.680   7.767  20.354  0.00  0.00    +0.000 A 
ATOM     24  C   UNL     1       1.845   8.314  19.077  0.00  0.00    +0.000 A 
ATOM     25  C   UNL     1       1.369   9.594  18.773  0.00  0.00    +0.000 A 
ATOM     26  C   UNL     1       0.712  10.345  19.743  0.00  0.00    +0.000 A 
ATOM     27  C   UNL     1       0.529   9.799  21.018  0.00  0.00    +0.000 A 
ATOM     28  C   UNL     1       1.011   8.517  21.330  0.00  0.00    +0.000 A 
BRANCH  27  29
ATOM     29  N   UNL     1      -0.182  10.575  22.039  0.00  0.00    +0.000 N 
ATOM     30  O   UNL     1      -1.003  11.421  21.654  0.00  0.00    +0.000 OA
ATOM     31  O   UNL     1       0.075  10.339  23.226  0.00  0.00    +0.000 OA
ENDBRANCH  27  29
ENDBRANCH  21  23
ENDBRANCH  18  20
ENDBRANCH   1  18
TORSDOF 5
ENDMDL
MODEL 2
REMARK VINA RESULT:      -9.4      2.688      9.665
REMARK  Name = 
REMARK  5 active torsions:
REMARK  status: ('A' for Active; 'I' for Inactive)
REMARK    1  A    between atoms: C_2  and  C_3
REMARK    2  A    between atoms: C_3  and  C_4
REMARK    3  A    between atoms: C_6  and  C_7
REMARK    4  A    between atoms: N_21  and  C_22
REMARK    5  A    between atoms: C_26  and  N_27
REMARK                            x       y       z     vdW  Elec       q    Type
REMARK                         _______ _______ _______ _____ _____    ______ ____
ROOT
ATOM      1  C   UNL     1       4.320   5.543  18.091  0.00  0.00    +0.000 C 
ATOM      2  S   UNL     1       3.799   7.272  18.014  0.00  0.00    +0.000 S 
ATOM      3  C   UNL     1       2.632   7.006  19.288  0.00  0.00    +0.000 C 
ATOM      4  N   UNL     1       2.659   5.844  19.856  0.00  0.00    +0.000 NA
ATOM      5  C   UNL     1       3.624   5.011  19.331  0.00  0.00    +0.000 C 
ATOM      6  O   UNL     1       3.932   3.929  19.823  0.00  0.00    +0.000 OA
ENDROOT
BRANCH   3   7
ATOM      7  C   UNL     1       1.745   8.140  19.664  0.00  0.00    +0.000 A 
ATOM      8  C   UNL     1       1.239   8.128  20.911  0.00  0.00    +0.000 A 
ATOM      9  C   UNL     1       0.452   9.254  21.396  0.00  0.00    +0.000 A 
ATOM     10  C   UNL     1      -0.124   9.280  22.668  0.00  0.00    +0.000 A 
ATOM     11  C   UNL     1      -0.816  10.419  23.102  0.00  0.00    +0.000 A 
ATOM     12  C   UNL     1      -0.930  11.536  22.271  0.00  0.00    +0.000 A 
ATOM     13  C   UNL     1      -0.366  11.514  21.000  0.00  0.00    +0.000 A 
ATOM     14  C   UNL     1       0.312  10.371  20.581  0.00  0.00    +0.000 A 
ATOM     15  O   UNL     1       0.833  10.382  19.279  0.00  0.00    +0.000 OA
ATOM     16  C   UNL     1       1.426   9.251  18.734  0.00  0.00    +0.000 A 
ATOM     17  O   UNL     1       1.648   9.192  17.529  0.00  0.00    +0.000 OA
ENDBRANCH   3   7
BRANCH   1  18
ATOM     18  C   UNL     1       5.830   5.355  18.127  0.00  0.00    +0.000 C 
BRANCH  18  20
ATOM     19  O   UNL     1       7.455   6.211  16.614  0.00  0.00    +0.000 OA
ATOM     20  C   UNL     1       6.482   5.478  16.761  0.00  0.00    +0.000 C 
ATOM     21  N   UNL     1       5.901   4.686  15.789  0.00  0.00    +0.000 N 
ATOM     22  H   UNL     1       5.085   4.138  16.059  0.00  0.00    +0.000 HD
BRANCH  21  23
ATOM     23  C   UNL     1       6.332   4.531  14.452  0.00  0.00    +0.000 A 
ATOM     24  C   UNL     1       7.418   5.219  13.902  0.00  0.00    +0.000 A 
ATOM     25  C   UNL     1       7.795   5.024  12.568  0.00  0.00    +0.000 A 
ATOM     26  C   UNL     1       7.093   4.130  11.766  0.00  0.00    +0.000 A 
ATOM     27  C   UNL     1       6.015   3.427  12.313  0.00  0.00    +0.000 A 
ATOM     28  C   UNL     1       5.629   3.623  13.650  0.00  0.00    +0.000 A 
BRANCH  27  29
ATOM     29  N   UNL     1       5.285   2.466  11.481  0.00  0.00    +0.000 N 
ATOM     30  O   UNL     1       5.847   1.395  11.205  0.00  0.00    +0.000 OA
ATOM     31  O   UNL     1       4.147   2.776  11.104  0.00  0.00    +0.000 OA
ENDBRANCH  27  29
ENDBRANCH  21  23
ENDBRANCH  18  20
ENDBRANCH   1  18
TORSDOF 5
ENDMDL
MODEL 3
REMARK VINA RESULT:      -9.3      2.330      8.069
REMARK  Name = 
REMARK  5 active torsions:
REMARK  status: ('A' for Active; 'I' for Inactive)
REMARK    1  A    between atoms: C_2  and  C_3
REMARK    2  A    between atoms: C_3  and  C_4
REMARK    3  A    between atoms: C_6  and  C_7
REMARK    4  A    between atoms: N_21  and  C_22
REMARK    5  A    between atoms: C_26  and  N_27
REMARK                            x       y       z     vdW  Elec       q    Type
REMARK                         _______ _______ _______ _____ _____    ______ ____
ROOT
ATOM      1  C   UNL     1       1.884   2.828  19.851  0.00  0.00    +0.000 C 
ATOM      2  S   UNL     1       1.493   4.373  18.997  0.00  0.00    +0.000 S 
ATOM      3  C   UNL     1       1.701   5.277  20.479  0.00  0.00    +0.000 C 
ATOM      4  N   UNL     1       2.146   4.614  21.496  0.00  0.00    +0.000 NA
ATOM      5  C   UNL     1       2.372   3.284  21.215  0.00  0.00    +0.000 C 
ATOM      6  O   UNL     1       2.942   2.512  21.981  0.00  0.00    +0.000 OA
ENDROOT
BRANCH   3   7
ATOM      7  C   UNL     1       1.415   6.737  20.447  0.00  0.00    +0.000 A 
ATOM      8  C   UNL     1       0.589   7.215  21.396  0.00  0.00    +0.000 A 
ATOM      9  C   UNL     1       0.343   8.647  21.503  0.00  0.00    +0.000 A 
ATOM     10  C   UNL     1      -0.529   9.195  22.446  0.00  0.00    +0.000 A 
ATOM     11  C   UNL     1      -0.674  10.585  22.543  0.00  0.00    +0.000 A 
ATOM     12  C   UNL     1       0.053  11.432  21.704  0.00  0.00    +0.000 A 
ATOM     13  C   UNL     1       0.917  10.894  20.756  0.00  0.00    +0.000 A 
ATOM     14  C   UNL     1       1.044   9.509  20.667  0.00  0.00    +0.000 A 
ATOM     15  O   UNL     1       1.900   9.012  19.674  0.00  0.00    +0.000 OA
ATOM     16  C   UNL     1       2.007   7.648  19.435  0.00  0.00    +0.000 A 
ATOM     17  O   UNL     1       2.553   7.242  18.415  0.00  0.00    +0.000 OA
ENDBRANCH   3   7
BRANCH   1  18
ATOM     18  C   UNL     1       2.892   1.957  19.117  0.00  0.00    +0.000 C 
BRANCH  18  20
ATOM     19  O   UNL     1       5.109   2.734  19.501  0.00  0.00    +0.000 OA
ATOM     20  C   UNL     1       4.157   2.700  18.726  0.00  0.00    +0.000 C 
ATOM     21  N   UNL     1       4.111   3.261  17.464  0.00  0.00    +0.000 N 
ATOM     22  H   UNL     1       3.242   3.163  16.940  0.00  0.00    +0.000 HD
BRANCH  21  23
ATOM     23  C   UNL     1       5.156   3.944  16.800  0.00  0.00    +0.000 A 
ATOM     24  C   UNL     1       5.578   3.643  15.502  0.00  0.00    +0.000 A 
ATOM     25  C   UNL     1       6.621   4.354  14.899  0.00  0.00    +0.000 A 
ATOM     26  C   UNL     1       7.254   5.385  15.587  0.00  0.00    +0.000 A 
ATOM     27  C   UNL     1       6.827   5.702  16.880  0.00  0.00    +0.000 A 
ATOM     28  C   UNL     1       5.784   4.987  17.492  0.00  0.00    +0.000 A 
BRANCH  27  29
ATOM     29  N   UNL     1       7.474   6.802  17.603  0.00  0.00    +0.000 N 
ATOM     30  O   UNL     1       7.964   6.553  18.715  0.00  0.00    +0.000 OA
ATOM     31  O   UNL     1       7.497   7.914  17.061  0.00  0.00    +0.000 OA
ENDBRANCH  27  29
ENDBRANCH  21  23
ENDBRANCH  18  20
ENDBRANCH   1  18
TORSDOF 5
ENDMDL
MODEL 4
REMARK VINA RESULT:      -9.2      1.120      1.255
REMARK  Name = 
REMARK  5 active torsions:
REMARK  status: ('A' for Active; 'I' for Inactive)
REMARK    1  A    between atoms: C_2  and  C_3
REMARK    2  A    between atoms: C_3  and  C_4
REMARK    3  A    between atoms: C_6  and  C_7
REMARK    4  A    between atoms: N_21  and  C_22
REMARK    5  A    between atoms: C_26  and  N_27
REMARK                            x       y       z     vdW  Elec       q    Type
REMARK                         _______ _______ _______ _____ _____    ______ ____
ROOT
ATOM      1  C   UNL     1       3.854   4.552  20.021  0.00  0.00    +0.000 C 
ATOM      2  S   UNL     1       4.080   5.357  18.418  0.00  0.00    +0.000 S 
ATOM      3  C   UNL     1       5.371   4.250  18.013  0.00  0.00    +0.000 C 
ATOM      4  N   UNL     1       5.577   3.282  18.845  0.00  0.00    +0.000 NA
ATOM      5  C   UNL     1       4.722   3.310  19.926  0.00  0.00    +0.000 C 
ATOM      6  O   UNL     1       4.634   2.403  20.749  0.00  0.00    +0.000 OA
ENDROOT
BRANCH   3   7
ATOM      7  C   UNL     1       6.089   4.463  16.727  0.00  0.00    +0.000 A 
ATOM      8  C   UNL     1       5.658   3.756  15.666  0.00  0.00    +0.000 A 
ATOM      9  C   UNL     1       6.232   3.985  14.347  0.00  0.00    +0.000 A 
ATOM     10  C   UNL     1       5.847   3.258  13.219  0.00  0.00    +0.000 A 
ATOM     11  C   UNL     1       6.389   3.568  11.965  0.00  0.00    +0.000 A 
ATOM     12  C   UNL     1       7.313   4.607  11.832  0.00  0.00    +0.000 A 
ATOM     13  C   UNL     1       7.708   5.331  12.952  0.00  0.00    +0.000 A 
ATOM     14  C   UNL     1       7.165   5.004  14.193  0.00  0.00    +0.000 A 
ATOM     15  O   UNL     1       7.620   5.737  15.299  0.00  0.00    +0.000 OA
ATOM     16  C   UNL     1       7.222   5.412  16.588  0.00  0.00    +0.000 A 
ATOM     17  O   UNL     1       7.811   5.887  17.554  0.00  0.00    +0.000 OA
ENDBRANCH   3   7
BRANCH   1  18
ATOM     18  C   UNL     1       2.402   4.242  20.355  0.00  0.00    +0.000 C 
BRANCH  18  20
ATOM     19  O   UNL     1       0.288   5.333  20.394  0.00  0.00    +0.000 OA
ATOM     20  C   UNL     1       1.506   5.468  20.333  0.00  0.00    +0.000 C 
ATOM     21  N   UNL     1       2.195   6.664  20.278  0.00  0.00    +0.000 N 
ATOM     22  H   UNL     1       3.211   6.616  20.216  0.00  0.00    +0.000 HD
BRANCH  21  23
ATOM     23  C   UNL     1       1.641   7.964  20.320  0.00  0.00    +0.000 A 
ATOM     24  C   UNL     1       1.512   8.790  19.199  0.00  0.00    +0.000 A 
ATOM     25  C   UNL     1       0.957  10.070  19.306  0.00  0.00    +0.000 A 
ATOM     26  C   UNL     1       0.516  10.541  20.539  0.00  0.00    +0.000 A 
ATOM     27  C   UNL     1       0.628   9.715  21.663  0.00  0.00    +0.000 A 
ATOM     28  C   UNL     1       1.190   8.431  21.561  0.00  0.00    +0.000 A 
BRANCH  27  29
ATOM     29  N   UNL     1       0.145  10.195  22.961  0.00  0.00    +0.000 N 
ATOM     30  O   UNL     1       0.411   9.515  23.964  0.00  0.00    +0.000 OA
ATOM     31  O   UNL     1      -0.497  11.253  22.983  0.00  0.00    +0.000 OA
ENDBRANCH  27  29
ENDBRANCH  21  23
ENDBRANCH  18  20
ENDBRANCH   1  18
TORSDOF 5
ENDMDL
MODEL 5
REMARK VINA RESULT:      -9.0      1.639      1.964
REMARK  Name = 
REMARK  5 active torsions:
REMARK  status: ('A' for Active; 'I' for Inactive)
REMARK    1  A    between atoms: C_2  and  C_3
REMARK    2  A    between atoms: C_3  and  C_4
REMARK    3  A    between atoms: C_6  and  C_7
REMARK    4  A    between atoms: N_21  and  C_22
REMARK    5  A    between atoms: C_26  and  N_27
REMARK                            x       y       z     vdW  Elec       q    Type
REMARK                         _______ _______ _______ _____ _____    ______ ____
ROOT
ATOM      1  C   UNL     1       3.474   3.201  20.183  0.00  0.00    +0.000 C 
ATOM      2  S   UNL     1       4.713   4.298  19.454  0.00  0.00    +0.000 S 
ATOM      3  C   UNL     1       4.643   3.417  17.945  0.00  0.00    +0.000 C 
ATOM      4  N   UNL     1       3.736   2.500  17.859  0.00  0.00    +0.000 NA
ATOM      5  C   UNL     1       2.980   2.381  19.005  0.00  0.00    +0.000 C 
ATOM      6  O   UNL     1       1.967   1.690  19.086  0.00  0.00    +0.000 OA
ENDROOT
BRANCH   3   7
ATOM      7  C   UNL     1       5.578   3.823  16.861  0.00  0.00    +0.000 A 
ATOM      8  C   UNL     1       5.220   3.514  15.601  0.00  0.00    +0.000 A 
ATOM      9  C   UNL     1       6.023   3.971  14.475  0.00  0.00    +0.000 A 
ATOM     10  C   UNL     1       5.717   3.651  13.151  0.00  0.00    +0.000 A 
ATOM     11  C   UNL     1       6.491   4.174  12.106  0.00  0.00    +0.000 A 
ATOM     12  C   UNL     1       7.568   5.021  12.379  0.00  0.00    +0.000 A 
ATOM     13  C   UNL     1       7.884   5.337  13.696  0.00  0.00    +0.000 A 
ATOM     14  C   UNL     1       7.109   4.802  14.724  0.00  0.00    +0.000 A 
ATOM     15  O   UNL     1       7.488   5.121  16.036  0.00  0.00    +0.000 OA
ATOM     16  C   UNL     1       6.847   4.547  17.126  0.00  0.00    +0.000 A 
ATOM     17  O   UNL     1       7.340   4.633  18.246  0.00  0.00    +0.000 OA
ENDBRANCH   3   7
BRANCH   1  18
ATOM     18  C   UNL     1       2.357   3.933  20.912  0.00  0.00    +0.000 C 
BRANCH  18  20
ATOM     19  O   UNL     1       1.821   5.299  19.039  0.00  0.00    +0.000 OA
ATOM     20  C   UNL     1       1.971   5.247  20.256  0.00  0.00    +0.000 C 
ATOM     21  N   UNL     1       1.790   6.287  21.147  0.00  0.00    +0.000 N 
ATOM     22  H   UNL     1       1.967   6.095  22.132  0.00  0.00    +0.000 HD
BRANCH  21  23
ATOM     23  C   UNL     1       1.359   7.599  20.843  0.00  0.00    +0.000 A 
ATOM     24  C   UNL     1       0.500   8.342  21.659  0.00  0.00    +0.000 A 
ATOM     25  C   UNL     1       0.107   9.636  21.302  0.00  0.00    +0.000 A 
ATOM     26  C   UNL     1       0.574  10.210  20.124  0.00  0.00    +0.000 A 
ATOM     27  C   UNL     1       1.446   9.479  19.311  0.00  0.00    +0.000 A 
ATOM     28  C   UNL     1       1.840   8.177  19.661  0.00  0.00    +0.000 A 
BRANCH  27  29
ATOM     29  N   UNL     1       1.961  10.086  18.079  0.00  0.00    +0.000 N 
ATOM     30  O   UNL     1       2.205   9.333  17.123  0.00  0.00    +0.000 OA
ATOM     31  O   UNL     1       2.120  11.313  18.062  0.00  0.00    +0.000 OA
ENDBRANCH  27  29
ENDBRANCH  21  23
ENDBRANCH  18  20
ENDBRANCH   1  18
TORSDOF 5
ENDMDL
MODEL 6
REMARK VINA RESULT:      -8.9      4.141      7.093
REMARK  Name = 
REMARK  5 active torsions:
REMARK  status: ('A' for Active; 'I' for Inactive)
REMARK    1  A    between atoms: C_2  and  C_3
REMARK    2  A    between atoms: C_3  and  C_4
REMARK    3  A    between atoms: C_6  and  C_7
REMARK    4  A    between atoms: N_21  and  C_22
REMARK    5  A    between atoms: C_26  and  N_27
REMARK                            x       y       z     vdW  Elec       q    Type
REMARK                         _______ _______ _______ _____ _____    ______ ____
ROOT
ATOM      1  C   UNL     1       0.776  10.518  21.213  0.00  0.00    +0.000 C 
ATOM      2  S   UNL     1       0.847   9.522  19.706  0.00  0.00    +0.000 S 
ATOM      3  C   UNL     1       1.506   8.171  20.598  0.00  0.00    +0.000 C 
ATOM      4  N   UNL     1       1.564   8.306  21.883  0.00  0.00    +0.000 NA
ATOM      5  C   UNL     1       1.088   9.525  22.318  0.00  0.00    +0.000 C 
ATOM      6  O   UNL     1       0.900   9.802  23.499  0.00  0.00    +0.000 OA
ENDROOT
BRANCH   3   7
ATOM      7  C   UNL     1       1.891   6.955  19.832  0.00  0.00    +0.000 A 
ATOM      8  C   UNL     1       1.584   5.766  20.382  0.00  0.00    +0.000 A 
ATOM      9  C   UNL     1       1.826   4.531  19.649  0.00  0.00    +0.000 A 
ATOM     10  C   UNL     1       1.557   3.270  20.185  0.00  0.00    +0.000 A 
ATOM     11  C   UNL     1       1.750   2.121  19.406  0.00  0.00    +0.000 A 
ATOM     12  C   UNL     1       2.206   2.227  18.090  0.00  0.00    +0.000 A 
ATOM     13  C   UNL     1       2.484   3.480  17.552  0.00  0.00    +0.000 A 
ATOM     14  C   UNL     1       2.295   4.612  18.343  0.00  0.00    +0.000 A 
ATOM     15  O   UNL     1       2.621   5.849  17.769  0.00  0.00    +0.000 OA
ATOM     16  C   UNL     1       2.572   7.020  18.514  0.00  0.00    +0.000 A 
ATOM     17  O   UNL     1       3.093   8.045  18.086  0.00  0.00    +0.000 OA
ENDBRANCH   3   7
BRANCH   1  18
ATOM     18  C   UNL     1      -0.551  11.237  21.413  0.00  0.00    +0.000 C 
BRANCH  18  20
ATOM     19  O   UNL     1      -0.819  12.818  19.655  0.00  0.00    +0.000 OA
ATOM     20  C   UNL     1      -1.165  11.735  20.117  0.00  0.00    +0.000 C 
ATOM     21  N   UNL     1      -2.070  10.857  19.552  0.00  0.00    +0.000 N 
ATOM     22  H   UNL     1      -2.269   9.998  20.063  0.00  0.00    +0.000 HD
BRANCH  21  23
ATOM     23  C   UNL     1      -2.742  11.009  18.318  0.00  0.00    +0.000 A 
ATOM     24  C   UNL     1      -2.201  10.624  17.087  0.00  0.00    +0.000 A 
ATOM     25  C   UNL     1      -2.916  10.803  15.898  0.00  0.00    +0.000 A 
ATOM     26  C   UNL     1      -4.188  11.365  15.923  0.00  0.00    +0.000 A 
ATOM     27  C   UNL     1      -4.742  11.739  17.152  0.00  0.00    +0.000 A 
ATOM     28  C   UNL     1      -4.027  11.567  18.349  0.00  0.00    +0.000 A 
BRANCH  27  29
ATOM     29  N   UNL     1      -6.092  12.312  17.190  0.00  0.00    +0.000 N 
ATOM     30  O   UNL     1      -6.271  13.405  16.632  0.00  0.00    +0.000 OA
ATOM     31  O   UNL     1      -6.975  11.670  17.772  0.00  0.00    +0.000 OA
ENDBRANCH  27  29
ENDBRANCH  21  23
ENDBRANCH  18  20
ENDBRANCH   1  18
TORSDOF 5
ENDMDL
MODEL 7
REMARK VINA RESULT:      -8.9      2.947     10.225
REMARK  Name = 
REMARK  5 active torsions:
REMARK  status: ('A' for Active; 'I' for Inactive)
REMARK    1  A    between atoms: C_2  and  C_3
REMARK    2  A    between atoms: C_3  and  C_4
REMARK    3  A    between atoms: C_6  and  C_7
REMARK    4  A    between atoms: N_21  and  C_22
REMARK    5  A    between atoms: C_26  and  N_27
REMARK                            x       y       z     vdW  Elec       q    Type
REMARK                         _______ _______ _______ _____ _____    ______ ____
ROOT
ATOM      1  C   UNL     1       2.063   7.313  19.826  0.00  0.00    +0.000 C 
ATOM      2  S   UNL     1       0.982   7.763  21.203  0.00  0.00    +0.000 S 
ATOM      3  C   UNL     1       0.715   9.346  20.513  0.00  0.00    +0.000 C 
ATOM      4  N   UNL     1       1.212   9.549  19.336  0.00  0.00    +0.000 NA
ATOM      5  C   UNL     1       1.881   8.452  18.838  0.00  0.00    +0.000 C 
ATOM      6  O   UNL     1       2.289   8.368  17.683  0.00  0.00    +0.000 OA
ENDROOT
BRANCH   3   7
ATOM      7  C   UNL     1      -0.106  10.313  21.291  0.00  0.00    +0.000 A 
ATOM      8  C   UNL     1      -0.826  11.206  20.586  0.00  0.00    +0.000 A 
ATOM      9  C   UNL     1      -1.740  12.114  21.265  0.00  0.00    +0.000 A 
ATOM     10  C   UNL     1      -2.485  13.082  20.587  0.00  0.00    +0.000 A 
ATOM     11  C   UNL     1      -3.396  13.883  21.287  0.00  0.00    +0.000 A 
ATOM     12  C   UNL     1      -3.570  13.719  22.664  0.00  0.00    +0.000 A 
ATOM     13  C   UNL     1      -2.826  12.763  23.347  0.00  0.00    +0.000 A 
ATOM     14  C   UNL     1      -1.918  11.980  22.637  0.00  0.00    +0.000 A 
ATOM     15  O   UNL     1      -1.165  11.054  23.374  0.00  0.00    +0.000 OA
ATOM     16  C   UNL     1      -0.159  10.308  22.775  0.00  0.00    +0.000 A 
ATOM     17  O   UNL     1       0.650   9.698  23.465  0.00  0.00    +0.000 OA
ENDBRANCH   3   7
BRANCH   1  18
ATOM     18  C   UNL     1       1.760   5.948  19.225  0.00  0.00    +0.000 C 
BRANCH  18  20
ATOM     19  O   UNL     1       2.978   3.947  18.806  0.00  0.00    +0.000 OA
ATOM     20  C   UNL     1       3.007   5.173  18.837  0.00  0.00    +0.000 C 
ATOM     21  N   UNL     1       4.086   5.974  18.513  0.00  0.00    +0.000 N 
ATOM     22  H   UNL     1       3.964   6.982  18.601  0.00  0.00    +0.000 HD
BRANCH  21  23
ATOM     23  C   UNL     1       5.349   5.545  18.045  0.00  0.00    +0.000 A 
ATOM     24  C   UNL     1       6.449   5.318  18.877  0.00  0.00    +0.000 A 
ATOM     25  C   UNL     1       7.676   4.896  18.353  0.00  0.00    +0.000 A 
ATOM     26  C   UNL     1       7.818   4.689  16.984  0.00  0.00    +0.000 A 
ATOM     27  C   UNL     1       6.718   4.900  16.147  0.00  0.00    +0.000 A 
ATOM     28  C   UNL     1       5.486   5.329  16.668  0.00  0.00    +0.000 A 
BRANCH  27  29
ATOM     29  N   UNL     1       6.853   4.662  14.706  0.00  0.00    +0.000 N 
ATOM     30  O   UNL     1       7.684   5.342  14.084  0.00  0.00    +0.000 OA
ATOM     31  O   UNL     1       6.134   3.795  14.194  0.00  0.00    +0.000 OA
ENDBRANCH  27  29
ENDBRANCH  21  23
ENDBRANCH  18  20
ENDBRANCH   1  18
TORSDOF 5
ENDMDL
MODEL 8
REMARK VINA RESULT:      -8.9      2.366      9.332
REMARK  Name = 
REMARK  5 active torsions:
REMARK  status: ('A' for Active; 'I' for Inactive)
REMARK    1  A    between atoms: C_2  and  C_3
REMARK    2  A    between atoms: C_3  and  C_4
REMARK    3  A    between atoms: C_6  and  C_7
REMARK    4  A    between atoms: N_21  and  C_22
REMARK    5  A    between atoms: C_26  and  N_27
REMARK                            x       y       z     vdW  Elec       q    Type
REMARK                         _______ _______ _______ _____ _____    ______ ____
ROOT
ATOM      1  C   UNL     1       4.130   4.919  18.480  0.00  0.00    +0.000 C 
ATOM      2  S   UNL     1       3.825   6.698  18.367  0.00  0.00    +0.000 S 
ATOM      3  C   UNL     1       2.526   6.576  19.531  0.00  0.00    +0.000 C 
ATOM      4  N   UNL     1       2.366   5.422  20.092  0.00  0.00    +0.000 NA
ATOM      5  C   UNL     1       3.269   4.479  19.650  0.00  0.00    +0.000 C 
ATOM      6  O   UNL     1       3.402   3.370  20.161  0.00  0.00    +0.000 OA
ENDROOT
BRANCH   3   7
ATOM      7  C   UNL     1       1.749   7.808  19.833  0.00  0.00    +0.000 A 
ATOM      8  C   UNL     1       1.188   7.889  21.054  0.00  0.00    +0.000 A 
ATOM      9  C   UNL     1       0.504   9.106  21.470  0.00  0.00    +0.000 A 
ATOM     10  C   UNL     1      -0.124   9.232  22.711  0.00  0.00    +0.000 A 
ATOM     11  C   UNL     1      -0.709  10.451  23.081  0.00  0.00    +0.000 A 
ATOM     12  C   UNL     1      -0.666  11.547  22.216  0.00  0.00    +0.000 A 
ATOM     13  C   UNL     1      -0.049  11.426  20.975  0.00  0.00    +0.000 A 
ATOM     14  C   UNL     1       0.521  10.205  20.620  0.00  0.00    +0.000 A 
ATOM     15  O   UNL     1       1.099  10.121  19.345  0.00  0.00    +0.000 OA
ATOM     16  C   UNL     1       1.593   8.918  18.859  0.00  0.00    +0.000 A 
ATOM     17  O   UNL     1       1.862   8.798  17.669  0.00  0.00    +0.000 OA
ENDBRANCH   3   7
BRANCH   1  18
ATOM     18  C   UNL     1       5.598   4.556  18.649  0.00  0.00    +0.000 C 
BRANCH  18  20
ATOM     19  O   UNL     1       7.577   4.402  17.335  0.00  0.00    +0.000 OA
ATOM     20  C   UNL     1       6.352   4.475  17.333  0.00  0.00    +0.000 C 
ATOM     21  N   UNL     1       5.534   4.459  16.219  0.00  0.00    +0.000 N 
ATOM     22  H   UNL     1       4.530   4.543  16.374  0.00  0.00    +0.000 HD
BRANCH  21  23
ATOM     23  C   UNL     1       5.939   4.315  14.872  0.00  0.00    +0.000 A 
ATOM     24  C   UNL     1       5.384   3.383  13.990  0.00  0.00    +0.000 A 
ATOM     25  C   UNL     1       5.829   3.287  12.667  0.00  0.00    +0.000 A 
ATOM     26  C   UNL     1       6.834   4.130  12.204  0.00  0.00    +0.000 A 
ATOM     27  C   UNL     1       7.384   5.076  13.076  0.00  0.00    +0.000 A 
ATOM     28  C   UNL     1       6.944   5.172  14.407  0.00  0.00    +0.000 A 
BRANCH  27  29
ATOM     29  N   UNL     1       8.428   5.983  12.589  0.00  0.00    +0.000 N 
ATOM     30  O   UNL     1       9.470   6.076  13.257  0.00  0.00    +0.000 OA
ATOM     31  O   UNL     1       8.212   6.602  11.540  0.00  0.00    +0.000 OA
ENDBRANCH  27  29
ENDBRANCH  21  23
ENDBRANCH  18  20
ENDBRANCH   1  18
TORSDOF 5
ENDMDL
MODEL 9
REMARK VINA RESULT:      -8.9      3.384      5.738
REMARK  Name = 
REMARK  5 active torsions:
REMARK  status: ('A' for Active; 'I' for Inactive)
REMARK    1  A    between atoms: C_2  and  C_3
REMARK    2  A    between atoms: C_3  and  C_4
REMARK    3  A    between atoms: C_6  and  C_7
REMARK    4  A    between atoms: N_21  and  C_22
REMARK    5  A    between atoms: C_26  and  N_27
REMARK                            x       y       z     vdW  Elec       q    Type
REMARK                         _______ _______ _______ _____ _____    ______ ____
ROOT
ATOM      1  C   UNL     1       1.000   9.811  19.442  0.00  0.00    +0.000 C 
ATOM      2  S   UNL     1       1.583   9.005  17.932  0.00  0.00    +0.000 S 
ATOM      3  C   UNL     1       2.217   7.665  18.859  0.00  0.00    +0.000 C 
ATOM      4  N   UNL     1       1.945   7.665  20.124  0.00  0.00    +0.000 NA
ATOM      5  C   UNL     1       1.194   8.753  20.513  0.00  0.00    +0.000 C 
ATOM      6  O   UNL     1       0.690   8.871  21.627  0.00  0.00    +0.000 OA
ENDROOT
BRANCH   3   7
ATOM      7  C   UNL     1       2.959   6.604  18.127  0.00  0.00    +0.000 A 
ATOM      8  C   UNL     1       4.038   6.993  17.422  0.00  0.00    +0.000 A 
ATOM      9  C   UNL     1       4.884   6.005  16.767  0.00  0.00    +0.000 A 
ATOM     10  C   UNL     1       5.996   6.354  15.997  0.00  0.00    +0.000 A 
ATOM     11  C   UNL     1       6.809   5.355  15.445  0.00  0.00    +0.000 A 
ATOM     12  C   UNL     1       6.519   4.006  15.664  0.00  0.00    +0.000 A 
ATOM     13  C   UNL     1       5.408   3.651  16.423  0.00  0.00    +0.000 A 
ATOM     14  C   UNL     1       4.606   4.656  16.958  0.00  0.00    +0.000 A 
ATOM     15  O   UNL     1       3.478   4.249  17.686  0.00  0.00    +0.000 OA
ATOM     16  C   UNL     1       2.560   5.175  18.163  0.00  0.00    +0.000 A 
ATOM     17  O   UNL     1       1.465   4.803  18.571  0.00  0.00    +0.000 OA
ENDBRANCH   3   7
BRANCH   1  18
ATOM     18  C   UNL     1      -0.432  10.318  19.355  0.00  0.00    +0.000 C 
BRANCH  18  20
ATOM     19  O   UNL     1      -0.378  12.674  19.683  0.00  0.00    +0.000 OA
ATOM     20  C   UNL     1      -0.671  11.582  20.161  0.00  0.00    +0.000 C 
ATOM     21  N   UNL     1      -1.252  11.359  21.395  0.00  0.00    +0.000 N 
ATOM     22  H   UNL     1      -1.425  10.391  21.662  0.00  0.00    +0.000 HD
BRANCH  21  23
ATOM     23  C   UNL     1      -1.660  12.338  22.330  0.00  0.00    +0.000 A 
ATOM     24  C   UNL     1      -0.816  13.335  22.827  0.00  0.00    +0.000 A 
ATOM     25  C   UNL     1      -1.278  14.276  23.754  0.00  0.00    +0.000 A 
ATOM     26  C   UNL     1      -2.598  14.235  24.193  0.00  0.00    +0.000 A 
ATOM     27  C   UNL     1      -3.453  13.250  23.689  0.00  0.00    +0.000 A 
ATOM     28  C   UNL     1      -2.992  12.300  22.762  0.00  0.00    +0.000 A 
BRANCH  27  29
ATOM     29  N   UNL     1      -4.851  13.215  24.129  0.00  0.00    +0.000 N 
ATOM     30  O   UNL     1      -5.531  14.241  23.977  0.00  0.00    +0.000 OA
ATOM     31  O   UNL     1      -5.274  12.162  24.623  0.00  0.00    +0.000 OA
ENDBRANCH  27  29
ENDBRANCH  21  23
ENDBRANCH  18  20
ENDBRANCH   1  18
TORSDOF 5
ENDMDL
