MODEL 1
REMARK VINA RESULT:      -7.9      0.000      0.000
REMARK  Name = 
REMARK  8 active torsions:
REMARK  status: ('A' for Active; 'I' for Inactive)
REMARK    1  A    between atoms: C_1  and  N_2
REMARK    2  A    between atoms: C_6  and  C_7
REMARK    3  A    between atoms: C_7  and  C_8
REMARK    4  A    between atoms: C_8  and  C_9
REMARK    5  A    between atoms: C_13  and  N_14
REMARK    6  A    between atoms: C_18  and  C_19
REMARK    7  A    between atoms: C_19  and  N_20
REMARK    8  A    between atoms: C_22  and  C_23
REMARK                            x       y       z     vdW  Elec       q    Type
REMARK                         _______ _______ _______ _____ _____    ______ ____
ROOT
ATOM      1  C   UNL     1       0.369  10.109  19.946  0.00  0.00    +0.000 A 
ATOM      2  C   UNL     1       0.375   9.671  21.281  0.00  0.00    +0.000 A 
ATOM      3  C   UNL     1       1.023   8.486  21.671  0.00  0.00    +0.000 A 
ATOM      4  C   UNL     1       1.732   7.701  20.751  0.00  0.00    +0.000 A 
ATOM      5  C   UNL     1       1.833   8.111  19.432  0.00  0.00    +0.000 A 
ATOM      6  C   UNL     1       1.095   9.284  19.060  0.00  0.00    +0.000 A 
ENDROOT
BRANCH   5   7
ATOM      7  N   UNL     1       2.675   7.522  18.514  0.00  0.00    +0.000 N 
ATOM      8  C   UNL     1       3.612   8.028  17.439  0.00  0.00    +0.000 C 
ATOM      9  C   UNL     1       4.147   6.692  16.874  0.00  0.00    +0.000 A 
ATOM     10  C   UNL     1       5.273   6.330  16.125  0.00  0.00    +0.000 A 
ATOM     11  C   UNL     1       5.716   4.986  16.195  0.00  0.00    +0.000 A 
ATOM     12  C   UNL     1       5.198   4.181  17.230  0.00  0.00    +0.000 A 
ATOM     13  C   UNL     1       4.110   4.607  17.982  0.00  0.00    +0.000 A 
ATOM     14  C   UNL     1       3.416   5.694  17.511  0.00  0.00    +0.000 A 
ATOM     15  C   UNL     1       2.152   6.262  18.031  0.00  0.00    +0.000 C 
BRANCH  13  16
ATOM     16  C   UNL     1       3.906   4.176  19.410  0.00  0.00    +0.000 C 
ATOM     17  F   UNL     1       2.730   3.525  19.616  0.00  0.00    +0.000 F 
ATOM     18  F   UNL     1       4.870   3.295  19.821  0.00  0.00    +0.000 F 
ATOM     19  F   UNL     1       3.944   5.201  20.299  0.00  0.00    +0.000 F 
ENDBRANCH  13  16
BRANCH  11  20
ATOM     20  C   UNL     1       6.855   4.379  15.407  0.00  0.00    +0.000 C 
BRANCH  20  21
ATOM     21  N   UNL     1       7.647   5.330  14.642  0.00  0.00    +0.000 NA
ATOM     22  H   UNL     1       7.406   5.233  13.655  0.00  0.00    +0.000 HD
ATOM     23  H   UNL     1       8.624   5.039  14.704  0.00  0.00    +0.000 HD
ENDBRANCH  20  21
ENDBRANCH  11  20
ENDBRANCH   5   7
BRANCH   1  24
ATOM     24  C   UNL     1      -0.383  11.490  19.498  0.00  0.00    +0.000 C 
ATOM     25  C   UNL     1      -1.574  11.380  18.498  0.00  0.00    +0.000 C 
ATOM     26  O   UNL     1      -2.493  11.996  19.423  0.00  0.00    +0.000 OA
ATOM     27  C   UNL     1      -1.486  12.044  20.453  0.00  0.00    +0.000 C 
BRANCH  24  28
ATOM     28  C   UNL     1       0.625  12.600  19.145  0.00  0.00    +0.000 C 
BRANCH  28  34
ATOM     29  C   UNL     1      -0.231  15.620  19.547  0.00  0.00    +0.000 C 
ATOM     30  N   UNL     1       0.633  14.841  20.384  0.00  0.00    +0.000 N 
ATOM     31  C   UNL     1       1.319  15.315  21.473  0.00  0.00    +0.000 A 
ATOM     32  N   UNL     1       2.006  14.346  22.011  0.00  0.00    +0.000 NA
ATOM     33  N   UNL     1       1.797  13.216  21.262  0.00  0.00    +0.000 NA
ATOM     34  C   UNL     1       0.987  13.519  20.266  0.00  0.00    +0.000 A 
ENDBRANCH  28  34
ENDBRANCH  24  28
ENDBRANCH   1  24
TORSDOF 7
ENDMDL
MODEL 2
REMARK VINA RESULT:      -7.8      2.157      3.043
REMARK  Name = 
REMARK  8 active torsions:
REMARK  status: ('A' for Active; 'I' for Inactive)
REMARK    1  A    between atoms: C_1  and  N_2
REMARK    2  A    between atoms: C_6  and  C_7
REMARK    3  A    between atoms: C_7  and  C_8
REMARK    4  A    between atoms: C_8  and  C_9
REMARK    5  A    between atoms: C_13  and  N_14
REMARK    6  A    between atoms: C_18  and  C_19
REMARK    7  A    between atoms: C_19  and  N_20
REMARK    8  A    between atoms: C_22  and  C_23
REMARK                            x       y       z     vdW  Elec       q    Type
REMARK                         _______ _______ _______ _____ _____    ______ ____
ROOT
ATOM      1  C   UNL     1       0.548  10.078  20.169  0.00  0.00    +0.000 A 
ATOM      2  C   UNL     1       0.420   9.491  21.440  0.00  0.00    +0.000 A 
ATOM      3  C   UNL     1       0.930   8.212  21.722  0.00  0.00    +0.000 A 
ATOM      4  C   UNL     1       1.629   7.472  20.759  0.00  0.00    +0.000 A 
ATOM      5  C   UNL     1       1.859   8.018  19.507  0.00  0.00    +0.000 A 
ATOM      6  C   UNL     1       1.258   9.292  19.235  0.00  0.00    +0.000 A 
ENDROOT
BRANCH   5   7
ATOM      7  N   UNL     1       2.708   7.459  18.576  0.00  0.00    +0.000 N 
ATOM      8  C   UNL     1       3.655   7.999  17.527  0.00  0.00    +0.000 C 
ATOM      9  C   UNL     1       4.193   6.681  16.922  0.00  0.00    +0.000 A 
ATOM     10  C   UNL     1       5.324   6.343  16.170  0.00  0.00    +0.000 A 
ATOM     11  C   UNL     1       5.764   4.996  16.199  0.00  0.00    +0.000 A 
ATOM     12  C   UNL     1       5.236   4.159  17.202  0.00  0.00    +0.000 A 
ATOM     13  C   UNL     1       4.144   4.561  17.959  0.00  0.00    +0.000 A 
ATOM     14  C   UNL     1       3.455   5.664  17.519  0.00  0.00    +0.000 A 
ATOM     15  C   UNL     1       2.187   6.217  18.047  0.00  0.00    +0.000 C 
BRANCH  13  16
ATOM     16  C   UNL     1       3.926   4.083  19.370  0.00  0.00    +0.000 C 
ATOM     17  F   UNL     1       2.752   3.420  19.543  0.00  0.00    +0.000 F 
ATOM     18  F   UNL     1       4.891   3.193  19.763  0.00  0.00    +0.000 F 
ATOM     19  F   UNL     1       3.950   5.078  20.292  0.00  0.00    +0.000 F 
ENDBRANCH  13  16
BRANCH  11  20
ATOM     20  C   UNL     1       6.909   4.414  15.401  0.00  0.00    +0.000 C 
BRANCH  20  21
ATOM     21  N   UNL     1       7.555   5.343  14.485  0.00  0.00    +0.000 NA
ATOM     22  H   UNL     1       8.073   4.806  13.789  0.00  0.00    +0.000 HD
ATOM     23  H   UNL     1       8.268   5.850  15.011  0.00  0.00    +0.000 HD
ENDBRANCH  20  21
ENDBRANCH  11  20
ENDBRANCH   5   7
BRANCH   1  24
ATOM     24  C   UNL     1      -0.044  11.567  19.846  0.00  0.00    +0.000 C 
ATOM     25  C   UNL     1       0.531  12.771  20.652  0.00  0.00    +0.000 C 
ATOM     26  O   UNL     1       0.974  13.444  19.455  0.00  0.00    +0.000 OA
ATOM     27  C   UNL     1       0.571  12.332  18.633  0.00  0.00    +0.000 C 
BRANCH  24  28
ATOM     28  C   UNL     1      -1.582  11.561  19.750  0.00  0.00    +0.000 C 
BRANCH  28  34
ATOM     29  C   UNL     1      -4.509  11.942  18.608  0.00  0.00    +0.000 C 
ATOM     30  N   UNL     1      -3.435  11.198  18.020  0.00  0.00    +0.000 N 
ATOM     31  C   UNL     1      -3.530  10.435  16.884  0.00  0.00    +0.000 A 
ATOM     32  N   UNL     1      -2.371   9.897  16.622  0.00  0.00    +0.000 NA
ATOM     33  N   UNL     1      -1.495  10.285  17.605  0.00  0.00    +0.000 NA
ATOM     34  C   UNL     1      -2.143  11.051  18.462  0.00  0.00    +0.000 A 
ENDBRANCH  28  34
ENDBRANCH  24  28
ENDBRANCH   1  24
TORSDOF 7
ENDMDL
MODEL 3
REMARK VINA RESULT:      -7.7      2.418      3.462
REMARK  Name = 
REMARK  8 active torsions:
REMARK  status: ('A' for Active; 'I' for Inactive)
REMARK    1  A    between atoms: C_1  and  N_2
REMARK    2  A    between atoms: C_6  and  C_7
REMARK    3  A    between atoms: C_7  and  C_8
REMARK    4  A    between atoms: C_8  and  C_9
REMARK    5  A    between atoms: C_13  and  N_14
REMARK    6  A    between atoms: C_18  and  C_19
REMARK    7  A    between atoms: C_19  and  N_20
REMARK    8  A    between atoms: C_22  and  C_23
REMARK                            x       y       z     vdW  Elec       q    Type
REMARK                         _______ _______ _______ _____ _____    ______ ____
ROOT
ATOM      1  C   UNL     1      -0.168  10.047  19.869  0.00  0.00    +0.000 A 
ATOM      2  C   UNL     1      -0.012   9.837  21.249  0.00  0.00    +0.000 A 
ATOM      3  C   UNL     1       0.849   8.849  21.758  0.00  0.00    +0.000 A 
ATOM      4  C   UNL     1       1.629   8.050  20.911  0.00  0.00    +0.000 A 
ATOM      5  C   UNL     1       1.584   8.252  19.542  0.00  0.00    +0.000 A 
ATOM      6  C   UNL     1       0.638   9.216  19.060  0.00  0.00    +0.000 A 
ENDROOT
BRANCH   5   7
ATOM      7  N   UNL     1       2.462   7.665  18.656  0.00  0.00    +0.000 N 
ATOM      8  C   UNL     1       3.489   8.173  17.668  0.00  0.00    +0.000 C 
ATOM      9  C   UNL     1       4.006   6.838  17.082  0.00  0.00    +0.000 A 
ATOM     10  C   UNL     1       5.164   6.458  16.394  0.00  0.00    +0.000 A 
ATOM     11  C   UNL     1       5.546   5.094  16.434  0.00  0.00    +0.000 A 
ATOM     12  C   UNL     1       4.926   4.271  17.396  0.00  0.00    +0.000 A 
ATOM     13  C   UNL     1       3.809   4.713  18.093  0.00  0.00    +0.000 A 
ATOM     14  C   UNL     1       3.193   5.848  17.625  0.00  0.00    +0.000 A 
ATOM     15  C   UNL     1       1.921   6.450  18.085  0.00  0.00    +0.000 C 
BRANCH  13  16
ATOM     16  C   UNL     1       3.490   4.234  19.484  0.00  0.00    +0.000 C 
ATOM     17  F   UNL     1       4.357   3.293  19.945  0.00  0.00    +0.000 F 
ATOM     18  F   UNL     1       3.554   5.249  20.402  0.00  0.00    +0.000 F 
ATOM     19  F   UNL     1       2.245   3.708  19.607  0.00  0.00    +0.000 F 
ENDBRANCH  13  16
BRANCH  11  20
ATOM     20  C   UNL     1       6.710   4.470  15.697  0.00  0.00    +0.000 C 
BRANCH  20  21
ATOM     21  N   UNL     1       7.529   5.404  14.939  0.00  0.00    +0.000 NA
ATOM     22  H   UNL     1       7.004   5.702  14.116  0.00  0.00    +0.000 HD
ATOM     23  H   UNL     1       8.327   4.886  14.569  0.00  0.00    +0.000 HD
ENDBRANCH  20  21
ENDBRANCH  11  20
ENDBRANCH   5   7
BRANCH   1  24
ATOM     24  C   UNL     1      -1.169  11.198  19.282  0.00  0.00    +0.000 C 
ATOM     25  C   UNL     1      -1.295  12.531  20.081  0.00  0.00    +0.000 C 
ATOM     26  O   UNL     1      -0.854  13.322  18.958  0.00  0.00    +0.000 OA
ATOM     27  C   UNL     1      -0.602  12.139  18.173  0.00  0.00    +0.000 C 
BRANCH  24  28
ATOM     28  C   UNL     1      -2.522  10.607  18.841  0.00  0.00    +0.000 C 
BRANCH  28  34
ATOM     29  C   UNL     1      -4.855  11.926  17.158  0.00  0.00    +0.000 C 
ATOM     30  N   UNL     1      -3.796  11.092  16.673  0.00  0.00    +0.000 N 
ATOM     31  C   UNL     1      -3.669  10.644  15.383  0.00  0.00    +0.000 A 
ATOM     32  N   UNL     1      -2.594   9.913  15.279  0.00  0.00    +0.000 NA
ATOM     33  N   UNL     1      -2.006   9.852  16.517  0.00  0.00    +0.000 NA
ATOM     34  C   UNL     1      -2.743  10.544  17.364  0.00  0.00    +0.000 A 
ENDBRANCH  28  34
ENDBRANCH  24  28
ENDBRANCH   1  24
TORSDOF 7
ENDMDL
MODEL 4
REMARK VINA RESULT:      -7.7      1.692      2.019
REMARK  Name = 
REMARK  8 active torsions:
REMARK  status: ('A' for Active; 'I' for Inactive)
REMARK    1  A    between atoms: C_1  and  N_2
REMARK    2  A    between atoms: C_6  and  C_7
REMARK    3  A    between atoms: C_7  and  C_8
REMARK    4  A    between atoms: C_8  and  C_9
REMARK    5  A    between atoms: C_13  and  N_14
REMARK    6  A    between atoms: C_18  and  C_19
REMARK    7  A    between atoms: C_19  and  N_20
REMARK    8  A    between atoms: C_22  and  C_23
REMARK                            x       y       z     vdW  Elec       q    Type
REMARK                         _______ _______ _______ _____ _____    ______ ____
ROOT
ATOM      1  C   UNL     1       0.512   9.934  20.273  0.00  0.00    +0.000 A 
ATOM      2  C   UNL     1       0.448   9.341  21.546  0.00  0.00    +0.000 A 
ATOM      3  C   UNL     1       1.004   8.076  21.804  0.00  0.00    +0.000 A 
ATOM      4  C   UNL     1       1.687   7.358  20.813  0.00  0.00    +0.000 A 
ATOM      5  C   UNL     1       1.854   7.913  19.555  0.00  0.00    +0.000 A 
ATOM      6  C   UNL     1       1.208   9.170  19.311  0.00  0.00    +0.000 A 
ENDROOT
BRANCH   5   7
ATOM      7  N   UNL     1       2.682   7.380  18.592  0.00  0.00    +0.000 N 
ATOM      8  C   UNL     1       3.572   7.948  17.508  0.00  0.00    +0.000 C 
ATOM      9  C   UNL     1       4.124   6.647  16.879  0.00  0.00    +0.000 A 
ATOM     10  C   UNL     1       5.235   6.342  16.085  0.00  0.00    +0.000 A 
ATOM     11  C   UNL     1       5.714   5.009  16.093  0.00  0.00    +0.000 A 
ATOM     12  C   UNL     1       5.248   4.155  17.113  0.00  0.00    +0.000 A 
ATOM     13  C   UNL     1       4.174   4.524  17.912  0.00  0.00    +0.000 A 
ATOM     14  C   UNL     1       3.439   5.609  17.501  0.00  0.00    +0.000 A 
ATOM     15  C   UNL     1       2.177   6.124  18.079  0.00  0.00    +0.000 C 
BRANCH  13  16
ATOM     16  C   UNL     1       4.024   4.038  19.328  0.00  0.00    +0.000 C 
ATOM     17  F   UNL     1       2.781   3.564  19.610  0.00  0.00    +0.000 F 
ATOM     18  F   UNL     1       4.867   2.993  19.602  0.00  0.00    +0.000 F 
ATOM     19  F   UNL     1       4.300   4.984  20.262  0.00  0.00    +0.000 F 
ENDBRANCH  13  16
BRANCH  11  20
ATOM     20  C   UNL     1       6.844   4.461  15.250  0.00  0.00    +0.000 C 
BRANCH  20  21
ATOM     21  N   UNL     1       7.648   5.466  14.572  0.00  0.00    +0.000 NA
ATOM     22  H   UNL     1       7.201   5.695  13.684  0.00  0.00    +0.000 HD
ATOM     23  H   UNL     1       8.535   5.031  14.315  0.00  0.00    +0.000 HD
ENDBRANCH  20  21
ENDBRANCH  11  20
ENDBRANCH   5   7
BRANCH   1  24
ATOM     24  C   UNL     1      -0.133  11.407  19.977  0.00  0.00    +0.000 C 
ATOM     25  C   UNL     1       0.349  12.172  18.708  0.00  0.00    +0.000 C 
ATOM     26  O   UNL     1      -0.985  12.244  18.165  0.00  0.00    +0.000 OA
ATOM     27  C   UNL     1      -1.511  11.448  19.245  0.00  0.00    +0.000 C 
BRANCH  24  28
ATOM     28  C   UNL     1      -0.177  12.276  21.249  0.00  0.00    +0.000 C 
BRANCH  28  34
ATOM     29  C   UNL     1      -2.358  14.554  20.980  0.00  0.00    +0.000 C 
ATOM     30  N   UNL     1      -2.412  13.390  21.816  0.00  0.00    +0.000 N 
ATOM     31  C   UNL     1      -3.400  13.115  22.726  0.00  0.00    +0.000 A 
ATOM     32  N   UNL     1      -3.147  11.979  23.313  0.00  0.00    +0.000 NA
ATOM     33  N   UNL     1      -1.965  11.498  22.809  0.00  0.00    +0.000 NA
ATOM     34  C   UNL     1      -1.508  12.361  21.922  0.00  0.00    +0.000 A 
ENDBRANCH  28  34
ENDBRANCH  24  28
ENDBRANCH   1  24
TORSDOF 7
ENDMDL
MODEL 5
REMARK VINA RESULT:      -7.7      1.943      2.890
REMARK  Name = 
REMARK  8 active torsions:
REMARK  status: ('A' for Active; 'I' for Inactive)
REMARK    1  A    between atoms: C_1  and  N_2
REMARK    2  A    between atoms: C_6  and  C_7
REMARK    3  A    between atoms: C_7  and  C_8
REMARK    4  A    between atoms: C_8  and  C_9
REMARK    5  A    between atoms: C_13  and  N_14
REMARK    6  A    between atoms: C_18  and  C_19
REMARK    7  A    between atoms: C_19  and  N_20
REMARK    8  A    between atoms: C_22  and  C_23
REMARK                            x       y       z     vdW  Elec       q    Type
REMARK                         _______ _______ _______ _____ _____    ______ ____
ROOT
ATOM      1  C   UNL     1       0.850  10.116  20.399  0.00  0.00    +0.000 A 
ATOM      2  C   UNL     1       0.522   9.397  21.561  0.00  0.00    +0.000 A 
ATOM      3  C   UNL     1       0.789   8.022  21.684  0.00  0.00    +0.000 A 
ATOM      4  C   UNL     1       1.435   7.307  20.667  0.00  0.00    +0.000 A 
ATOM      5  C   UNL     1       1.855   7.966  19.524  0.00  0.00    +0.000 A 
ATOM      6  C   UNL     1       1.496   9.350  19.405  0.00  0.00    +0.000 A 
ENDROOT
BRANCH   5   7
ATOM      7  N   UNL     1       2.675   7.397  18.574  0.00  0.00    +0.000 N 
ATOM      8  C   UNL     1       3.587   7.925  17.488  0.00  0.00    +0.000 C 
ATOM      9  C   UNL     1       4.108   6.600  16.882  0.00  0.00    +0.000 A 
ATOM     10  C   UNL     1       5.216   6.253  16.100  0.00  0.00    +0.000 A 
ATOM     11  C   UNL     1       5.659   4.908  16.132  0.00  0.00    +0.000 A 
ATOM     12  C   UNL     1       5.165   4.083  17.161  0.00  0.00    +0.000 A 
ATOM     13  C   UNL     1       4.096   4.493  17.947  0.00  0.00    +0.000 A 
ATOM     14  C   UNL     1       3.392   5.589  17.515  0.00  0.00    +0.000 A 
ATOM     15  C   UNL     1       2.140   6.147  18.077  0.00  0.00    +0.000 C 
BRANCH  13  16
ATOM     16  C   UNL     1       3.924   4.032  19.370  0.00  0.00    +0.000 C 
ATOM     17  F   UNL     1       3.925   5.049  20.273  0.00  0.00    +0.000 F 
ATOM     18  F   UNL     1       2.726   3.396  19.560  0.00  0.00    +0.000 F 
ATOM     19  F   UNL     1       4.873   3.151  19.776  0.00  0.00    +0.000 F 
ENDBRANCH  13  16
BRANCH  11  20
ATOM     20  C   UNL     1       6.780   4.318  15.305  0.00  0.00    +0.000 C 
BRANCH  20  21
ATOM     21  N   UNL     1       6.356   3.652  14.082  0.00  0.00    +0.000 NA
ATOM     22  H   UNL     1       5.651   4.231  13.625  0.00  0.00    +0.000 HD
ATOM     23  H   UNL     1       5.863   2.799  14.350  0.00  0.00    +0.000 HD
ENDBRANCH  20  21
ENDBRANCH  11  20
ENDBRANCH   5   7
BRANCH   1  24
ATOM     24  C   UNL     1       0.540  11.715  20.262  0.00  0.00    +0.000 C 
ATOM     25  C   UNL     1      -0.082  12.446  21.491  0.00  0.00    +0.000 C 
ATOM     26  O   UNL     1       1.021  13.372  21.579  0.00  0.00    +0.000 OA
ATOM     27  C   UNL     1       1.725  12.697  20.519  0.00  0.00    +0.000 C 
BRANCH  24  28
ATOM     28  C   UNL     1      -0.151  12.049  18.925  0.00  0.00    +0.000 C 
BRANCH  28  34
ATOM     29  C   UNL     1      -1.717   9.946  17.154  0.00  0.00    +0.000 C 
ATOM     30  N   UNL     1      -2.273  10.903  18.065  0.00  0.00    +0.000 N 
ATOM     31  C   UNL     1      -3.612  11.131  18.254  0.00  0.00    +0.000 A 
ATOM     32  N   UNL     1      -3.773  12.061  19.154  0.00  0.00    +0.000 NA
ATOM     33  N   UNL     1      -2.529  12.477  19.557  0.00  0.00    +0.000 NA
ATOM     34  C   UNL     1      -1.623  11.796  18.882  0.00  0.00    +0.000 A 
ENDBRANCH  28  34
ENDBRANCH  24  28
ENDBRANCH   1  24
TORSDOF 7
ENDMDL
MODEL 6
REMARK VINA RESULT:      -7.6      2.524      3.950
REMARK  Name = 
REMARK  8 active torsions:
REMARK  status: ('A' for Active; 'I' for Inactive)
REMARK    1  A    between atoms: C_1  and  N_2
REMARK    2  A    between atoms: C_6  and  C_7
REMARK    3  A    between atoms: C_7  and  C_8
REMARK    4  A    between atoms: C_8  and  C_9
REMARK    5  A    between atoms: C_13  and  N_14
REMARK    6  A    between atoms: C_18  and  C_19
REMARK    7  A    between atoms: C_19  and  N_20
REMARK    8  A    between atoms: C_22  and  C_23
REMARK                            x       y       z     vdW  Elec       q    Type
REMARK                         _______ _______ _______ _____ _____    ______ ____
ROOT
ATOM      1  C   UNL     1       1.821   6.667  20.286  0.00  0.00    +0.000 A 
ATOM      2  C   UNL     1       1.678   5.678  21.274  0.00  0.00    +0.000 A 
ATOM      3  C   UNL     1       2.125   4.360  21.075  0.00  0.00    +0.000 A 
ATOM      4  C   UNL     1       2.773   3.975  19.893  0.00  0.00    +0.000 A 
ATOM      5  C   UNL     1       3.015   4.916  18.906  0.00  0.00    +0.000 A 
ATOM      6  C   UNL     1       2.477   6.229  19.115  0.00  0.00    +0.000 A 
ENDROOT
BRANCH   5   7
ATOM      7  N   UNL     1       3.822   4.682  17.814  0.00  0.00    +0.000 N 
ATOM      8  C   UNL     1       3.607   4.142  16.417  0.00  0.00    +0.000 C 
ATOM      9  C   UNL     1       5.049   4.205  15.860  0.00  0.00    +0.000 A 
ATOM     10  C   UNL     1       5.599   4.209  14.573  0.00  0.00    +0.000 A 
ATOM     11  C   UNL     1       6.893   4.763  14.404  0.00  0.00    +0.000 A 
ATOM     12  C   UNL     1       7.413   5.539  15.459  0.00  0.00    +0.000 A 
ATOM     13  C   UNL     1       6.801   5.543  16.705  0.00  0.00    +0.000 A 
ATOM     14  C   UNL     1       5.851   4.579  16.934  0.00  0.00    +0.000 A 
ATOM     15  C   UNL     1       5.154   4.270  18.203  0.00  0.00    +0.000 C 
BRANCH  13  16
ATOM     16  C   UNL     1       6.869   6.730  17.628  0.00  0.00    +0.000 C 
ATOM     17  F   UNL     1       5.683   7.381  17.763  0.00  0.00    +0.000 F 
ATOM     18  F   UNL     1       7.217   6.369  18.902  0.00  0.00    +0.000 F 
ATOM     19  F   UNL     1       7.782   7.662  17.251  0.00  0.00    +0.000 F 
ENDBRANCH  13  16
BRANCH  11  20
ATOM     20  C   UNL     1       7.690   4.791  13.119  0.00  0.00    +0.000 C 
BRANCH  20  21
ATOM     21  N   UNL     1       8.622   5.902  12.999  0.00  0.00    +0.000 NA
ATOM     22  H   UNL     1       9.567   5.526  12.912  0.00  0.00    +0.000 HD
ATOM     23  H   UNL     1       8.620   6.404  13.888  0.00  0.00    +0.000 HD
ENDBRANCH  20  21
ENDBRANCH  11  20
ENDBRANCH   5   7
BRANCH   1  24
ATOM     24  C   UNL     1       1.303   8.200  20.523  0.00  0.00    +0.000 C 
ATOM     25  C   UNL     1      -0.146   8.405  21.063  0.00  0.00    +0.000 C 
ATOM     26  O   UNL     1       0.320   9.118  22.227  0.00  0.00    +0.000 OA
ATOM     27  C   UNL     1       1.696   8.886  21.868  0.00  0.00    +0.000 C 
BRANCH  24  28
ATOM     28  C   UNL     1       1.658   9.112  19.333  0.00  0.00    +0.000 C 
BRANCH  28  34
ATOM     29  C   UNL     1       1.182  12.066  20.362  0.00  0.00    +0.000 C 
ATOM     30  N   UNL     1       0.387  11.333  19.422  0.00  0.00    +0.000 N 
ATOM     31  C   UNL     1      -0.791  11.770  18.871  0.00  0.00    +0.000 A 
ATOM     32  N   UNL     1      -1.253  10.864  18.055  0.00  0.00    +0.000 NA
ATOM     33  N   UNL     1      -0.388   9.798  18.075  0.00  0.00    +0.000 NA
ATOM     34  C   UNL     1       0.589  10.071  18.919  0.00  0.00    +0.000 A 
ENDBRANCH  28  34
ENDBRANCH  24  28
ENDBRANCH   1  24
TORSDOF 7
ENDMDL
MODEL 7
REMARK VINA RESULT:      -7.6      1.220      1.492
REMARK  Name = 
REMARK  8 active torsions:
REMARK  status: ('A' for Active; 'I' for Inactive)
REMARK    1  A    between atoms: C_1  and  N_2
REMARK    2  A    between atoms: C_6  and  C_7
REMARK    3  A    between atoms: C_7  and  C_8
REMARK    4  A    between atoms: C_8  and  C_9
REMARK    5  A    between atoms: C_13  and  N_14
REMARK    6  A    between atoms: C_18  and  C_19
REMARK    7  A    between atoms: C_19  and  N_20
REMARK    8  A    between atoms: C_22  and  C_23
REMARK                            x       y       z     vdW  Elec       q    Type
REMARK                         _______ _______ _______ _____ _____    ______ ____
ROOT
ATOM      1  C   UNL     1       0.589  10.054  20.344  0.00  0.00    +0.000 A 
ATOM      2  C   UNL     1       0.412   9.402  21.576  0.00  0.00    +0.000 A 
ATOM      3  C   UNL     1       0.857   8.087  21.791  0.00  0.00    +0.000 A 
ATOM      4  C   UNL     1       1.540   7.372  20.798  0.00  0.00    +0.000 A 
ATOM      5  C   UNL     1       1.818   7.977  19.584  0.00  0.00    +0.000 A 
ATOM      6  C   UNL     1       1.281   9.291  19.377  0.00  0.00    +0.000 A 
ENDROOT
BRANCH   5   7
ATOM      7  N   UNL     1       2.658   7.434  18.637  0.00  0.00    +0.000 N 
ATOM      8  C   UNL     1       3.586   7.991  17.579  0.00  0.00    +0.000 C 
ATOM      9  C   UNL     1       4.125   6.683  16.954  0.00  0.00    +0.000 A 
ATOM     10  C   UNL     1       5.249   6.360  16.183  0.00  0.00    +0.000 A 
ATOM     11  C   UNL     1       5.700   5.017  16.194  0.00  0.00    +0.000 A 
ATOM     12  C   UNL     1       5.193   4.166  17.196  0.00  0.00    +0.000 A 
ATOM     13  C   UNL     1       4.108   4.552  17.972  0.00  0.00    +0.000 A 
ATOM     14  C   UNL     1       3.404   5.654  17.552  0.00  0.00    +0.000 A 
ATOM     15  C   UNL     1       2.140   6.192  18.103  0.00  0.00    +0.000 C 
BRANCH  13  16
ATOM     16  C   UNL     1       3.914   4.060  19.381  0.00  0.00    +0.000 C 
ATOM     17  F   UNL     1       3.920   5.054  20.309  0.00  0.00    +0.000 F 
ATOM     18  F   UNL     1       2.705   3.437  19.543  0.00  0.00    +0.000 F 
ATOM     19  F   UNL     1       4.846   3.155  19.775  0.00  0.00    +0.000 F 
ENDBRANCH  13  16
BRANCH  11  20
ATOM     20  C   UNL     1       6.838   4.452  15.374  0.00  0.00    +0.000 C 
BRANCH  20  21
ATOM     21  N   UNL     1       7.568   5.429  14.579  0.00  0.00    +0.000 NA
ATOM     22  H   UNL     1       7.249   6.362  14.840  0.00  0.00    +0.000 HD
ATOM     23  H   UNL     1       7.279   5.314  13.607  0.00  0.00    +0.000 HD
ENDBRANCH  20  21
ENDBRANCH  11  20
ENDBRANCH   5   7
BRANCH   1  24
ATOM     24  C   UNL     1       0.072  11.585  20.098  0.00  0.00    +0.000 C 
ATOM     25  C   UNL     1      -1.393  11.933  20.502  0.00  0.00    +0.000 C 
ATOM     26  O   UNL     1      -0.965  12.962  21.419  0.00  0.00    +0.000 OA
ATOM     27  C   UNL     1       0.422  12.641  21.192  0.00  0.00    +0.000 C 
BRANCH  24  28
ATOM     28  C   UNL     1       0.473  12.106  18.704  0.00  0.00    +0.000 C 
BRANCH  28  34
ATOM     29  C   UNL     1      -0.131  15.212  18.768  0.00  0.00    +0.000 C 
ATOM     30  N   UNL     1       1.150  14.575  18.681  0.00  0.00    +0.000 N 
ATOM     31  C   UNL     1       2.347  15.225  18.515  0.00  0.00    +0.000 A 
ATOM     32  N   UNL     1       3.315  14.352  18.481  0.00  0.00    +0.000 NA
ATOM     33  N   UNL     1       2.760  13.103  18.602  0.00  0.00    +0.000 NA
ATOM     34  C   UNL     1       1.451  13.235  18.699  0.00  0.00    +0.000 A 
ENDBRANCH  28  34
ENDBRANCH  24  28
ENDBRANCH   1  24
TORSDOF 7
ENDMDL
MODEL 8
REMARK VINA RESULT:      -7.6      3.717      9.190
REMARK  Name = 
REMARK  8 active torsions:
REMARK  status: ('A' for Active; 'I' for Inactive)
REMARK    1  A    between atoms: C_1  and  N_2
REMARK    2  A    between atoms: C_6  and  C_7
REMARK    3  A    between atoms: C_7  and  C_8
REMARK    4  A    between atoms: C_8  and  C_9
REMARK    5  A    between atoms: C_13  and  N_14
REMARK    6  A    between atoms: C_18  and  C_19
REMARK    7  A    between atoms: C_19  and  N_20
REMARK    8  A    between atoms: C_22  and  C_23
REMARK                            x       y       z     vdW  Elec       q    Type
REMARK                         _______ _______ _______ _____ _____    ______ ____
ROOT
ATOM      1  C   UNL     1       2.771   6.194  18.708  0.00  0.00    +0.000 A 
ATOM      2  C   UNL     1       3.513   6.827  17.696  0.00  0.00    +0.000 A 
ATOM      3  C   UNL     1       3.325   8.183  17.375  0.00  0.00    +0.000 A 
ATOM      4  C   UNL     1       2.416   8.984  18.078  0.00  0.00    +0.000 A 
ATOM      5  C   UNL     1       1.704   8.447  19.138  0.00  0.00    +0.000 A 
ATOM      6  C   UNL     1       1.868   7.044  19.384  0.00  0.00    +0.000 A 
ENDROOT
BRANCH   5   7
ATOM      7  N   UNL     1       0.953   9.204  20.011  0.00  0.00    +0.000 N 
ATOM      8  C   UNL     1       0.497   9.049  21.446  0.00  0.00    +0.000 C 
ATOM      9  C   UNL     1      -0.318  10.351  21.629  0.00  0.00    +0.000 A 
ATOM     10  C   UNL     1      -0.748  11.086  22.740  0.00  0.00    +0.000 A 
ATOM     11  C   UNL     1      -1.041  12.460  22.558  0.00  0.00    +0.000 A 
ATOM     12  C   UNL     1      -0.597  13.068  21.366  0.00  0.00    +0.000 A 
ATOM     13  C   UNL     1      -0.129  12.299  20.309  0.00  0.00    +0.000 A 
ATOM     14  C   UNL     1      -0.361  10.948  20.373  0.00  0.00    +0.000 A 
ATOM     15  C   UNL     1      -0.100   9.929  19.332  0.00  0.00    +0.000 C 
BRANCH  13  16
ATOM     16  C   UNL     1       0.895  12.816  19.334  0.00  0.00    +0.000 C 
ATOM     17  F   UNL     1       0.462  12.821  18.045  0.00  0.00    +0.000 F 
ATOM     18  F   UNL     1       1.236  14.118  19.593  0.00  0.00    +0.000 F 
ATOM     19  F   UNL     1       2.061  12.123  19.350  0.00  0.00    +0.000 F 
ENDBRANCH  13  16
BRANCH  11  20
ATOM     20  C   UNL     1      -1.590  13.402  23.605  0.00  0.00    +0.000 C 
BRANCH  20  21
ATOM     21  N   UNL     1      -0.758  14.562  23.885  0.00  0.00    +0.000 NA
ATOM     22  H   UNL     1      -0.830  15.211  23.101  0.00  0.00    +0.000 HD
ATOM     23  H   UNL     1       0.215  14.252  23.882  0.00  0.00    +0.000 HD
ENDBRANCH  20  21
ENDBRANCH  11  20
ENDBRANCH   5   7
BRANCH   1  24
ATOM     24  C   UNL     1       2.994   4.618  19.081  0.00  0.00    +0.000 C 
ATOM     25  C   UNL     1       2.924   4.207  20.583  0.00  0.00    +0.000 C 
ATOM     26  O   UNL     1       1.842   3.282  20.346  0.00  0.00    +0.000 OA
ATOM     27  C   UNL     1       1.756   3.675  18.962  0.00  0.00    +0.000 C 
BRANCH  24  28
ATOM     28  C   UNL     1       4.197   4.018  18.327  0.00  0.00    +0.000 C 
BRANCH  28  34
ATOM     29  C   UNL     1       6.576   4.619  16.328  0.00  0.00    +0.000 C 
ATOM     30  N   UNL     1       6.548   4.847  17.743  0.00  0.00    +0.000 N 
ATOM     31  C   UNL     1       7.608   5.288  18.494  0.00  0.00    +0.000 A 
ATOM     32  N   UNL     1       7.244   5.393  19.742  0.00  0.00    +0.000 NA
ATOM     33  N   UNL     1       5.933   4.995  19.833  0.00  0.00    +0.000 NA
ATOM     34  C   UNL     1       5.520   4.643  18.631  0.00  0.00    +0.000 A 
ENDBRANCH  28  34
ENDBRANCH  24  28
ENDBRANCH   1  24
TORSDOF 7
ENDMDL
MODEL 9
REMARK VINA RESULT:      -7.6      0.802      1.033
REMARK  Name = 
REMARK  8 active torsions:
REMARK  status: ('A' for Active; 'I' for Inactive)
REMARK    1  A    between atoms: C_1  and  N_2
REMARK    2  A    between atoms: C_6  and  C_7
REMARK    3  A    between atoms: C_7  and  C_8
REMARK    4  A    between atoms: C_8  and  C_9
REMARK    5  A    between atoms: C_13  and  N_14
REMARK    6  A    between atoms: C_18  and  C_19
REMARK    7  A    between atoms: C_19  and  N_20
REMARK    8  A    between atoms: C_22  and  C_23
REMARK                            x       y       z     vdW  Elec       q    Type
REMARK                         _______ _______ _______ _____ _____    ______ ____
ROOT
ATOM      1  C   UNL     1       0.519  10.147  19.962  0.00  0.00    +0.000 A 
ATOM      2  C   UNL     1       0.469   9.688  21.289  0.00  0.00    +0.000 A 
ATOM      3  C   UNL     1       1.027   8.455  21.670  0.00  0.00    +0.000 A 
ATOM      4  C   UNL     1       1.701   7.640  20.750  0.00  0.00    +0.000 A 
ATOM      5  C   UNL     1       1.855   8.063  19.441  0.00  0.00    +0.000 A 
ATOM      6  C   UNL     1       1.205   9.289  19.075  0.00  0.00    +0.000 A 
ENDROOT
BRANCH   5   7
ATOM      7  N   UNL     1       2.674   7.434  18.528  0.00  0.00    +0.000 N 
ATOM      8  C   UNL     1       3.632   7.894  17.451  0.00  0.00    +0.000 C 
ATOM      9  C   UNL     1       4.114   6.533  16.897  0.00  0.00    +0.000 A 
ATOM     10  C   UNL     1       5.225   6.120  16.152  0.00  0.00    +0.000 A 
ATOM     11  C   UNL     1       5.614   4.760  16.234  0.00  0.00    +0.000 A 
ATOM     12  C   UNL     1       5.062   3.985  17.274  0.00  0.00    +0.000 A 
ATOM     13  C   UNL     1       3.992   4.460  18.021  0.00  0.00    +0.000 A 
ATOM     14  C   UNL     1       3.343   5.570  17.540  0.00  0.00    +0.000 A 
ATOM     15  C   UNL     1       2.102   6.192  18.054  0.00  0.00    +0.000 C 
BRANCH  13  16
ATOM     16  C   UNL     1       3.768   4.048  19.451  0.00  0.00    +0.000 C 
ATOM     17  F   UNL     1       4.675   3.141  19.903  0.00  0.00    +0.000 F 
ATOM     18  F   UNL     1       3.877   5.109  20.311  0.00  0.00    +0.000 F 
ATOM     19  F   UNL     1       2.540   3.518  19.680  0.00  0.00    +0.000 F 
ENDBRANCH  13  16
BRANCH  11  20
ATOM     20  C   UNL     1       6.729   4.102  15.452  0.00  0.00    +0.000 C 
BRANCH  20  21
ATOM     21  N   UNL     1       6.364   3.659  14.115  0.00  0.00    +0.000 NA
ATOM     22  H   UNL     1       5.739   2.856  14.198  0.00  0.00    +0.000 HD
ATOM     23  H   UNL     1       7.207   3.292  13.671  0.00  0.00    +0.000 HD
ENDBRANCH  20  21
ENDBRANCH  11  20
ENDBRANCH   5   7
BRANCH   1  24
ATOM     24  C   UNL     1      -0.130  11.582  19.524  0.00  0.00    +0.000 C 
ATOM     25  C   UNL     1      -1.479  11.564  18.741  0.00  0.00    +0.000 C 
ATOM     26  O   UNL     1      -2.147  12.354  19.746  0.00  0.00    +0.000 OA
ATOM     27  C   UNL     1      -0.981  12.337  20.592  0.00  0.00    +0.000 C 
BRANCH  24  28
ATOM     28  C   UNL     1       0.927  12.526  18.919  0.00  0.00    +0.000 C 
BRANCH  28  34
ATOM     29  C   UNL     1       1.973  15.498  18.625  0.00  0.00    +0.000 C 
ATOM     30  N   UNL     1       2.186  14.605  19.725  0.00  0.00    +0.000 N 
ATOM     31  C   UNL     1       2.975  14.867  20.816  0.00  0.00    +0.000 A 
ATOM     32  N   UNL     1       2.947  13.848  21.629  0.00  0.00    +0.000 NA
ATOM     33  N   UNL     1       2.150  12.883  21.067  0.00  0.00    +0.000 NA
ATOM     34  C   UNL     1       1.710  13.329  19.906  0.00  0.00    +0.000 A 
ENDBRANCH  28  34
ENDBRANCH  24  28
ENDBRANCH   1  24
TORSDOF 7
ENDMDL
