MODEL 1
REMARK VINA RESULT:      -9.8      0.000      0.000
REMARK  Name = 
REMARK  6 active torsions:
REMARK  status: ('A' for Active; 'I' for Inactive)
REMARK    1  A    between atoms: C_2  and  C_3
REMARK    2  A    between atoms: C_3  and  C_4
REMARK    3  A    between atoms: C_4  and  N_5
REMARK    4  A    between atoms: C_11  and  C_12
REMARK    5  A    between atoms: C_14  and  C_15
REMARK    6  A    between atoms: N_24  and  C_25
REMARK                            x       y       z     vdW  Elec       q    Type
REMARK                         _______ _______ _______ _____ _____    ______ ____
ROOT
ATOM      1  N   UNL     1       3.996   4.380  17.711  0.00  0.00    +0.000 NA
ATOM      2  C   UNL     1       3.069   3.282  17.752  0.00  0.00    +0.000 C 
ATOM      3  C   UNL     1       2.007   3.697  18.758  0.00  0.00    +0.000 C 
ATOM      4  C   UNL     1       1.800   2.509  19.715  0.00  0.00    +0.000 C 
ATOM      5  C   UNL     1       1.120   3.137  20.892  0.00  0.00    +0.000 C 
ATOM      6  C   UNL     1       1.029   4.581  20.448  0.00  0.00    +0.000 C 
ATOM      7  C   UNL     1       2.442   4.907  19.698  0.00  0.00    +0.000 C 
ATOM      8  C   UNL     1       3.299   5.443  18.441  0.00  0.00    +0.000 C 
ENDROOT
BRANCH   7   9
ATOM      9  C   UNL     1       2.141   6.382  20.007  0.00  0.00    +0.000 A 
ATOM     10  N   UNL     1       1.661   7.016  21.057  0.00  0.00    +0.000 NA
ATOM     11  C   UNL     1       1.420   8.281  20.544  0.00  0.00    +0.000 A 
ATOM     12  N   UNL     1       1.838   8.443  19.283  0.00  0.00    +0.000 NA
ATOM     13  O   UNL     1       2.297   7.192  18.917  0.00  0.00    +0.000 OA
BRANCH  11  14
ATOM     14  C   UNL     1       0.663   9.292  21.259  0.00  0.00    +0.000 A 
ATOM     15  C   UNL     1      -0.075  10.263  20.576  0.00  0.00    +0.000 A 
ATOM     16  C   UNL     1      -0.859  11.173  21.297  0.00  0.00    +0.000 A 
ATOM     17  C   UNL     1      -0.867  11.075  22.671  0.00  0.00    +0.000 A 
ATOM     18  N   UNL     1      -0.161  10.160  23.369  0.00  0.00    +0.000 NA
ATOM     19  C   UNL     1       0.586   9.285  22.640  0.00  0.00    +0.000 A 
ENDBRANCH  11  14
ENDBRANCH   7   9
BRANCH   1  20
ATOM     20  C   UNL     1       5.338   4.077  18.234  0.00  0.00    +0.000 C 
BRANCH  20  21
ATOM     21  C   UNL     1       6.250   5.310  18.139  0.00  0.00    +0.000 C 
BRANCH  21  23
ATOM     22  O   UNL     1       7.536   6.490  16.488  0.00  0.00    +0.000 OA
ATOM     23  C   UNL     1       6.764   5.575  16.739  0.00  0.00    +0.000 C 
ATOM     24  N   UNL     1       6.243   4.653  15.835  0.00  0.00    +0.000 N 
ATOM     25  H   UNL     1       5.479   4.075  16.159  0.00  0.00    +0.000 HD
BRANCH  24  26
ATOM     26  C   UNL     1       6.576   4.531  14.469  0.00  0.00    +0.000 A 
ATOM     27  C   UNL     1       7.566   5.297  13.849  0.00  0.00    +0.000 A 
ATOM     28  C   UNL     1       7.822   5.155  12.482  0.00  0.00    +0.000 A 
ATOM     29  C   UNL     1       7.096   4.238  11.725  0.00  0.00    +0.000 A 
ATOM     30  C   UNL     1       6.134   3.444  12.339  0.00  0.00    +0.000 A 
ATOM     31  C   UNL     1       5.880   3.583  13.708  0.00  0.00    +0.000 A 
ENDBRANCH  24  26
ENDBRANCH  21  23
ENDBRANCH  20  21
ENDBRANCH   1  20
TORSDOF 6
ENDMDL
MODEL 2
REMARK VINA RESULT:      -9.6      0.802      1.367
REMARK  Name = 
REMARK  6 active torsions:
REMARK  status: ('A' for Active; 'I' for Inactive)
REMARK    1  A    between atoms: C_2  and  C_3
REMARK    2  A    between atoms: C_3  and  C_4
REMARK    3  A    between atoms: C_4  and  N_5
REMARK    4  A    between atoms: C_11  and  C_12
REMARK    5  A    between atoms: C_14  and  C_15
REMARK    6  A    between atoms: N_24  and  C_25
REMARK                            x       y       z     vdW  Elec       q    Type
REMARK                         _______ _______ _______ _____ _____    ______ ____
ROOT
ATOM      1  N   UNL     1       4.608   4.935  18.252  0.00  0.00    +0.000 NA
ATOM      2  C   UNL     1       3.814   3.739  18.172  0.00  0.00    +0.000 C 
ATOM      3  C   UNL     1       2.560   4.042  18.976  0.00  0.00    +0.000 C 
ATOM      4  C   UNL     1       2.327   2.847  19.920  0.00  0.00    +0.000 C 
ATOM      5  C   UNL     1       1.395   3.406  20.950  0.00  0.00    +0.000 C 
ATOM      6  C   UNL     1       1.221   4.826  20.455  0.00  0.00    +0.000 C 
ATOM      7  C   UNL     1       2.695   5.302  19.940  0.00  0.00    +0.000 C 
ATOM      8  C   UNL     1       3.686   5.919  18.827  0.00  0.00    +0.000 C 
ENDROOT
BRANCH   7   9
ATOM      9  C   UNL     1       2.186   6.736  20.152  0.00  0.00    +0.000 A 
ATOM     10  N   UNL     1       1.596   7.358  21.152  0.00  0.00    +0.000 NA
ATOM     11  C   UNL     1       1.196   8.545  20.558  0.00  0.00    +0.000 A 
ATOM     12  N   UNL     1       1.621   8.690  19.298  0.00  0.00    +0.000 NA
ATOM     13  O   UNL     1       2.257   7.495  19.017  0.00  0.00    +0.000 OA
BRANCH  11  14
ATOM     14  C   UNL     1       0.289   9.481  21.196  0.00  0.00    +0.000 A 
ATOM     15  C   UNL     1      -0.063   9.348  22.542  0.00  0.00    +0.000 A 
ATOM     16  C   UNL     1      -0.875  10.315  23.146  0.00  0.00    +0.000 A 
ATOM     17  C   UNL     1      -1.306  11.373  22.375  0.00  0.00    +0.000 A 
ATOM     18  N   UNL     1      -0.998  11.534  21.071  0.00  0.00    +0.000 NA
ATOM     19  C   UNL     1      -0.201  10.580  20.514  0.00  0.00    +0.000 A 
ENDBRANCH  11  14
ENDBRANCH   7   9
BRANCH   1  20
ATOM     20  C   UNL     1       5.868   4.792  18.999  0.00  0.00    +0.000 C 
BRANCH  20  21
ATOM     21  C   UNL     1       7.003   5.559  18.303  0.00  0.00    +0.000 C 
BRANCH  21  23
ATOM     22  O   UNL     1       6.458   6.903  16.388  0.00  0.00    +0.000 OA
ATOM     23  C   UNL     1       6.754   5.801  16.828  0.00  0.00    +0.000 C 
ATOM     24  N   UNL     1       6.911   4.627  16.098  0.00  0.00    +0.000 N 
ATOM     25  H   UNL     1       6.975   3.765  16.623  0.00  0.00    +0.000 HD
BRANCH  24  26
ATOM     26  C   UNL     1       6.857   4.493  14.694  0.00  0.00    +0.000 A 
ATOM     27  C   UNL     1       5.962   3.644  14.039  0.00  0.00    +0.000 A 
ATOM     28  C   UNL     1       5.984   3.528  12.646  0.00  0.00    +0.000 A 
ATOM     29  C   UNL     1       6.896   4.268  11.895  0.00  0.00    +0.000 A 
ATOM     30  C   UNL     1       7.766   5.144  12.534  0.00  0.00    +0.000 A 
ATOM     31  C   UNL     1       7.742   5.263  13.928  0.00  0.00    +0.000 A 
ENDBRANCH  24  26
ENDBRANCH  21  23
ENDBRANCH  20  21
ENDBRANCH   1  20
TORSDOF 6
ENDMDL
MODEL 3
REMARK VINA RESULT:      -9.3      1.065      1.409
REMARK  Name = 
REMARK  6 active torsions:
REMARK  status: ('A' for Active; 'I' for Inactive)
REMARK    1  A    between atoms: C_2  and  C_3
REMARK    2  A    between atoms: C_3  and  C_4
REMARK    3  A    between atoms: C_4  and  N_5
REMARK    4  A    between atoms: C_11  and  C_12
REMARK    5  A    between atoms: C_14  and  C_15
REMARK    6  A    between atoms: N_24  and  C_25
REMARK                            x       y       z     vdW  Elec       q    Type
REMARK                         _______ _______ _______ _____ _____    ______ ____
ROOT
ATOM      1  N   UNL     1       4.872   5.222  18.299  0.00  0.00    +0.000 NA
ATOM      2  C   UNL     1       4.139   3.987  18.351  0.00  0.00    +0.000 C 
ATOM      3  C   UNL     1       2.831   4.331  19.045  0.00  0.00    +0.000 C 
ATOM      4  C   UNL     1       2.603   3.269  20.136  0.00  0.00    +0.000 C 
ATOM      5  C   UNL     1       1.592   3.916  21.032  0.00  0.00    +0.000 C 
ATOM      6  C   UNL     1       1.380   5.242  20.333  0.00  0.00    +0.000 C 
ATOM      7  C   UNL     1       2.856   5.719  19.826  0.00  0.00    +0.000 C 
ATOM      8  C   UNL     1       3.877   6.227  18.685  0.00  0.00    +0.000 C 
ENDROOT
BRANCH   7   9
ATOM      9  C   UNL     1       2.272   7.140  19.809  0.00  0.00    +0.000 A 
ATOM     10  N   UNL     1       1.750   7.924  20.729  0.00  0.00    +0.000 NA
ATOM     11  C   UNL     1       1.204   8.944  19.964  0.00  0.00    +0.000 A 
ATOM     12  N   UNL     1       1.480   8.847  18.658  0.00  0.00    +0.000 NA
ATOM     13  O   UNL     1       2.166   7.652  18.546  0.00  0.00    +0.000 OA
BRANCH  11  14
ATOM     14  C   UNL     1       0.306   9.946  20.507  0.00  0.00    +0.000 A 
ATOM     15  C   UNL     1      -0.328  10.876  19.679  0.00  0.00    +0.000 A 
ATOM     16  C   UNL     1      -1.251  11.776  20.227  0.00  0.00    +0.000 A 
ATOM     17  C   UNL     1      -1.497  11.710  21.581  0.00  0.00    +0.000 A 
ATOM     18  N   UNL     1      -0.899  10.834  22.416  0.00  0.00    +0.000 NA
ATOM     19  C   UNL     1      -0.012   9.967  21.853  0.00  0.00    +0.000 A 
ENDBRANCH  11  14
ENDBRANCH   7   9
BRANCH   1  20
ATOM     20  C   UNL     1       6.096   5.251  19.117  0.00  0.00    +0.000 C 
BRANCH  20  21
ATOM     21  C   UNL     1       7.286   5.772  18.298  0.00  0.00    +0.000 C 
BRANCH  21  23
ATOM     22  O   UNL     1       8.258   3.973  17.036  0.00  0.00    +0.000 OA
ATOM     23  C   UNL     1       7.551   4.971  17.039  0.00  0.00    +0.000 C 
ATOM     24  N   UNL     1       6.891   5.527  15.947  0.00  0.00    +0.000 N 
ATOM     25  H   UNL     1       6.499   6.451  16.070  0.00  0.00    +0.000 HD
BRANCH  24  26
ATOM     26  C   UNL     1       6.826   4.996  14.641  0.00  0.00    +0.000 A 
ATOM     27  C   UNL     1       5.918   4.006  14.260  0.00  0.00    +0.000 A 
ATOM     28  C   UNL     1       5.930   3.494  12.959  0.00  0.00    +0.000 A 
ATOM     29  C   UNL     1       6.846   3.975  12.025  0.00  0.00    +0.000 A 
ATOM     30  C   UNL     1       7.730   4.986  12.383  0.00  0.00    +0.000 A 
ATOM     31  C   UNL     1       7.716   5.501  13.684  0.00  0.00    +0.000 A 
ENDBRANCH  24  26
ENDBRANCH  21  23
ENDBRANCH  20  21
ENDBRANCH   1  20
TORSDOF 6
ENDMDL
MODEL 4
REMARK VINA RESULT:      -9.2      0.998      1.135
REMARK  Name = 
REMARK  6 active torsions:
REMARK  status: ('A' for Active; 'I' for Inactive)
REMARK    1  A    between atoms: C_2  and  C_3
REMARK    2  A    between atoms: C_3  and  C_4
REMARK    3  A    between atoms: C_4  and  N_5
REMARK    4  A    between atoms: C_11  and  C_12
REMARK    5  A    between atoms: C_14  and  C_15
REMARK    6  A    between atoms: N_24  and  C_25
REMARK                            x       y       z     vdW  Elec       q    Type
REMARK                         _______ _______ _______ _____ _____    ______ ____
ROOT
ATOM      1  N   UNL     1       4.088   5.853  17.812  0.00  0.00    +0.000 NA
ATOM      2  C   UNL     1       3.350   4.620  17.857  0.00  0.00    +0.000 C 
ATOM      3  C   UNL     1       2.215   4.873  18.836  0.00  0.00    +0.000 C 
ATOM      4  C   UNL     1       2.183   3.680  19.810  0.00  0.00    +0.000 C 
ATOM      5  C   UNL     1       1.387   4.208  20.964  0.00  0.00    +0.000 C 
ATOM      6  C   UNL     1       1.073   5.612  20.492  0.00  0.00    +0.000 C 
ATOM      7  C   UNL     1       2.430   6.150  19.762  0.00  0.00    +0.000 C 
ATOM      8  C   UNL     1       3.214   6.799  18.512  0.00  0.00    +0.000 C 
ENDROOT
BRANCH   7   9
ATOM      9  C   UNL     1       1.889   7.561  20.039  0.00  0.00    +0.000 A 
ATOM     10  N   UNL     1       1.386   8.155  21.102  0.00  0.00    +0.000 NA
ATOM     11  C   UNL     1       0.875   9.326  20.565  0.00  0.00    +0.000 A 
ATOM     12  N   UNL     1       1.155   9.493  19.267  0.00  0.00    +0.000 NA
ATOM     13  O   UNL     1       1.806   8.327  18.910  0.00  0.00    +0.000 OA
BRANCH  11  14
ATOM     14  C   UNL     1       0.005  10.222  21.304  0.00  0.00    +0.000 A 
ATOM     15  C   UNL     1      -0.704  11.239  20.660  0.00  0.00    +0.000 A 
ATOM     16  C   UNL     1      -1.598  12.032  21.392  0.00  0.00    +0.000 A 
ATOM     17  C   UNL     1      -1.739  11.777  22.738  0.00  0.00    +0.000 A 
ATOM     18  N   UNL     1      -1.066  10.812  23.400  0.00  0.00    +0.000 NA
ATOM     19  C   UNL     1      -0.210  10.053  22.660  0.00  0.00    +0.000 A 
ENDBRANCH  11  14
ENDBRANCH   7   9
BRANCH   1  20
ATOM     20  C   UNL     1       5.451   5.779  18.365  0.00  0.00    +0.000 C 
BRANCH  20  21
ATOM     21  C   UNL     1       6.084   4.410  18.071  0.00  0.00    +0.000 C 
BRANCH  21  23
ATOM     22  O   UNL     1       8.135   4.245  16.830  0.00  0.00    +0.000 OA
ATOM     23  C   UNL     1       6.921   4.390  16.808  0.00  0.00    +0.000 C 
ATOM     24  N   UNL     1       6.122   4.553  15.679  0.00  0.00    +0.000 N 
ATOM     25  H   UNL     1       5.166   4.845  15.833  0.00  0.00    +0.000 HD
BRANCH  24  26
ATOM     26  C   UNL     1       6.540   4.486  14.333  0.00  0.00    +0.000 A 
ATOM     27  C   UNL     1       7.516   5.326  13.790  0.00  0.00    +0.000 A 
ATOM     28  C   UNL     1       7.858   5.234  12.438  0.00  0.00    +0.000 A 
ATOM     29  C   UNL     1       7.234   4.296  11.618  0.00  0.00    +0.000 A 
ATOM     30  C   UNL     1       6.289   3.430  12.157  0.00  0.00    +0.000 A 
ATOM     31  C   UNL     1       5.949   3.519  13.511  0.00  0.00    +0.000 A 
ENDBRANCH  24  26
ENDBRANCH  21  23
ENDBRANCH  20  21
ENDBRANCH   1  20
TORSDOF 6
ENDMDL
MODEL 5
REMARK VINA RESULT:      -9.1      1.597      1.880
REMARK  Name = 
REMARK  6 active torsions:
REMARK  status: ('A' for Active; 'I' for Inactive)
REMARK    1  A    between atoms: C_2  and  C_3
REMARK    2  A    between atoms: C_3  and  C_4
REMARK    3  A    between atoms: C_4  and  N_5
REMARK    4  A    between atoms: C_11  and  C_12
REMARK    5  A    between atoms: C_14  and  C_15
REMARK    6  A    between atoms: N_24  and  C_25
REMARK                            x       y       z     vdW  Elec       q    Type
REMARK                         _______ _______ _______ _____ _____    ______ ____
ROOT
ATOM      1  N   UNL     1       4.674   5.499  18.200  0.00  0.00    +0.000 NA
ATOM      2  C   UNL     1       4.106   4.179  18.221  0.00  0.00    +0.000 C 
ATOM      3  C   UNL     1       2.822   4.314  19.024  0.00  0.00    +0.000 C 
ATOM      4  C   UNL     1       2.812   3.171  20.056  0.00  0.00    +0.000 C 
ATOM      5  C   UNL     1       1.800   3.631  21.060  0.00  0.00    +0.000 C 
ATOM      6  C   UNL     1       1.373   4.956  20.467  0.00  0.00    +0.000 C 
ATOM      7  C   UNL     1       2.735   5.646  19.891  0.00  0.00    +0.000 C 
ATOM      8  C   UNL     1       3.594   6.345  18.718  0.00  0.00    +0.000 C 
ENDROOT
BRANCH   7   9
ATOM      9  C   UNL     1       1.980   6.979  20.007  0.00  0.00    +0.000 A 
ATOM     10  N   UNL     1       1.940   8.074  19.276  0.00  0.00    +0.000 NA
ATOM     11  C   UNL     1       1.258   8.951  20.106  0.00  0.00    +0.000 A 
ATOM     12  N   UNL     1       0.804   8.388  21.232  0.00  0.00    +0.000 NA
ATOM     13  O   UNL     1       1.291   7.095  21.182  0.00  0.00    +0.000 OA
BRANCH  11  14
ATOM     14  C   UNL     1       1.162  10.375  19.843  0.00  0.00    +0.000 A 
ATOM     15  C   UNL     1       1.671  10.931  18.666  0.00  0.00    +0.000 A 
ATOM     16  C   UNL     1       1.488  12.295  18.408  0.00  0.00    +0.000 A 
ATOM     17  C   UNL     1       0.810  13.047  19.342  0.00  0.00    +0.000 A 
ATOM     18  N   UNL     1       0.312  12.552  20.495  0.00  0.00    +0.000 NA
ATOM     19  C   UNL     1       0.499  11.220  20.714  0.00  0.00    +0.000 A 
ENDBRANCH  11  14
ENDBRANCH   7   9
BRANCH   1  20
ATOM     20  C   UNL     1       5.944   5.639  18.932  0.00  0.00    +0.000 C 
BRANCH  20  21
ATOM     21  C   UNL     1       7.054   6.155  18.003  0.00  0.00    +0.000 C 
BRANCH  21  23
ATOM     22  O   UNL     1       8.069   4.242  16.961  0.00  0.00    +0.000 OA
ATOM     23  C   UNL     1       7.352   5.226  16.843  0.00  0.00    +0.000 C 
ATOM     24  N   UNL     1       6.709   5.653  15.685  0.00  0.00    +0.000 N 
ATOM     25  H   UNL     1       6.305   6.581  15.700  0.00  0.00    +0.000 HD
BRANCH  24  26
ATOM     26  C   UNL     1       6.676   4.985  14.443  0.00  0.00    +0.000 A 
ATOM     27  C   UNL     1       7.617   5.197  13.432  0.00  0.00    +0.000 A 
ATOM     28  C   UNL     1       7.506   4.530  12.209  0.00  0.00    +0.000 A 
ATOM     29  C   UNL     1       6.458   3.639  11.988  0.00  0.00    +0.000 A 
ATOM     30  C   UNL     1       5.537   3.392  13.000  0.00  0.00    +0.000 A 
ATOM     31  C   UNL     1       5.650   4.056  14.226  0.00  0.00    +0.000 A 
ENDBRANCH  24  26
ENDBRANCH  21  23
ENDBRANCH  20  21
ENDBRANCH   1  20
TORSDOF 6
ENDMDL
MODEL 6
REMARK VINA RESULT:      -9.0      1.511      2.074
REMARK  Name = 
REMARK  6 active torsions:
REMARK  status: ('A' for Active; 'I' for Inactive)
REMARK    1  A    between atoms: C_2  and  C_3
REMARK    2  A    between atoms: C_3  and  C_4
REMARK    3  A    between atoms: C_4  and  N_5
REMARK    4  A    between atoms: C_11  and  C_12
REMARK    5  A    between atoms: C_14  and  C_15
REMARK    6  A    between atoms: N_24  and  C_25
REMARK                            x       y       z     vdW  Elec       q    Type
REMARK                         _______ _______ _______ _____ _____    ______ ____
ROOT
ATOM      1  N   UNL     1       4.951   4.885  18.339  0.00  0.00    +0.000 NA
ATOM      2  C   UNL     1       4.368   3.579  18.480  0.00  0.00    +0.000 C 
ATOM      3  C   UNL     1       3.063   3.805  19.225  0.00  0.00    +0.000 C 
ATOM      4  C   UNL     1       3.009   2.776  20.369  0.00  0.00    +0.000 C 
ATOM      5  C   UNL     1       1.973   3.345  21.288  0.00  0.00    +0.000 C 
ATOM      6  C   UNL     1       1.578   4.605  20.547  0.00  0.00    +0.000 C 
ATOM      7  C   UNL     1       2.964   5.222  19.945  0.00  0.00    +0.000 C 
ATOM      8  C   UNL     1       3.865   5.788  18.734  0.00  0.00    +0.000 C 
ENDROOT
BRANCH   7   9
ATOM      9  C   UNL     1       2.219   6.565  19.900  0.00  0.00    +0.000 A 
ATOM     10  N   UNL     1       2.212   7.578  19.057  0.00  0.00    +0.000 NA
ATOM     11  C   UNL     1       1.515   8.541  19.770  0.00  0.00    +0.000 A 
ATOM     12  N   UNL     1       1.023   8.102  20.934  0.00  0.00    +0.000 NA
ATOM     13  O   UNL     1       1.498   6.808  21.035  0.00  0.00    +0.000 OA
BRANCH  11  14
ATOM     14  C   UNL     1       1.443   9.931  19.358  0.00  0.00    +0.000 A 
ATOM     15  C   UNL     1       0.712  10.868  20.094  0.00  0.00    +0.000 A 
ATOM     16  C   UNL     1       0.731  12.216  19.713  0.00  0.00    +0.000 A 
ATOM     17  C   UNL     1       1.475  12.567  18.609  0.00  0.00    +0.000 A 
ATOM     18  N   UNL     1       2.186  11.693  17.865  0.00  0.00    +0.000 NA
ATOM     19  C   UNL     1       2.154  10.391  18.265  0.00  0.00    +0.000 A 
ENDBRANCH  11  14
ENDBRANCH   7   9
BRANCH   1  20
ATOM     20  C   UNL     1       6.199   5.091  19.092  0.00  0.00    +0.000 C 
BRANCH  20  21
ATOM     21  C   UNL     1       7.176   5.972  18.296  0.00  0.00    +0.000 C 
BRANCH  21  23
ATOM     22  O   UNL     1       6.321   7.086  16.347  0.00  0.00    +0.000 OA
ATOM     23  C   UNL     1       6.829   6.082  16.825  0.00  0.00    +0.000 C 
ATOM     24  N   UNL     1       7.169   4.916  16.145  0.00  0.00    +0.000 N 
ATOM     25  H   UNL     1       7.408   4.110  16.708  0.00  0.00    +0.000 HD
BRANCH  24  26
ATOM     26  C   UNL     1       7.085   4.696  14.754  0.00  0.00    +0.000 A 
ATOM     27  C   UNL     1       7.883   5.364  13.822  0.00  0.00    +0.000 A 
ATOM     28  C   UNL     1       7.724   5.129  12.454  0.00  0.00    +0.000 A 
ATOM     29  C   UNL     1       6.771   4.217  12.005  0.00  0.00    +0.000 A 
ATOM     30  C   UNL     1       5.996   3.519  12.925  0.00  0.00    +0.000 A 
ATOM     31  C   UNL     1       6.157   3.751  14.295  0.00  0.00    +0.000 A 
ENDBRANCH  24  26
ENDBRANCH  21  23
ENDBRANCH  20  21
ENDBRANCH   1  20
TORSDOF 6
ENDMDL
MODEL 7
REMARK VINA RESULT:      -8.9      2.575      3.161
REMARK  Name = 
REMARK  6 active torsions:
REMARK  status: ('A' for Active; 'I' for Inactive)
REMARK    1  A    between atoms: C_2  and  C_3
REMARK    2  A    between atoms: C_3  and  C_4
REMARK    3  A    between atoms: C_4  and  N_5
REMARK    4  A    between atoms: C_11  and  C_12
REMARK    5  A    between atoms: C_14  and  C_15
REMARK    6  A    between atoms: N_24  and  C_25
REMARK                            x       y       z     vdW  Elec       q    Type
REMARK                         _______ _______ _______ _____ _____    ______ ____
ROOT
ATOM      1  N   UNL     1       1.664   3.462  17.395  0.00  0.00    +0.000 NA
ATOM      2  C   UNL     1       1.153   2.580  18.409  0.00  0.00    +0.000 C 
ATOM      3  C   UNL     1       1.188   3.391  19.694  0.00  0.00    +0.000 C 
ATOM      4  C   UNL     1       1.844   2.506  20.771  0.00  0.00    +0.000 C 
ATOM      5  C   UNL     1       2.245   3.494  21.822  0.00  0.00    +0.000 C 
ATOM      6  C   UNL     1       1.764   4.792  21.210  0.00  0.00    +0.000 C 
ATOM      7  C   UNL     1       2.108   4.689  19.618  0.00  0.00    +0.000 C 
ATOM      8  C   UNL     1       1.692   4.768  18.061  0.00  0.00    +0.000 C 
ENDROOT
BRANCH   7   9
ATOM      9  C   UNL     1       2.053   6.224  19.617  0.00  0.00    +0.000 A 
ATOM     10  N   UNL     1       1.597   7.123  20.466  0.00  0.00    +0.000 NA
ATOM     11  C   UNL     1       1.643   8.284  19.709  0.00  0.00    +0.000 A 
ATOM     12  N   UNL     1       2.205   8.123  18.505  0.00  0.00    +0.000 NA
ATOM     13  O   UNL     1       2.460   6.767  18.431  0.00  0.00    +0.000 OA
BRANCH  11  14
ATOM     14  C   UNL     1       1.018   9.525  20.127  0.00  0.00    +0.000 A 
ATOM     15  C   UNL     1       0.334  10.335  19.216  0.00  0.00    +0.000 A 
ATOM     16  C   UNL     1      -0.327  11.484  19.670  0.00  0.00    +0.000 A 
ATOM     17  C   UNL     1      -0.271  11.775  21.015  0.00  0.00    +0.000 A 
ATOM     18  N   UNL     1       0.386  11.026  21.926  0.00  0.00    +0.000 NA
ATOM     19  C   UNL     1       1.013   9.911  21.455  0.00  0.00    +0.000 A 
ENDBRANCH  11  14
ENDBRANCH   7   9
BRANCH   1  20
ATOM     20  C   UNL     1       2.957   3.059  16.818  0.00  0.00    +0.000 C 
BRANCH  20  21
ATOM     21  C   UNL     1       3.866   2.445  17.894  0.00  0.00    +0.000 C 
BRANCH  21  23
ATOM     22  O   UNL     1       5.219   3.329  19.671  0.00  0.00    +0.000 OA
ATOM     23  C   UNL     1       4.820   3.441  18.521  0.00  0.00    +0.000 C 
ATOM     24  N   UNL     1       5.151   4.448  17.619  0.00  0.00    +0.000 N 
ATOM     25  H   UNL     1       4.600   4.505  16.772  0.00  0.00    +0.000 HD
BRANCH  24  26
ATOM     26  C   UNL     1       6.087   5.485  17.819  0.00  0.00    +0.000 A 
ATOM     27  C   UNL     1       6.011   6.722  17.173  0.00  0.00    +0.000 A 
ATOM     28  C   UNL     1       6.993   7.694  17.385  0.00  0.00    +0.000 A 
ATOM     29  C   UNL     1       8.055   7.442  18.252  0.00  0.00    +0.000 A 
ATOM     30  C   UNL     1       8.120   6.229  18.928  0.00  0.00    +0.000 A 
ATOM     31  C   UNL     1       7.136   5.256  18.719  0.00  0.00    +0.000 A 
ENDBRANCH  24  26
ENDBRANCH  21  23
ENDBRANCH  20  21
ENDBRANCH   1  20
TORSDOF 6
ENDMDL
MODEL 8
REMARK VINA RESULT:      -8.8      1.766      2.067
REMARK  Name = 
REMARK  6 active torsions:
REMARK  status: ('A' for Active; 'I' for Inactive)
REMARK    1  A    between atoms: C_2  and  C_3
REMARK    2  A    between atoms: C_3  and  C_4
REMARK    3  A    between atoms: C_4  and  N_5
REMARK    4  A    between atoms: C_11  and  C_12
REMARK    5  A    between atoms: C_14  and  C_15
REMARK    6  A    between atoms: N_24  and  C_25
REMARK                            x       y       z     vdW  Elec       q    Type
REMARK                         _______ _______ _______ _____ _____    ______ ____
ROOT
ATOM      1  N   UNL     1       5.007   4.829  18.171  0.00  0.00    +0.000 NA
ATOM      2  C   UNL     1       4.188   3.705  18.536  0.00  0.00    +0.000 C 
ATOM      3  C   UNL     1       2.919   4.312  19.112  0.00  0.00    +0.000 C 
ATOM      4  C   UNL     1       2.630   3.585  20.439  0.00  0.00    +0.000 C 
ATOM      5  C   UNL     1       1.682   4.513  21.133  0.00  0.00    +0.000 C 
ATOM      6  C   UNL     1       1.556   5.627  20.116  0.00  0.00    +0.000 C 
ATOM      7  C   UNL     1       3.055   5.848  19.509  0.00  0.00    +0.000 C 
ATOM      8  C   UNL     1       4.092   5.969  18.280  0.00  0.00    +0.000 C 
ENDROOT
BRANCH   7   9
ATOM      9  C   UNL     1       2.574   7.255  19.124  0.00  0.00    +0.000 A 
ATOM     10  N   UNL     1       1.931   8.209  19.766  0.00  0.00    +0.000 NA
ATOM     11  C   UNL     1       1.610   9.083  18.739  0.00  0.00    +0.000 A 
ATOM     12  N   UNL     1       2.130   8.740  17.555  0.00  0.00    +0.000 NA
ATOM     13  O   UNL     1       2.750   7.529  17.796  0.00  0.00    +0.000 OA
BRANCH  11  14
ATOM     14  C   UNL     1       0.686  10.190  18.903  0.00  0.00    +0.000 A 
ATOM     15  C   UNL     1       1.139  11.512  18.942  0.00  0.00    +0.000 A 
ATOM     16  C   UNL     1       0.212  12.560  19.019  0.00  0.00    +0.000 A 
ATOM     17  C   UNL     1      -1.127  12.240  19.059  0.00  0.00    +0.000 A 
ATOM     18  N   UNL     1      -1.605  10.978  19.034  0.00  0.00    +0.000 NA
ATOM     19  C   UNL     1      -0.680   9.981  18.952  0.00  0.00    +0.000 A 
ENDBRANCH  11  14
ENDBRANCH   7   9
BRANCH   1  20
ATOM     20  C   UNL     1       6.242   4.977  18.959  0.00  0.00    +0.000 C 
BRANCH  20  21
ATOM     21  C   UNL     1       7.285   5.799  18.187  0.00  0.00    +0.000 C 
BRANCH  21  23
ATOM     22  O   UNL     1       6.565   7.037  16.257  0.00  0.00    +0.000 OA
ATOM     23  C   UNL     1       6.952   5.973  16.719  0.00  0.00    +0.000 C 
ATOM     24  N   UNL     1       7.151   4.785  16.020  0.00  0.00    +0.000 N 
ATOM     25  H   UNL     1       7.295   3.948  16.570  0.00  0.00    +0.000 HD
BRANCH  24  26
ATOM     26  C   UNL     1       7.040   4.599  14.625  0.00  0.00    +0.000 A 
ATOM     27  C   UNL     1       6.155   3.689  14.042  0.00  0.00    +0.000 A 
ATOM     28  C   UNL     1       6.121   3.524  12.654  0.00  0.00    +0.000 A 
ATOM     29  C   UNL     1       6.966   4.273  11.837  0.00  0.00    +0.000 A 
ATOM     30  C   UNL     1       7.824   5.208  12.405  0.00  0.00    +0.000 A 
ATOM     31  C   UNL     1       7.856   5.376  13.794  0.00  0.00    +0.000 A 
ENDBRANCH  24  26
ENDBRANCH  21  23
ENDBRANCH  20  21
ENDBRANCH   1  20
TORSDOF 6
ENDMDL
MODEL 9
REMARK VINA RESULT:      -8.8      1.574      2.072
REMARK  Name = 
REMARK  6 active torsions:
REMARK  status: ('A' for Active; 'I' for Inactive)
REMARK    1  A    between atoms: C_2  and  C_3
REMARK    2  A    between atoms: C_3  and  C_4
REMARK    3  A    between atoms: C_4  and  N_5
REMARK    4  A    between atoms: C_11  and  C_12
REMARK    5  A    between atoms: C_14  and  C_15
REMARK    6  A    between atoms: N_24  and  C_25
REMARK                            x       y       z     vdW  Elec       q    Type
REMARK                         _______ _______ _______ _____ _____    ______ ____
ROOT
ATOM      1  N   UNL     1       4.743   4.716  18.303  0.00  0.00    +0.000 NA
ATOM      2  C   UNL     1       4.119   3.432  18.468  0.00  0.00    +0.000 C 
ATOM      3  C   UNL     1       2.853   3.706  19.264  0.00  0.00    +0.000 C 
ATOM      4  C   UNL     1       2.807   2.679  20.411  0.00  0.00    +0.000 C 
ATOM      5  C   UNL     1       1.830   3.285  21.370  0.00  0.00    +0.000 C 
ATOM      6  C   UNL     1       1.452   4.559  20.644  0.00  0.00    +0.000 C 
ATOM      7  C   UNL     1       2.835   5.124  19.987  0.00  0.00    +0.000 C 
ATOM      8  C   UNL     1       3.707   5.657  18.739  0.00  0.00    +0.000 C 
ENDROOT
BRANCH   7   9
ATOM      9  C   UNL     1       2.139   6.494  19.969  0.00  0.00    +0.000 A 
ATOM     10  N   UNL     1       2.190   7.534  19.162  0.00  0.00    +0.000 NA
ATOM     11  C   UNL     1       1.508   8.498  19.891  0.00  0.00    +0.000 A 
ATOM     12  N   UNL     1       0.971   8.038  21.026  0.00  0.00    +0.000 NA
ATOM     13  O   UNL     1       1.397   6.724  21.094  0.00  0.00    +0.000 OA
BRANCH  11  14
ATOM     14  C   UNL     1       1.495   9.902  19.525  0.00  0.00    +0.000 A 
ATOM     15  C   UNL     1       2.039  10.341  18.315  0.00  0.00    +0.000 A 
ATOM     16  C   UNL     1       1.936  11.692  17.958  0.00  0.00    +0.000 A 
ATOM     17  C   UNL     1       1.296  12.546  18.829  0.00  0.00    +0.000 A 
ATOM     18  N   UNL     1       0.765  12.164  20.011  0.00  0.00    +0.000 NA
ATOM     19  C   UNL     1       0.876  10.844  20.327  0.00  0.00    +0.000 A 
ENDBRANCH  11  14
ENDBRANCH   7   9
BRANCH   1  20
ATOM     20  C   UNL     1       6.027   4.875  19.005  0.00  0.00    +0.000 C 
BRANCH  20  21
ATOM     21  C   UNL     1       6.874   5.976  18.347  0.00  0.00    +0.000 C 
BRANCH  21  23
ATOM     22  O   UNL     1       6.335   7.159  16.326  0.00  0.00    +0.000 OA
ATOM     23  C   UNL     1       6.649   6.101  16.854  0.00  0.00    +0.000 C 
ATOM     24  N   UNL     1       6.852   4.880  16.216  0.00  0.00    +0.000 N 
ATOM     25  H   UNL     1       6.927   4.062  16.806  0.00  0.00    +0.000 HD
BRANCH  24  26
ATOM     26  C   UNL     1       6.831   4.641  14.826  0.00  0.00    +0.000 A 
ATOM     27  C   UNL     1       5.928   3.769  14.212  0.00  0.00    +0.000 A 
ATOM     28  C   UNL     1       5.984   3.547  12.833  0.00  0.00    +0.000 A 
ATOM     29  C   UNL     1       6.937   4.201  12.054  0.00  0.00    +0.000 A 
ATOM     30  C   UNL     1       7.816   5.098  12.650  0.00  0.00    +0.000 A 
ATOM     31  C   UNL     1       7.758   5.324  14.029  0.00  0.00    +0.000 A 
ENDBRANCH  24  26
ENDBRANCH  21  23
ENDBRANCH  20  21
ENDBRANCH   1  20
TORSDOF 6
ENDMDL
