MODEL 1
REMARK VINA RESULT:      -9.1      0.000      0.000
REMARK  Name = 
REMARK  4 active torsions:
REMARK  status: ('A' for Active; 'I' for Inactive)
REMARK    1  A    between atoms: C_2  and  C_16
REMARK    2  A    between atoms: N_3  and  C_4
REMARK    3  A    between atoms: C_9  and  C_10
REMARK    4  A    between atoms: C_21  and  N_22
REMARK                            x       y       z     vdW  Elec       q    Type
REMARK                         _______ _______ _______ _____ _____    ______ ____
ROOT
ATOM      1  O   UNL     1       5.692   4.067  18.887  0.00  0.00    +0.000 OA
ATOM      2  C   UNL     1       5.078   4.312  17.861  0.00  0.00    +0.000 C 
ATOM      3  N   UNL     1       3.713   4.530  17.767  0.00  0.00    +0.000 N 
ATOM      4  H   UNL     1       3.313   4.400  16.851  0.00  0.00    +0.000 HD
ENDROOT
BRANCH   3   5
ATOM      5  C   UNL     1       2.851   4.199  18.835  0.00  0.00    +0.000 A 
ATOM      6  C   UNL     1       2.738   2.833  19.125  0.00  0.00    +0.000 A 
ATOM      7  C   UNL     1       2.013   2.404  20.234  0.00  0.00    +0.000 A 
ATOM      8  C   UNL     1       1.402   3.339  21.056  0.00  0.00    +0.000 A 
ATOM      9  C   UNL     1       1.505   4.703  20.763  0.00  0.00    +0.000 A 
ATOM     10  C   UNL     1       2.218   5.179  19.638  0.00  0.00    +0.000 A 
BRANCH  10  11
ATOM     11  C   UNL     1       2.160   6.632  19.294  0.00  0.00    +0.000 A 
ATOM     12  C   UNL     1       2.538   7.150  18.043  0.00  0.00    +0.000 A 
ATOM     13  C   UNL     1       2.333   8.494  17.707  0.00  0.00    +0.000 A 
ATOM     14  C   UNL     1       1.811   9.376  18.645  0.00  0.00    +0.000 A 
ATOM     15  C   UNL     1       1.496   8.914  19.918  0.00  0.00    +0.000 A 
ATOM     16  C   UNL     1       1.655   7.560  20.230  0.00  0.00    +0.000 A 
ENDBRANCH  10  11
ENDBRANCH   3   5
BRANCH   2  17
ATOM     17  C   UNL     1       5.814   4.399  16.564  0.00  0.00    +0.000 A 
ATOM     18  C   UNL     1       5.472   3.459  15.568  0.00  0.00    +0.000 A 
ATOM     19  C   UNL     1       5.972   3.571  14.271  0.00  0.00    +0.000 A 
ATOM     20  C   UNL     1       6.784   4.645  13.934  0.00  0.00    +0.000 A 
ATOM     21  C   UNL     1       7.130   5.589  14.907  0.00  0.00    +0.000 A 
ATOM     22  C   UNL     1       6.684   5.455  16.238  0.00  0.00    +0.000 A 
BRANCH  22  23
ATOM     23  N   UNL     1       7.219   6.368  17.187  0.00  0.00    +0.000 N 
ATOM     24  C   UNL     1       7.866   6.147  18.376  0.00  0.00    +0.000 A 
ATOM     25  N   UNL     1       8.310   7.287  18.857  0.00  0.00    +0.000 NA
ATOM     26  N   UNL     1       7.942   8.240  17.949  0.00  0.00    +0.000 NA
ATOM     27  N   UNL     1       7.318   7.696  16.915  0.00  0.00    +0.000 NA
ENDBRANCH  22  23
ENDBRANCH   2  17
TORSDOF 4
ENDMDL
MODEL 2
REMARK VINA RESULT:      -8.9      0.906      1.166
REMARK  Name = 
REMARK  4 active torsions:
REMARK  status: ('A' for Active; 'I' for Inactive)
REMARK    1  A    between atoms: C_2  and  C_16
REMARK    2  A    between atoms: N_3  and  C_4
REMARK    3  A    between atoms: C_9  and  C_10
REMARK    4  A    between atoms: C_21  and  N_22
REMARK                            x       y       z     vdW  Elec       q    Type
REMARK                         _______ _______ _______ _____ _____    ______ ____
ROOT
ATOM      1  O   UNL     1       5.308   3.641  18.645  0.00  0.00    +0.000 OA
ATOM      2  C   UNL     1       4.786   3.964  17.589  0.00  0.00    +0.000 C 
ATOM      3  N   UNL     1       3.435   4.198  17.392  0.00  0.00    +0.000 N 
ATOM      4  H   UNL     1       3.118   4.138  16.438  0.00  0.00    +0.000 HD
ENDROOT
BRANCH   3   5
ATOM      5  C   UNL     1       2.483   3.797  18.353  0.00  0.00    +0.000 A 
ATOM      6  C   UNL     1       2.216   2.423  18.410  0.00  0.00    +0.000 A 
ATOM      7  C   UNL     1       1.387   1.904  19.402  0.00  0.00    +0.000 A 
ATOM      8  C   UNL     1       0.824   2.758  20.338  0.00  0.00    +0.000 A 
ATOM      9  C   UNL     1       1.080   4.132  20.278  0.00  0.00    +0.000 A 
ATOM     10  C   UNL     1       1.903   4.700  19.278  0.00  0.00    +0.000 A 
BRANCH  10  11
ATOM     11  C   UNL     1       2.011   6.187  19.175  0.00  0.00    +0.000 A 
ATOM     12  C   UNL     1       2.375   6.859  17.995  0.00  0.00    +0.000 A 
ATOM     13  C   UNL     1       2.325   8.256  17.895  0.00  0.00    +0.000 A 
ATOM     14  C   UNL     1       1.979   9.023  19.001  0.00  0.00    +0.000 A 
ATOM     15  C   UNL     1       1.686   8.394  20.205  0.00  0.00    +0.000 A 
ATOM     16  C   UNL     1       1.688   6.997  20.284  0.00  0.00    +0.000 A 
ENDBRANCH  10  11
ENDBRANCH   3   5
BRANCH   2  17
ATOM     17  C   UNL     1       5.635   4.139  16.372  0.00  0.00    +0.000 A 
ATOM     18  C   UNL     1       5.133   3.617  15.160  0.00  0.00    +0.000 A 
ATOM     19  C   UNL     1       5.763   3.885  13.945  0.00  0.00    +0.000 A 
ATOM     20  C   UNL     1       6.876   4.715  13.913  0.00  0.00    +0.000 A 
ATOM     21  C   UNL     1       7.384   5.246  15.103  0.00  0.00    +0.000 A 
ATOM     22  C   UNL     1       6.796   4.932  16.347  0.00  0.00    +0.000 A 
BRANCH  22  23
ATOM     23  N   UNL     1       7.478   5.383  17.509  0.00  0.00    +0.000 N 
ATOM     24  C   UNL     1       7.552   6.630  18.077  0.00  0.00    +0.000 A 
ATOM     25  N   UNL     1       8.184   6.557  19.227  0.00  0.00    +0.000 NA
ATOM     26  N   UNL     1       8.505   5.238  19.388  0.00  0.00    +0.000 NA
ATOM     27  N   UNL     1       8.050   4.510  18.379  0.00  0.00    +0.000 NA
ENDBRANCH  22  23
ENDBRANCH   2  17
TORSDOF 4
ENDMDL
MODEL 3
REMARK VINA RESULT:      -8.8      0.426      1.030
REMARK  Name = 
REMARK  4 active torsions:
REMARK  status: ('A' for Active; 'I' for Inactive)
REMARK    1  A    between atoms: C_2  and  C_16
REMARK    2  A    between atoms: N_3  and  C_4
REMARK    3  A    between atoms: C_9  and  C_10
REMARK    4  A    between atoms: C_21  and  N_22
REMARK                            x       y       z     vdW  Elec       q    Type
REMARK                         _______ _______ _______ _____ _____    ______ ____
ROOT
ATOM      1  O   UNL     1       6.040   4.209  19.113  0.00  0.00    +0.000 OA
ATOM      2  C   UNL     1       5.337   4.412  18.136  0.00  0.00    +0.000 C 
ATOM      3  N   UNL     1       3.961   4.573  18.148  0.00  0.00    +0.000 N 
ATOM      4  H   UNL     1       3.496   4.412  17.269  0.00  0.00    +0.000 HD
ENDROOT
BRANCH   3   5
ATOM      5  C   UNL     1       3.201   4.226  19.285  0.00  0.00    +0.000 A 
ATOM      6  C   UNL     1       3.314   2.895  19.711  0.00  0.00    +0.000 A 
ATOM      7  C   UNL     1       2.706   2.477  20.892  0.00  0.00    +0.000 A 
ATOM      8  C   UNL     1       1.985   3.386  21.650  0.00  0.00    +0.000 A 
ATOM      9  C   UNL     1       1.862   4.713  21.223  0.00  0.00    +0.000 A 
ATOM     10  C   UNL     1       2.450   5.175  20.022  0.00  0.00    +0.000 A 
BRANCH  10  11
ATOM     11  C   UNL     1       2.152   6.558  19.543  0.00  0.00    +0.000 A 
ATOM     12  C   UNL     1       1.605   7.562  20.361  0.00  0.00    +0.000 A 
ATOM     13  C   UNL     1       1.475   8.885  19.919  0.00  0.00    +0.000 A 
ATOM     14  C   UNL     1       1.819   9.223  18.616  0.00  0.00    +0.000 A 
ATOM     15  C   UNL     1       2.292   8.239  17.756  0.00  0.00    +0.000 A 
ATOM     16  C   UNL     1       2.468   6.931  18.220  0.00  0.00    +0.000 A 
ENDBRANCH  10  11
ENDBRANCH   3   5
BRANCH   2  17
ATOM     17  C   UNL     1       5.964   4.506  16.783  0.00  0.00    +0.000 A 
ATOM     18  C   UNL     1       5.608   3.518  15.840  0.00  0.00    +0.000 A 
ATOM     19  C   UNL     1       5.999   3.623  14.506  0.00  0.00    +0.000 A 
ATOM     20  C   UNL     1       6.712   4.736  14.080  0.00  0.00    +0.000 A 
ATOM     21  C   UNL     1       7.070   5.728  15.000  0.00  0.00    +0.000 A 
ATOM     22  C   UNL     1       6.737   5.605  16.365  0.00  0.00    +0.000 A 
BRANCH  22  23
ATOM     23  N   UNL     1       7.284   6.576  17.246  0.00  0.00    +0.000 N 
ATOM     24  C   UNL     1       8.007   6.431  18.403  0.00  0.00    +0.000 A 
ATOM     25  N   UNL     1       8.426   7.606  18.815  0.00  0.00    +0.000 NA
ATOM     26  N   UNL     1       7.964   8.506  17.896  0.00  0.00    +0.000 NA
ATOM     27  N   UNL     1       7.307   7.895  16.920  0.00  0.00    +0.000 NA
ENDBRANCH  22  23
ENDBRANCH   2  17
TORSDOF 4
ENDMDL
MODEL 4
REMARK VINA RESULT:      -8.2      3.963      7.566
REMARK  Name = 
REMARK  4 active torsions:
REMARK  status: ('A' for Active; 'I' for Inactive)
REMARK    1  A    between atoms: C_2  and  C_16
REMARK    2  A    between atoms: N_3  and  C_4
REMARK    3  A    between atoms: C_9  and  C_10
REMARK    4  A    between atoms: C_21  and  N_22
REMARK                            x       y       z     vdW  Elec       q    Type
REMARK                         _______ _______ _______ _____ _____    ______ ____
ROOT
ATOM      1  O   UNL     1       1.254   8.884  17.873  0.00  0.00    +0.000 OA
ATOM      2  C   UNL     1       1.581   8.518  18.992  0.00  0.00    +0.000 C 
ATOM      3  N   UNL     1       2.633   7.667  19.289  0.00  0.00    +0.000 N 
ATOM      4  H   UNL     1       2.583   7.211  20.187  0.00  0.00    +0.000 HD
ENDROOT
BRANCH   3   5
ATOM      5  C   UNL     1       3.256   6.904  18.278  0.00  0.00    +0.000 A 
ATOM      6  C   UNL     1       3.944   7.635  17.300  0.00  0.00    +0.000 A 
ATOM      7  C   UNL     1       4.697   6.981  16.328  0.00  0.00    +0.000 A 
ATOM      8  C   UNL     1       4.764   5.596  16.333  0.00  0.00    +0.000 A 
ATOM      9  C   UNL     1       4.071   4.863  17.302  0.00  0.00    +0.000 A 
ATOM     10  C   UNL     1       3.282   5.488  18.296  0.00  0.00    +0.000 A 
BRANCH  10  11
ATOM     11  C   UNL     1       2.444   4.647  19.202  0.00  0.00    +0.000 A 
ATOM     12  C   UNL     1       1.414   3.805  18.749  0.00  0.00    +0.000 A 
ATOM     13  C   UNL     1       0.746   2.924  19.610  0.00  0.00    +0.000 A 
ATOM     14  C   UNL     1       1.042   2.917  20.968  0.00  0.00    +0.000 A 
ATOM     15  C   UNL     1       2.003   3.791  21.463  0.00  0.00    +0.000 A 
ATOM     16  C   UNL     1       2.701   4.631  20.590  0.00  0.00    +0.000 A 
ENDBRANCH  10  11
ENDBRANCH   3   5
BRANCH   2  17
ATOM     17  C   UNL     1       0.816   9.004  20.180  0.00  0.00    +0.000 A 
ATOM     18  C   UNL     1       1.233   8.540  21.446  0.00  0.00    +0.000 A 
ATOM     19  C   UNL     1       0.700   9.073  22.619  0.00  0.00    +0.000 A 
ATOM     20  C   UNL     1      -0.223  10.108  22.550  0.00  0.00    +0.000 A 
ATOM     21  C   UNL     1      -0.645  10.584  21.304  0.00  0.00    +0.000 A 
ATOM     22  C   UNL     1      -0.163  10.012  20.108  0.00  0.00    +0.000 A 
BRANCH  22  23
ATOM     23  N   UNL     1      -0.770  10.449  18.900  0.00  0.00    +0.000 N 
ATOM     24  C   UNL     1      -1.724   9.857  18.112  0.00  0.00    +0.000 A 
ATOM     25  N   UNL     1      -2.090  10.687  17.160  0.00  0.00    +0.000 NA
ATOM     26  N   UNL     1      -1.358  11.824  17.360  0.00  0.00    +0.000 NA
ATOM     27  N   UNL     1      -0.587  11.711  18.431  0.00  0.00    +0.000 NA
ENDBRANCH  22  23
ENDBRANCH   2  17
TORSDOF 4
ENDMDL
MODEL 5
REMARK VINA RESULT:      -8.2      3.889      7.338
REMARK  Name = 
REMARK  4 active torsions:
REMARK  status: ('A' for Active; 'I' for Inactive)
REMARK    1  A    between atoms: C_2  and  C_16
REMARK    2  A    between atoms: N_3  and  C_4
REMARK    3  A    between atoms: C_9  and  C_10
REMARK    4  A    between atoms: C_21  and  N_22
REMARK                            x       y       z     vdW  Elec       q    Type
REMARK                         _______ _______ _______ _____ _____    ______ ____
ROOT
ATOM      1  O   UNL     1       1.388   9.120  17.979  0.00  0.00    +0.000 OA
ATOM      2  C   UNL     1       1.576   8.646  19.088  0.00  0.00    +0.000 C 
ATOM      3  N   UNL     1       2.518   7.681  19.407  0.00  0.00    +0.000 N 
ATOM      4  H   UNL     1       2.344   7.168  20.257  0.00  0.00    +0.000 HD
ENDROOT
BRANCH   3   5
ATOM      5  C   UNL     1       3.166   6.939  18.397  0.00  0.00    +0.000 A 
ATOM      6  C   UNL     1       3.830   7.692  17.419  0.00  0.00    +0.000 A 
ATOM      7  C   UNL     1       4.605   7.063  16.448  0.00  0.00    +0.000 A 
ATOM      8  C   UNL     1       4.717   5.681  16.452  0.00  0.00    +0.000 A 
ATOM      9  C   UNL     1       4.047   4.925  17.420  0.00  0.00    +0.000 A 
ATOM     10  C   UNL     1       3.238   5.524  18.414  0.00  0.00    +0.000 A 
BRANCH  10  11
ATOM     11  C   UNL     1       2.426   4.657  19.320  0.00  0.00    +0.000 A 
ATOM     12  C   UNL     1       1.359   3.856  18.878  0.00  0.00    +0.000 A 
ATOM     13  C   UNL     1       0.715   2.947  19.728  0.00  0.00    +0.000 A 
ATOM     14  C   UNL     1       1.075   2.871  21.068  0.00  0.00    +0.000 A 
ATOM     15  C   UNL     1       2.075   3.703  21.557  0.00  0.00    +0.000 A 
ATOM     16  C   UNL     1       2.748   4.571  20.691  0.00  0.00    +0.000 A 
ENDBRANCH  10  11
ENDBRANCH   3   5
BRANCH   2  17
ATOM     17  C   UNL     1       0.747   9.113  20.240  0.00  0.00    +0.000 A 
ATOM     18  C   UNL     1       0.367   8.144  21.193  0.00  0.00    +0.000 A 
ATOM     19  C   UNL     1      -0.251   8.512  22.388  0.00  0.00    +0.000 A 
ATOM     20  C   UNL     1      -0.459   9.855  22.672  0.00  0.00    +0.000 A 
ATOM     21  C   UNL     1      -0.085  10.831  21.741  0.00  0.00    +0.000 A 
ATOM     22  C   UNL     1       0.483  10.471  20.501  0.00  0.00    +0.000 A 
BRANCH  22  23
ATOM     23  N   UNL     1       0.677  11.516  19.559  0.00  0.00    +0.000 N 
ATOM     24  C   UNL     1      -0.217  12.170  18.749  0.00  0.00    +0.000 A 
ATOM     25  N   UNL     1       0.385  13.166  18.138  0.00  0.00    +0.000 NA
ATOM     26  N   UNL     1       1.679  13.142  18.578  0.00  0.00    +0.000 NA
ATOM     27  N   UNL     1       1.861  12.177  19.468  0.00  0.00    +0.000 NA
ENDBRANCH  22  23
ENDBRANCH   2  17
TORSDOF 4
ENDMDL
MODEL 6
REMARK VINA RESULT:      -8.1      1.177      3.499
REMARK  Name = 
REMARK  4 active torsions:
REMARK  status: ('A' for Active; 'I' for Inactive)
REMARK    1  A    between atoms: C_2  and  C_16
REMARK    2  A    between atoms: N_3  and  C_4
REMARK    3  A    between atoms: C_9  and  C_10
REMARK    4  A    between atoms: C_21  and  N_22
REMARK                            x       y       z     vdW  Elec       q    Type
REMARK                         _______ _______ _______ _____ _____    ______ ____
ROOT
ATOM      1  O   UNL     1       4.735   5.715  19.892  0.00  0.00    +0.000 OA
ATOM      2  C   UNL     1       4.273   5.858  18.771  0.00  0.00    +0.000 C 
ATOM      3  N   UNL     1       3.160   6.615  18.445  0.00  0.00    +0.000 N 
ATOM      4  H   UNL     1       2.719   6.385  17.568  0.00  0.00    +0.000 HD
ENDROOT
BRANCH   3   5
ATOM      5  C   UNL     1       2.275   7.070  19.445  0.00  0.00    +0.000 A 
ATOM      6  C   UNL     1       2.191   8.460  19.600  0.00  0.00    +0.000 A 
ATOM      7  C   UNL     1       1.260   9.020  20.470  0.00  0.00    +0.000 A 
ATOM      8  C   UNL     1       0.410   8.192  21.187  0.00  0.00    +0.000 A 
ATOM      9  C   UNL     1       0.496   6.803  21.043  0.00  0.00    +0.000 A 
ATOM     10  C   UNL     1       1.439   6.194  20.182  0.00  0.00    +0.000 A 
BRANCH  10  11
ATOM     11  C   UNL     1       1.587   4.708  20.190  0.00  0.00    +0.000 A 
ATOM     12  C   UNL     1       1.229   3.885  19.108  0.00  0.00    +0.000 A 
ATOM     13  C   UNL     1       1.516   2.514  19.095  0.00  0.00    +0.000 A 
ATOM     14  C   UNL     1       2.104   1.914  20.202  0.00  0.00    +0.000 A 
ATOM     15  C   UNL     1       2.401   2.683  21.320  0.00  0.00    +0.000 A 
ATOM     16  C   UNL     1       2.159   4.061  21.306  0.00  0.00    +0.000 A 
ENDBRANCH  10  11
ENDBRANCH   3   5
BRANCH   2  17
ATOM     17  C   UNL     1       4.928   5.180  17.611  0.00  0.00    +0.000 A 
ATOM     18  C   UNL     1       4.241   4.091  17.033  0.00  0.00    +0.000 A 
ATOM     19  C   UNL     1       4.683   3.512  15.843  0.00  0.00    +0.000 A 
ATOM     20  C   UNL     1       5.788   4.038  15.188  0.00  0.00    +0.000 A 
ATOM     21  C   UNL     1       6.479   5.120  15.744  0.00  0.00    +0.000 A 
ATOM     22  C   UNL     1       6.083   5.676  16.978  0.00  0.00    +0.000 A 
BRANCH  22  23
ATOM     23  N   UNL     1       6.940   6.660  17.540  0.00  0.00    +0.000 N 
ATOM     24  C   UNL     1       7.854   6.575  18.560  0.00  0.00    +0.000 A 
ATOM     25  N   UNL     1       8.522   7.703  18.651  0.00  0.00    +0.000 NA
ATOM     26  N   UNL     1       8.024   8.509  17.665  0.00  0.00    +0.000 NA
ATOM     27  N   UNL     1       7.097   7.878  16.959  0.00  0.00    +0.000 NA
ENDBRANCH  22  23
ENDBRANCH   2  17
TORSDOF 4
ENDMDL
MODEL 7
REMARK VINA RESULT:      -8.1      3.228      6.140
REMARK  Name = 
REMARK  4 active torsions:
REMARK  status: ('A' for Active; 'I' for Inactive)
REMARK    1  A    between atoms: C_2  and  C_16
REMARK    2  A    between atoms: N_3  and  C_4
REMARK    3  A    between atoms: C_9  and  C_10
REMARK    4  A    between atoms: C_21  and  N_22
REMARK                            x       y       z     vdW  Elec       q    Type
REMARK                         _______ _______ _______ _____ _____    ______ ____
ROOT
ATOM      1  O   UNL     1       2.207   6.467  20.783  0.00  0.00    +0.000 OA
ATOM      2  C   UNL     1       2.060   6.763  19.608  0.00  0.00    +0.000 C 
ATOM      3  N   UNL     1       1.940   5.869  18.557  0.00  0.00    +0.000 N 
ATOM      4  H   UNL     1       2.145   6.242  17.643  0.00  0.00    +0.000 HD
ENDROOT
BRANCH   3   5
ATOM      5  C   UNL     1       2.270   4.507  18.722  0.00  0.00    +0.000 A 
ATOM      6  C   UNL     1       1.228   3.676  19.155  0.00  0.00    +0.000 A 
ATOM      7  C   UNL     1       1.410   2.297  19.233  0.00  0.00    +0.000 A 
ATOM      8  C   UNL     1       2.632   1.747  18.877  0.00  0.00    +0.000 A 
ATOM      9  C   UNL     1       3.678   2.575  18.454  0.00  0.00    +0.000 A 
ATOM     10  C   UNL     1       3.539   3.981  18.377  0.00  0.00    +0.000 A 
BRANCH  10  11
ATOM     11  C   UNL     1       4.736   4.820  18.069  0.00  0.00    +0.000 A 
ATOM     12  C   UNL     1       4.878   5.567  16.887  0.00  0.00    +0.000 A 
ATOM     13  C   UNL     1       5.946   6.455  16.698  0.00  0.00    +0.000 A 
ATOM     14  C   UNL     1       6.944   6.562  17.659  0.00  0.00    +0.000 A 
ATOM     15  C   UNL     1       6.874   5.781  18.807  0.00  0.00    +0.000 A 
ATOM     16  C   UNL     1       5.779   4.935  19.013  0.00  0.00    +0.000 A 
ENDBRANCH  10  11
ENDBRANCH   3   5
BRANCH   2  17
ATOM     17  C   UNL     1       1.994   8.203  19.214  0.00  0.00    +0.000 A 
ATOM     18  C   UNL     1       2.594   8.561  17.988  0.00  0.00    +0.000 A 
ATOM     19  C   UNL     1       2.429   9.838  17.452  0.00  0.00    +0.000 A 
ATOM     20  C   UNL     1       1.627  10.763  18.106  0.00  0.00    +0.000 A 
ATOM     21  C   UNL     1       1.021  10.425  19.321  0.00  0.00    +0.000 A 
ATOM     22  C   UNL     1       1.229   9.160  19.907  0.00  0.00    +0.000 A 
BRANCH  22  23
ATOM     23  N   UNL     1       0.708   8.967  21.215  0.00  0.00    +0.000 N 
ATOM     24  C   UNL     1       1.178   9.378  22.437  0.00  0.00    +0.000 A 
ATOM     25  N   UNL     1       0.297   9.094  23.369  0.00  0.00    +0.000 NA
ATOM     26  N   UNL     1      -0.750   8.500  22.721  0.00  0.00    +0.000 NA
ATOM     27  N   UNL     1      -0.534   8.454  21.414  0.00  0.00    +0.000 NA
ENDBRANCH  22  23
ENDBRANCH   2  17
TORSDOF 4
ENDMDL
MODEL 8
REMARK VINA RESULT:      -8.1      3.393      6.288
REMARK  Name = 
REMARK  4 active torsions:
REMARK  status: ('A' for Active; 'I' for Inactive)
REMARK    1  A    between atoms: C_2  and  C_16
REMARK    2  A    between atoms: N_3  and  C_4
REMARK    3  A    between atoms: C_9  and  C_10
REMARK    4  A    between atoms: C_21  and  N_22
REMARK                            x       y       z     vdW  Elec       q    Type
REMARK                         _______ _______ _______ _____ _____    ______ ____
ROOT
ATOM      1  O   UNL     1       2.023   6.749  20.997  0.00  0.00    +0.000 OA
ATOM      2  C   UNL     1       1.971   7.009  19.805  0.00  0.00    +0.000 C 
ATOM      3  N   UNL     1       1.980   6.085  18.774  0.00  0.00    +0.000 N 
ATOM      4  H   UNL     1       2.254   6.442  17.872  0.00  0.00    +0.000 HD
ENDROOT
BRANCH   3   5
ATOM      5  C   UNL     1       2.346   4.742  19.008  0.00  0.00    +0.000 A 
ATOM      6  C   UNL     1       1.316   3.897  19.443  0.00  0.00    +0.000 A 
ATOM      7  C   UNL     1       1.535   2.529  19.585  0.00  0.00    +0.000 A 
ATOM      8  C   UNL     1       2.784   2.003  19.292  0.00  0.00    +0.000 A 
ATOM      9  C   UNL     1       3.818   2.845  18.867  0.00  0.00    +0.000 A 
ATOM     10  C   UNL     1       3.641   4.241  18.725  0.00  0.00    +0.000 A 
BRANCH  10  11
ATOM     11  C   UNL     1       4.821   5.103  18.420  0.00  0.00    +0.000 A 
ATOM     12  C   UNL     1       5.983   5.138  19.210  0.00  0.00    +0.000 A 
ATOM     13  C   UNL     1       7.126   5.847  18.815  0.00  0.00    +0.000 A 
ATOM     14  C   UNL     1       7.108   6.604  17.651  0.00  0.00    +0.000 A 
ATOM     15  C   UNL     1       5.950   6.654  16.884  0.00  0.00    +0.000 A 
ATOM     16  C   UNL     1       4.831   5.903  17.257  0.00  0.00    +0.000 A 
ENDBRANCH  10  11
ENDBRANCH   3   5
BRANCH   2  17
ATOM     17  C   UNL     1       1.887   8.435  19.365  0.00  0.00    +0.000 A 
ATOM     18  C   UNL     1       2.417   8.747  18.095  0.00  0.00    +0.000 A 
ATOM     19  C   UNL     1       2.226  10.005  17.525  0.00  0.00    +0.000 A 
ATOM     20  C   UNL     1       1.465  10.956  18.190  0.00  0.00    +0.000 A 
ATOM     21  C   UNL     1       0.927  10.664  19.448  0.00  0.00    +0.000 A 
ATOM     22  C   UNL     1       1.165   9.418  20.067  0.00  0.00    +0.000 A 
BRANCH  22  23
ATOM     23  N   UNL     1       0.718   9.274  21.407  0.00  0.00    +0.000 N 
ATOM     24  C   UNL     1       1.329   9.589  22.595  0.00  0.00    +0.000 A 
ATOM     25  N   UNL     1       0.487   9.412  23.588  0.00  0.00    +0.000 NA
ATOM     26  N   UNL     1      -0.678   8.986  23.013  0.00  0.00    +0.000 NA
ATOM     27  N   UNL     1      -0.567   8.938  21.693  0.00  0.00    +0.000 NA
ENDBRANCH  22  23
ENDBRANCH   2  17
TORSDOF 4
ENDMDL
MODEL 9
REMARK VINA RESULT:      -8.0      4.795      7.814
REMARK  Name = 
REMARK  4 active torsions:
REMARK  status: ('A' for Active; 'I' for Inactive)
REMARK    1  A    between atoms: C_2  and  C_16
REMARK    2  A    between atoms: N_3  and  C_4
REMARK    3  A    between atoms: C_9  and  C_10
REMARK    4  A    between atoms: C_21  and  N_22
REMARK                            x       y       z     vdW  Elec       q    Type
REMARK                         _______ _______ _______ _____ _____    ______ ____
ROOT
ATOM      1  O   UNL     1       2.143  10.057  17.599  0.00  0.00    +0.000 OA
ATOM      2  C   UNL     1       1.571   9.640  18.593  0.00  0.00    +0.000 C 
ATOM      3  N   UNL     1       0.696  10.363  19.386  0.00  0.00    +0.000 N 
ATOM      4  H   UNL     1       0.561  10.009  20.320  0.00  0.00    +0.000 HD
ENDROOT
BRANCH   3   5
ATOM      5  C   UNL     1       0.606  11.767  19.273  0.00  0.00    +0.000 A 
ATOM      6  C   UNL     1       1.698  12.490  19.771  0.00  0.00    +0.000 A 
ATOM      7  C   UNL     1       1.770  13.870  19.599  0.00  0.00    +0.000 A 
ATOM      8  C   UNL     1       0.752  14.530  18.929  0.00  0.00    +0.000 A 
ATOM      9  C   UNL     1      -0.345  13.813  18.439  0.00  0.00    +0.000 A 
ATOM     10  C   UNL     1      -0.464  12.413  18.606  0.00  0.00    +0.000 A 
BRANCH  10  11
ATOM     11  C   UNL     1      -1.729  11.731  18.200  0.00  0.00    +0.000 A 
ATOM     12  C   UNL     1      -1.781  10.684  17.264  0.00  0.00    +0.000 A 
ATOM     13  C   UNL     1      -2.962   9.972  17.016  0.00  0.00    +0.000 A 
ATOM     14  C   UNL     1      -4.145  10.340  17.646  0.00  0.00    +0.000 A 
ATOM     15  C   UNL     1      -4.146  11.420  18.521  0.00  0.00    +0.000 A 
ATOM     16  C   UNL     1      -2.952  12.094  18.803  0.00  0.00    +0.000 A 
ENDBRANCH  10  11
ENDBRANCH   3   5
BRANCH   2  17
ATOM     17  C   UNL     1       1.798   8.231  19.038  0.00  0.00    +0.000 A 
ATOM     18  C   UNL     1       2.372   7.347  18.099  0.00  0.00    +0.000 A 
ATOM     19  C   UNL     1       2.785   6.069  18.474  0.00  0.00    +0.000 A 
ATOM     20  C   UNL     1       2.675   5.669  19.799  0.00  0.00    +0.000 A 
ATOM     21  C   UNL     1       2.112   6.533  20.744  0.00  0.00    +0.000 A 
ATOM     22  C   UNL     1       1.632   7.805  20.368  0.00  0.00    +0.000 A 
BRANCH  22  23
ATOM     23  N   UNL     1       0.932   8.543  21.360  0.00  0.00    +0.000 N 
ATOM     24  C   UNL     1      -0.375   8.473  21.773  0.00  0.00    +0.000 A 
ATOM     25  N   UNL     1      -0.552   9.252  22.817  0.00  0.00    +0.000 NA
ATOM     26  N   UNL     1       0.668   9.814  23.070  0.00  0.00    +0.000 NA
ATOM     27  N   UNL     1       1.584   9.365  22.224  0.00  0.00    +0.000 NA
ENDBRANCH  22  23
ENDBRANCH   2  17
TORSDOF 4
ENDMDL
