MODEL 1
REMARK VINA RESULT:      -8.4      0.000      0.000
REMARK  Name = 
REMARK  6 active torsions:
REMARK  status: ('A' for Active; 'I' for Inactive)
REMARK    1  A    between atoms: C_2  and  O_3
REMARK    2  A    between atoms: C_2  and  C_4
REMARK    3  A    between atoms: C_4  and  C_5
REMARK    4  A    between atoms: C_5  and  N_6
REMARK    5  A    between atoms: C_5  and  C_18
REMARK    6  A    between atoms: C_7  and  C_9
REMARK                            x       y       z     vdW  Elec       q    Type
REMARK                         _______ _______ _______ _____ _____    ______ ____
ROOT
ATOM      1  C   UNL     1       1.210   9.476  20.851  0.00  0.00    +0.000 C 
ENDROOT
BRANCH   1   2
ATOM      2  C   UNL     1       1.599   8.233  20.066  0.00  0.00    +0.000 A 
ATOM      3  C   UNL     1       2.033   8.355  18.740  0.00  0.00    +0.000 A 
ATOM      4  C   UNL     1       2.451   7.235  18.027  0.00  0.00    +0.000 A 
ATOM      5  C   UNL     1       2.452   5.964  18.621  0.00  0.00    +0.000 A 
ATOM      6  C   UNL     1       2.902   4.835  17.923  0.00  0.00    +0.000 A 
ATOM      7  C   UNL     1       2.911   3.579  18.534  0.00  0.00    +0.000 A 
ATOM      8  C   UNL     1       2.459   3.436  19.841  0.00  0.00    +0.000 A 
ATOM      9  C   UNL     1       2.004   4.550  20.548  0.00  0.00    +0.000 A 
ATOM     10  C   UNL     1       2.002   5.822  19.952  0.00  0.00    +0.000 A 
ATOM     11  C   UNL     1       1.575   6.958  20.656  0.00  0.00    +0.000 A 
ENDBRANCH   1   2
BRANCH   1  12
ATOM     12  N   UNL     1      -0.120   9.926  20.436  0.00  0.00    +0.000 N 
ATOM     13  C   UNL     1      -0.258  11.091  19.704  0.00  0.00    +0.000 C 
ATOM     14  O   UNL     1       0.689  11.824  19.431  0.00  0.00    +0.000 OA
ATOM     15  H   UNL     1      -0.834   9.229  20.284  0.00  0.00    +0.000 HD
BRANCH  13  16
ATOM     16  C   UNL     1      -1.610  11.390  19.279  0.00  0.00    +0.000 A 
ATOM     17  C   UNL     1      -2.603  12.202  19.881  0.00  0.00    +0.000 A 
ATOM     18  N   UNL     1      -3.722  12.287  19.157  0.00  0.00    +0.000 NA
ATOM     19  N   UNL     1      -3.441  11.554  18.065  0.00  0.00    +0.000 N 
ATOM     20  C   UNL     1      -2.205  10.970  18.101  0.00  0.00    +0.000 A 
ATOM     21  C   UNL     1      -1.718  10.102  16.990  0.00  0.00    +0.000 C 
ATOM     22  C   UNL     1      -2.876   9.603  16.122  0.00  0.00    +0.000 C 
ATOM     23  C   UNL     1      -3.806  10.762  15.755  0.00  0.00    +0.000 C 
ATOM     24  C   UNL     1      -4.425  11.372  17.013  0.00  0.00    +0.000 C 
ENDBRANCH  13  16
ENDBRANCH   1  12
BRANCH   1  25
ATOM     25  C   UNL     1       1.236   9.218  22.363  0.00  0.00    +0.000 C 
BRANCH  25  27
ATOM     26  O   UNL     1      -0.371  10.653  23.479  0.00  0.00    +0.000 OA
ATOM     27  C   UNL     1      -0.083   9.563  23.016  0.00  0.00    +0.000 C 
BRANCH  27  28
ATOM     28  O   UNL     1      -0.965   8.537  22.990  0.00  0.00    +0.000 OA
ATOM     29  H   UNL     1      -0.569   7.649  23.079  0.00  0.00    +0.000 HD
ENDBRANCH  27  28
ENDBRANCH  25  27
ENDBRANCH   1  25
TORSDOF 6
ENDMDL
MODEL 2
REMARK VINA RESULT:      -8.1      5.434      8.148
REMARK  Name = 
REMARK  6 active torsions:
REMARK  status: ('A' for Active; 'I' for Inactive)
REMARK    1  A    between atoms: C_2  and  O_3
REMARK    2  A    between atoms: C_2  and  C_4
REMARK    3  A    between atoms: C_4  and  C_5
REMARK    4  A    between atoms: C_5  and  N_6
REMARK    5  A    between atoms: C_5  and  C_18
REMARK    6  A    between atoms: C_7  and  C_9
REMARK                            x       y       z     vdW  Elec       q    Type
REMARK                         _______ _______ _______ _____ _____    ______ ____
ROOT
ATOM      1  C   UNL     1       6.069   6.458  17.246  0.00  0.00    +0.000 C 
ENDROOT
BRANCH   1   2
ATOM      2  C   UNL     1       6.106   5.557  16.023  0.00  0.00    +0.000 A 
ATOM      3  C   UNL     1       5.231   4.466  15.933  0.00  0.00    +0.000 A 
ATOM      4  C   UNL     1       5.210   3.668  14.794  0.00  0.00    +0.000 A 
ATOM      5  C   UNL     1       6.057   3.940  13.709  0.00  0.00    +0.000 A 
ATOM      6  C   UNL     1       6.021   3.162  12.545  0.00  0.00    +0.000 A 
ATOM      7  C   UNL     1       6.861   3.455  11.467  0.00  0.00    +0.000 A 
ATOM      8  C   UNL     1       7.754   4.518  11.549  0.00  0.00    +0.000 A 
ATOM      9  C   UNL     1       7.805   5.300  12.705  0.00  0.00    +0.000 A 
ATOM     10  C   UNL     1       6.957   5.026  13.790  0.00  0.00    +0.000 A 
ATOM     11  C   UNL     1       6.974   5.817  14.949  0.00  0.00    +0.000 A 
ENDBRANCH   1   2
BRANCH   1  12
ATOM     12  N   UNL     1       5.067   5.966  18.193  0.00  0.00    +0.000 N 
ATOM     13  C   UNL     1       3.793   6.505  18.195  0.00  0.00    +0.000 C 
ATOM     14  O   UNL     1       3.465   7.443  17.473  0.00  0.00    +0.000 OA
ATOM     15  H   UNL     1       5.134   5.008  18.504  0.00  0.00    +0.000 HD
BRANCH  13  16
ATOM     16  C   UNL     1       2.865   5.881  19.116  0.00  0.00    +0.000 A 
ATOM     17  C   UNL     1       2.244   6.395  20.281  0.00  0.00    +0.000 A 
ATOM     18  N   UNL     1       1.392   5.534  20.845  0.00  0.00    +0.000 NA
ATOM     19  N   UNL     1       1.436   4.471  20.022  0.00  0.00    +0.000 N 
ATOM     20  C   UNL     1       2.323   4.613  18.991  0.00  0.00    +0.000 A 
ATOM     21  C   UNL     1       2.529   3.533  17.983  0.00  0.00    +0.000 C 
ATOM     22  C   UNL     1       2.025   2.182  18.499  0.00  0.00    +0.000 C 
ATOM     23  C   UNL     1       0.625   2.329  19.099  0.00  0.00    +0.000 C 
ATOM     24  C   UNL     1       0.650   3.282  20.296  0.00  0.00    +0.000 C 
ENDBRANCH  13  16
ENDBRANCH   1  12
BRANCH   1  25
ATOM     25  C   UNL     1       7.443   6.545  17.924  0.00  0.00    +0.000 C 
BRANCH  25  27
ATOM     26  O   UNL     1       7.542   5.499  20.111  0.00  0.00    +0.000 OA
ATOM     27  C   UNL     1       7.661   5.413  18.901  0.00  0.00    +0.000 C 
BRANCH  27  28
ATOM     28  O   UNL     1       7.956   4.242  18.289  0.00  0.00    +0.000 OA
ATOM     29  H   UNL     1       8.703   3.749  18.678  0.00  0.00    +0.000 HD
ENDBRANCH  27  28
ENDBRANCH  25  27
ENDBRANCH   1  25
TORSDOF 6
ENDMDL
MODEL 3
REMARK VINA RESULT:      -8.0      5.369      8.794
REMARK  Name = 
REMARK  6 active torsions:
REMARK  status: ('A' for Active; 'I' for Inactive)
REMARK    1  A    between atoms: C_2  and  O_3
REMARK    2  A    between atoms: C_2  and  C_4
REMARK    3  A    between atoms: C_4  and  C_5
REMARK    4  A    between atoms: C_5  and  N_6
REMARK    5  A    between atoms: C_5  and  C_18
REMARK    6  A    between atoms: C_7  and  C_9
REMARK                            x       y       z     vdW  Elec       q    Type
REMARK                         _______ _______ _______ _____ _____    ______ ____
ROOT
ATOM      1  C   UNL     1       3.553   5.340  18.484  0.00  0.00    +0.000 C 
ENDROOT
BRANCH   1   2
ATOM      2  C   UNL     1       2.862   6.674  18.716  0.00  0.00    +0.000 A 
ATOM      3  C   UNL     1       2.825   7.628  17.691  0.00  0.00    +0.000 A 
ATOM      4  C   UNL     1       2.144   8.829  17.866  0.00  0.00    +0.000 A 
ATOM      5  C   UNL     1       1.477   9.109  19.068  0.00  0.00    +0.000 A 
ATOM      6  C   UNL     1       0.762  10.301  19.242  0.00  0.00    +0.000 A 
ATOM      7  C   UNL     1       0.090  10.558  20.440  0.00  0.00    +0.000 A 
ATOM      8  C   UNL     1       0.137   9.634  21.478  0.00  0.00    +0.000 A 
ATOM      9  C   UNL     1       0.849   8.443  21.321  0.00  0.00    +0.000 A 
ATOM     10  C   UNL     1       1.518   8.165  20.117  0.00  0.00    +0.000 A 
ATOM     11  C   UNL     1       2.216   6.962  19.931  0.00  0.00    +0.000 A 
ENDBRANCH   1   2
BRANCH   1  12
ATOM     12  N   UNL     1       4.611   5.499  17.485  0.00  0.00    +0.000 N 
ATOM     13  C   UNL     1       4.893   4.468  16.607  0.00  0.00    +0.000 C 
ATOM     14  O   UNL     1       4.337   3.374  16.662  0.00  0.00    +0.000 OA
ATOM     15  H   UNL     1       4.810   6.427  17.143  0.00  0.00    +0.000 HD
BRANCH  13  16
ATOM     16  C   UNL     1       5.900   4.771  15.610  0.00  0.00    +0.000 A 
ATOM     17  C   UNL     1       7.093   5.527  15.712  0.00  0.00    +0.000 A 
ATOM     18  N   UNL     1       7.807   5.537  14.583  0.00  0.00    +0.000 NA
ATOM     19  N   UNL     1       7.090   4.756  13.757  0.00  0.00    +0.000 N 
ATOM     20  C   UNL     1       5.925   4.298  14.308  0.00  0.00    +0.000 A 
ATOM     21  C   UNL     1       4.984   3.433  13.541  0.00  0.00    +0.000 C 
ATOM     22  C   UNL     1       5.236   3.530  12.035  0.00  0.00    +0.000 C 
ATOM     23  C   UNL     1       6.729   3.387  11.733  0.00  0.00    +0.000 C 
ATOM     24  C   UNL     1       7.521   4.518  12.391  0.00  0.00    +0.000 C 
ENDBRANCH  13  16
ENDBRANCH   1  12
BRANCH   1  25
ATOM     25  C   UNL     1       4.132   4.771  19.786  0.00  0.00    +0.000 C 
BRANCH  25  27
ATOM     26  O   UNL     1       2.834   2.773  20.245  0.00  0.00    +0.000 OA
ATOM     27  C   UNL     1       3.888   3.285  19.908  0.00  0.00    +0.000 C 
BRANCH  27  28
ATOM     28  O   UNL     1       4.961   2.545  19.543  0.00  0.00    +0.000 OA
ATOM     29  H   UNL     1       5.347   2.777  18.677  0.00  0.00    +0.000 HD
ENDBRANCH  27  28
ENDBRANCH  25  27
ENDBRANCH   1  25
TORSDOF 6
ENDMDL
MODEL 4
REMARK VINA RESULT:      -7.9      1.007      2.024
REMARK  Name = 
REMARK  6 active torsions:
REMARK  status: ('A' for Active; 'I' for Inactive)
REMARK    1  A    between atoms: C_2  and  O_3
REMARK    2  A    between atoms: C_2  and  C_4
REMARK    3  A    between atoms: C_4  and  C_5
REMARK    4  A    between atoms: C_5  and  N_6
REMARK    5  A    between atoms: C_5  and  C_18
REMARK    6  A    between atoms: C_7  and  C_9
REMARK                            x       y       z     vdW  Elec       q    Type
REMARK                         _______ _______ _______ _____ _____    ______ ____
ROOT
ATOM      1  C   UNL     1       1.428   8.981  20.612  0.00  0.00    +0.000 C 
ENDROOT
BRANCH   1   2
ATOM      2  C   UNL     1       1.750   7.610  20.038  0.00  0.00    +0.000 A 
ATOM      3  C   UNL     1       2.392   7.508  18.798  0.00  0.00    +0.000 A 
ATOM      4  C   UNL     1       2.749   6.264  18.287  0.00  0.00    +0.000 A 
ATOM      5  C   UNL     1       2.478   5.088  19.002  0.00  0.00    +0.000 A 
ATOM      6  C   UNL     1       2.861   3.833  18.511  0.00  0.00    +0.000 A 
ATOM      7  C   UNL     1       2.598   2.672  19.243  0.00  0.00    +0.000 A 
ATOM      8  C   UNL     1       1.937   2.753  20.464  0.00  0.00    +0.000 A 
ATOM      9  C   UNL     1       1.545   3.996  20.964  0.00  0.00    +0.000 A 
ATOM     10  C   UNL     1       1.816   5.173  20.246  0.00  0.00    +0.000 A 
ATOM     11  C   UNL     1       1.454   6.433  20.746  0.00  0.00    +0.000 A 
ENDBRANCH   1   2
BRANCH   1  12
ATOM     12  N   UNL     1       0.136   9.440  20.101  0.00  0.00    +0.000 N 
ATOM     13  C   UNL     1       0.087  10.363  19.072  0.00  0.00    +0.000 C 
ATOM     14  O   UNL     1       1.092  10.882  18.594  0.00  0.00    +0.000 OA
ATOM     15  H   UNL     1      -0.652   8.811  20.158  0.00  0.00    +0.000 HD
BRANCH  13  16
ATOM     16  C   UNL     1      -1.244  10.677  18.593  0.00  0.00    +0.000 A 
ATOM     17  C   UNL     1      -1.939  10.214  17.449  0.00  0.00    +0.000 A 
ATOM     18  N   UNL     1      -3.187  10.685  17.367  0.00  0.00    +0.000 NA
ATOM     19  N   UNL     1      -3.311  11.428  18.480  0.00  0.00    +0.000 N 
ATOM     20  C   UNL     1      -2.170  11.484  19.232  0.00  0.00    +0.000 A 
ATOM     21  C   UNL     1      -2.103  12.275  20.495  0.00  0.00    +0.000 C 
ATOM     22  C   UNL     1      -3.224  13.315  20.563  0.00  0.00    +0.000 C 
ATOM     23  C   UNL     1      -4.568  12.677  20.201  0.00  0.00    +0.000 C 
ATOM     24  C   UNL     1      -4.541  12.145  18.767  0.00  0.00    +0.000 C 
ENDBRANCH  13  16
ENDBRANCH   1  12
BRANCH   1  25
ATOM     25  C   UNL     1       1.416   8.961  22.146  0.00  0.00    +0.000 C 
BRANCH  25  27
ATOM     26  O   UNL     1      -0.119  10.608  23.050  0.00  0.00    +0.000 OA
ATOM     27  C   UNL     1       0.103   9.460  22.705  0.00  0.00    +0.000 C 
BRANCH  27  28
ATOM     28  O   UNL     1      -0.852   8.502  22.737  0.00  0.00    +0.000 OA
ATOM     29  H   UNL     1      -1.606   8.650  22.136  0.00  0.00    +0.000 HD
ENDBRANCH  27  28
ENDBRANCH  25  27
ENDBRANCH   1  25
TORSDOF 6
ENDMDL
MODEL 5
REMARK VINA RESULT:      -7.7      5.235      8.842
REMARK  Name = 
REMARK  6 active torsions:
REMARK  status: ('A' for Active; 'I' for Inactive)
REMARK    1  A    between atoms: C_2  and  O_3
REMARK    2  A    between atoms: C_2  and  C_4
REMARK    3  A    between atoms: C_4  and  C_5
REMARK    4  A    between atoms: C_5  and  N_6
REMARK    5  A    between atoms: C_5  and  C_18
REMARK    6  A    between atoms: C_7  and  C_9
REMARK                            x       y       z     vdW  Elec       q    Type
REMARK                         _______ _______ _______ _____ _____    ______ ____
ROOT
ATOM      1  C   UNL     1       3.037   4.777  18.416  0.00  0.00    +0.000 C 
ENDROOT
BRANCH   1   2
ATOM      2  C   UNL     1       2.426   6.047  18.985  0.00  0.00    +0.000 A 
ATOM      3  C   UNL     1       1.976   6.071  20.311  0.00  0.00    +0.000 A 
ATOM      4  C   UNL     1       1.471   7.244  20.865  0.00  0.00    +0.000 A 
ATOM      5  C   UNL     1       1.406   8.426  20.112  0.00  0.00    +0.000 A 
ATOM      6  C   UNL     1       0.930   9.619  20.670  0.00  0.00    +0.000 A 
ATOM      7  C   UNL     1       0.886  10.791  19.912  0.00  0.00    +0.000 A 
ATOM      8  C   UNL     1       1.304  10.779  18.586  0.00  0.00    +0.000 A 
ATOM      9  C   UNL     1       1.778   9.597  18.014  0.00  0.00    +0.000 A 
ATOM     10  C   UNL     1       1.841   8.414  18.769  0.00  0.00    +0.000 A 
ATOM     11  C   UNL     1       2.340   7.223  18.219  0.00  0.00    +0.000 A 
ENDBRANCH   1   2
BRANCH   1  12
ATOM     12  N   UNL     1       4.160   5.117  17.541  0.00  0.00    +0.000 N 
ATOM     13  C   UNL     1       4.703   4.156  16.708  0.00  0.00    +0.000 C 
ATOM     14  O   UNL     1       4.331   2.985  16.708  0.00  0.00    +0.000 OA
ATOM     15  H   UNL     1       4.241   6.069  17.216  0.00  0.00    +0.000 HD
BRANCH  13  16
ATOM     16  C   UNL     1       5.751   4.630  15.827  0.00  0.00    +0.000 A 
ATOM     17  C   UNL     1       6.872   5.453  16.097  0.00  0.00    +0.000 A 
ATOM     18  N   UNL     1       7.662   5.630  15.034  0.00  0.00    +0.000 NA
ATOM     19  N   UNL     1       7.068   4.891  14.081  0.00  0.00    +0.000 N 
ATOM     20  C   UNL     1       5.906   4.298  14.492  0.00  0.00    +0.000 A 
ATOM     21  C   UNL     1       5.091   3.453  13.572  0.00  0.00    +0.000 C 
ATOM     22  C   UNL     1       5.442   3.723  12.106  0.00  0.00    +0.000 C 
ATOM     23  C   UNL     1       6.960   3.717  11.910  0.00  0.00    +0.000 C 
ATOM     24  C   UNL     1       7.613   4.827  12.736  0.00  0.00    +0.000 C 
ENDBRANCH  13  16
ENDBRANCH   1  12
BRANCH   1  25
ATOM     25  C   UNL     1       3.499   3.826  19.528  0.00  0.00    +0.000 C 
BRANCH  25  27
ATOM     26  O   UNL     1       1.900   2.397  20.664  0.00  0.00    +0.000 OA
ATOM     27  C   UNL     1       2.573   2.641  19.677  0.00  0.00    +0.000 C 
BRANCH  27  28
ATOM     28  O   UNL     1       2.512   1.880  18.559  0.00  0.00    +0.000 OA
ATOM     29  H   UNL     1       3.004   1.039  18.604  0.00  0.00    +0.000 HD
ENDBRANCH  27  28
ENDBRANCH  25  27
ENDBRANCH   1  25
TORSDOF 6
ENDMDL
MODEL 6
REMARK VINA RESULT:      -7.7      1.069      2.383
REMARK  Name = 
REMARK  6 active torsions:
REMARK  status: ('A' for Active; 'I' for Inactive)
REMARK    1  A    between atoms: C_2  and  O_3
REMARK    2  A    between atoms: C_2  and  C_4
REMARK    3  A    between atoms: C_4  and  C_5
REMARK    4  A    between atoms: C_5  and  N_6
REMARK    5  A    between atoms: C_5  and  C_18
REMARK    6  A    between atoms: C_7  and  C_9
REMARK                            x       y       z     vdW  Elec       q    Type
REMARK                         _______ _______ _______ _____ _____    ______ ____
ROOT
ATOM      1  C   UNL     1       1.483   8.927  20.765  0.00  0.00    +0.000 C 
ENDROOT
BRANCH   1   2
ATOM      2  C   UNL     1       1.827   7.523  20.295  0.00  0.00    +0.000 A 
ATOM      3  C   UNL     1       1.304   6.414  20.972  0.00  0.00    +0.000 A 
ATOM      4  C   UNL     1       1.559   5.123  20.518  0.00  0.00    +0.000 A 
ATOM      5  C   UNL     1       2.339   4.905  19.373  0.00  0.00    +0.000 A 
ATOM      6  C   UNL     1       2.575   3.611  18.890  0.00  0.00    +0.000 A 
ATOM      7  C   UNL     1       3.342   3.411  17.739  0.00  0.00    +0.000 A 
ATOM      8  C   UNL     1       3.891   4.499  17.069  0.00  0.00    +0.000 A 
ATOM      9  C   UNL     1       3.668   5.794  17.541  0.00  0.00    +0.000 A 
ATOM     10  C   UNL     1       2.888   6.011  18.689  0.00  0.00    +0.000 A 
ATOM     11  C   UNL     1       2.630   7.307  19.162  0.00  0.00    +0.000 A 
ENDBRANCH   1   2
BRANCH   1  12
ATOM     12  N   UNL     1       0.216   9.352  20.168  0.00  0.00    +0.000 N 
ATOM     13  C   UNL     1       0.212  10.249  19.115  0.00  0.00    +0.000 C 
ATOM     14  O   UNL     1       1.235  10.774  18.684  0.00  0.00    +0.000 OA
ATOM     15  H   UNL     1      -0.563   8.710  20.195  0.00  0.00    +0.000 HD
BRANCH  13  16
ATOM     16  C   UNL     1      -1.093  10.528  18.553  0.00  0.00    +0.000 A 
ATOM     17  C   UNL     1      -1.712  10.029  17.381  0.00  0.00    +0.000 A 
ATOM     18  N   UNL     1      -2.961  10.475  17.215  0.00  0.00    +0.000 NA
ATOM     19  N   UNL     1      -3.162  11.239  18.302  0.00  0.00    +0.000 N 
ATOM     20  C   UNL     1      -2.069  11.332  19.118  0.00  0.00    +0.000 A 
ATOM     21  C   UNL     1      -2.090  12.151  20.364  0.00  0.00    +0.000 C 
ATOM     22  C   UNL     1      -3.230  13.172  20.343  0.00  0.00    +0.000 C 
ATOM     23  C   UNL     1      -4.539  12.502  19.918  0.00  0.00    +0.000 C 
ATOM     24  C   UNL     1      -4.419  11.940  18.500  0.00  0.00    +0.000 C 
ENDBRANCH  13  16
ENDBRANCH   1  12
BRANCH   1  25
ATOM     25  C   UNL     1       1.403   9.007  22.295  0.00  0.00    +0.000 C 
BRANCH  25  27
ATOM     26  O   UNL     1      -0.158  10.716  23.021  0.00  0.00    +0.000 OA
ATOM     27  C   UNL     1       0.071   9.547  22.762  0.00  0.00    +0.000 C 
BRANCH  27  28
ATOM     28  O   UNL     1      -0.891   8.597  22.814  0.00  0.00    +0.000 OA
ATOM     29  H   UNL     1      -1.600   8.689  22.149  0.00  0.00    +0.000 HD
ENDBRANCH  27  28
ENDBRANCH  25  27
ENDBRANCH   1  25
TORSDOF 6
ENDMDL
MODEL 7
REMARK VINA RESULT:      -7.6      4.254      6.716
REMARK  Name = 
REMARK  6 active torsions:
REMARK  status: ('A' for Active; 'I' for Inactive)
REMARK    1  A    between atoms: C_2  and  O_3
REMARK    2  A    between atoms: C_2  and  C_4
REMARK    3  A    between atoms: C_4  and  C_5
REMARK    4  A    between atoms: C_5  and  N_6
REMARK    5  A    between atoms: C_5  and  C_18
REMARK    6  A    between atoms: C_7  and  C_9
REMARK                            x       y       z     vdW  Elec       q    Type
REMARK                         _______ _______ _______ _____ _____    ______ ____
ROOT
ATOM      1  C   UNL     1       3.983   4.573  17.587  0.00  0.00    +0.000 C 
ENDROOT
BRANCH   1   2
ATOM      2  C   UNL     1       4.945   4.709  16.418  0.00  0.00    +0.000 A 
ATOM      3  C   UNL     1       6.109   5.474  16.558  0.00  0.00    +0.000 A 
ATOM      4  C   UNL     1       7.030   5.558  15.519  0.00  0.00    +0.000 A 
ATOM      5  C   UNL     1       6.816   4.877  14.311  0.00  0.00    +0.000 A 
ATOM      6  C   UNL     1       7.752   4.929  13.270  0.00  0.00    +0.000 A 
ATOM      7  C   UNL     1       7.531   4.233  12.079  0.00  0.00    +0.000 A 
ATOM      8  C   UNL     1       6.368   3.489  11.912  0.00  0.00    +0.000 A 
ATOM      9  C   UNL     1       5.423   3.430  12.939  0.00  0.00    +0.000 A 
ATOM     10  C   UNL     1       5.639   4.114  14.147  0.00  0.00    +0.000 A 
ATOM     11  C   UNL     1       4.714   4.045  15.200  0.00  0.00    +0.000 A 
ENDBRANCH   1   2
BRANCH   1  12
ATOM     12  N   UNL     1       3.158   5.777  17.691  0.00  0.00    +0.000 N 
ATOM     13  C   UNL     1       3.168   6.525  18.854  0.00  0.00    +0.000 C 
ATOM     14  O   UNL     1       3.797   6.193  19.855  0.00  0.00    +0.000 OA
ATOM     15  H   UNL     1       2.953   6.291  16.846  0.00  0.00    +0.000 HD
BRANCH  13  16
ATOM     16  C   UNL     1       2.379   7.740  18.808  0.00  0.00    +0.000 A 
ATOM     17  C   UNL     1       2.110   8.618  17.730  0.00  0.00    +0.000 A 
ATOM     18  N   UNL     1       1.281   9.614  18.058  0.00  0.00    +0.000 NA
ATOM     19  N   UNL     1       0.986   9.359  19.345  0.00  0.00    +0.000 N 
ATOM     20  C   UNL     1       1.639   8.270  19.852  0.00  0.00    +0.000 A 
ATOM     21  C   UNL     1       1.457   7.838  21.268  0.00  0.00    +0.000 C 
ATOM     22  C   UNL     1       0.880   8.966  22.127  0.00  0.00    +0.000 C 
ATOM     23  C   UNL     1      -0.319   9.611  21.427  0.00  0.00    +0.000 C 
ATOM     24  C   UNL     1       0.108  10.237  20.098  0.00  0.00    +0.000 C 
ENDBRANCH  13  16
ENDBRANCH   1  12
BRANCH   1  25
ATOM     25  C   UNL     1       3.095   3.330  17.445  0.00  0.00    +0.000 C 
BRANCH  25  27
ATOM     26  O   UNL     1       1.389   3.277  19.170  0.00  0.00    +0.000 OA
ATOM     27  C   UNL     1       1.718   3.552  18.029  0.00  0.00    +0.000 C 
BRANCH  27  28
ATOM     28  O   UNL     1       0.872   4.157  17.163  0.00  0.00    +0.000 OA
ATOM     29  H   UNL     1       1.002   5.119  17.062  0.00  0.00    +0.000 HD
ENDBRANCH  27  28
ENDBRANCH  25  27
ENDBRANCH   1  25
TORSDOF 6
ENDMDL
MODEL 8
REMARK VINA RESULT:      -7.5      1.414      2.239
REMARK  Name = 
REMARK  6 active torsions:
REMARK  status: ('A' for Active; 'I' for Inactive)
REMARK    1  A    between atoms: C_2  and  O_3
REMARK    2  A    between atoms: C_2  and  C_4
REMARK    3  A    between atoms: C_4  and  C_5
REMARK    4  A    between atoms: C_5  and  N_6
REMARK    5  A    between atoms: C_5  and  C_18
REMARK    6  A    between atoms: C_7  and  C_9
REMARK                            x       y       z     vdW  Elec       q    Type
REMARK                         _______ _______ _______ _____ _____    ______ ____
ROOT
ATOM      1  C   UNL     1       0.468   9.873  20.162  0.00  0.00    +0.000 C 
ENDROOT
BRANCH   1   2
ATOM      2  C   UNL     1       1.339   8.845  19.459  0.00  0.00    +0.000 A 
ATOM      3  C   UNL     1       1.835   9.112  18.177  0.00  0.00    +0.000 A 
ATOM      4  C   UNL     1       2.684   8.208  17.544  0.00  0.00    +0.000 A 
ATOM      5  C   UNL     1       3.063   7.015  18.176  0.00  0.00    +0.000 A 
ATOM      6  C   UNL     1       3.942   6.114  17.561  0.00  0.00    +0.000 A 
ATOM      7  C   UNL     1       4.323   4.936  18.210  0.00  0.00    +0.000 A 
ATOM      8  C   UNL     1       3.819   4.642  19.473  0.00  0.00    +0.000 A 
ATOM      9  C   UNL     1       2.939   5.528  20.097  0.00  0.00    +0.000 A 
ATOM     10  C   UNL     1       2.558   6.722  19.462  0.00  0.00    +0.000 A 
ATOM     11  C   UNL     1       1.697   7.638  20.085  0.00  0.00    +0.000 A 
ENDBRANCH   1   2
BRANCH   1  12
ATOM     12  N   UNL     1      -0.763  10.085  19.398  0.00  0.00    +0.000 N 
ATOM     13  C   UNL     1      -1.029  11.324  18.845  0.00  0.00    +0.000 C 
ATOM     14  O   UNL     1      -0.305  12.301  19.018  0.00  0.00    +0.000 OA
ATOM     15  H   UNL     1      -1.165   9.296  18.912  0.00  0.00    +0.000 HD
BRANCH  13  16
ATOM     16  C   UNL     1      -2.232  11.390  18.040  0.00  0.00    +0.000 A 
ATOM     17  C   UNL     1      -2.458  11.007  16.695  0.00  0.00    +0.000 A 
ATOM     18  N   UNL     1      -3.728  11.163  16.311  0.00  0.00    +0.000 NA
ATOM     19  N   UNL     1      -4.334  11.616  17.422  0.00  0.00    +0.000 N 
ATOM     20  C   UNL     1      -3.481  11.800  18.475  0.00  0.00    +0.000 A 
ATOM     21  C   UNL     1      -3.962  12.315  19.790  0.00  0.00    +0.000 C 
ATOM     22  C   UNL     1      -5.318  13.013  19.655  0.00  0.00    +0.000 C 
ATOM     23  C   UNL     1      -6.284  12.149  18.841  0.00  0.00    +0.000 C 
ATOM     24  C   UNL     1      -5.750  11.936  17.423  0.00  0.00    +0.000 C 
ENDBRANCH  13  16
ENDBRANCH   1  12
BRANCH   1  25
ATOM     25  C   UNL     1       0.135   9.443  21.597  0.00  0.00    +0.000 C 
BRANCH  25  27
ATOM     26  O   UNL     1      -0.895  10.544  23.498  0.00  0.00    +0.000 OA
ATOM     27  C   UNL     1      -0.263  10.620  22.459  0.00  0.00    +0.000 C 
BRANCH  27  28
ATOM     28  O   UNL     1       0.208  11.798  21.988  0.00  0.00    +0.000 OA
ATOM     29  H   UNL     1       0.012  12.574  22.546  0.00  0.00    +0.000 HD
ENDBRANCH  27  28
ENDBRANCH  25  27
ENDBRANCH   1  25
TORSDOF 6
ENDMDL
MODEL 9
REMARK VINA RESULT:      -7.4      1.183      1.374
REMARK  Name = 
REMARK  6 active torsions:
REMARK  status: ('A' for Active; 'I' for Inactive)
REMARK    1  A    between atoms: C_2  and  O_3
REMARK    2  A    between atoms: C_2  and  C_4
REMARK    3  A    between atoms: C_4  and  C_5
REMARK    4  A    between atoms: C_5  and  N_6
REMARK    5  A    between atoms: C_5  and  C_18
REMARK    6  A    between atoms: C_7  and  C_9
REMARK                            x       y       z     vdW  Elec       q    Type
REMARK                         _______ _______ _______ _____ _____    ______ ____
ROOT
ATOM      1  C   UNL     1       0.675   9.383  20.544  0.00  0.00    +0.000 C 
ENDROOT
BRANCH   1   2
ATOM      2  C   UNL     1       1.530   8.538  19.613  0.00  0.00    +0.000 A 
ATOM      3  C   UNL     1       1.823   8.999  18.324  0.00  0.00    +0.000 A 
ATOM      4  C   UNL     1       2.654   8.267  17.482  0.00  0.00    +0.000 A 
ATOM      5  C   UNL     1       3.220   7.056  17.906  0.00  0.00    +0.000 A 
ATOM      6  C   UNL     1       4.084   6.327  17.078  0.00  0.00    +0.000 A 
ATOM      7  C   UNL     1       4.652   5.130  17.521  0.00  0.00    +0.000 A 
ATOM      8  C   UNL     1       4.352   4.643  18.788  0.00  0.00    +0.000 A 
ATOM      9  C   UNL     1       3.490   5.356  19.624  0.00  0.00    +0.000 A 
ATOM     10  C   UNL     1       2.922   6.568  19.197  0.00  0.00    +0.000 A 
ATOM     11  C   UNL     1       2.075   7.312  20.033  0.00  0.00    +0.000 A 
ENDBRANCH   1   2
BRANCH   1  12
ATOM     12  N   UNL     1      -0.559   9.774  19.861  0.00  0.00    +0.000 N 
ATOM     13  C   UNL     1      -1.050  11.060  20.002  0.00  0.00    +0.000 C 
ATOM     14  O   UNL     1      -0.531  11.895  20.738  0.00  0.00    +0.000 OA
ATOM     15  H   UNL     1      -0.793   9.312  18.995  0.00  0.00    +0.000 HD
BRANCH  13  16
ATOM     16  C   UNL     1      -2.229  11.355  19.213  0.00  0.00    +0.000 A 
ATOM     17  C   UNL     1      -3.344  12.179  19.504  0.00  0.00    +0.000 A 
ATOM     18  N   UNL     1      -4.218  12.255  18.496  0.00  0.00    +0.000 NA
ATOM     19  N   UNL     1      -3.650  11.504  17.537  0.00  0.00    +0.000 N 
ATOM     20  C   UNL     1      -2.476  10.918  17.923  0.00  0.00    +0.000 A 
ATOM     21  C   UNL     1      -1.705  10.032  17.003  0.00  0.00    +0.000 C 
ATOM     22  C   UNL     1      -2.579   9.522  15.855  0.00  0.00    +0.000 C 
ATOM     23  C   UNL     1      -3.364  10.677  15.227  0.00  0.00    +0.000 C 
ATOM     24  C   UNL     1      -4.304  11.308  16.256  0.00  0.00    +0.000 C 
ENDBRANCH  13  16
ENDBRANCH   1  12
BRANCH   1  25
ATOM     25  C   UNL     1       0.350   8.637  21.844  0.00  0.00    +0.000 C 
BRANCH  25  27
ATOM     26  O   UNL     1       0.214   9.831  23.952  0.00  0.00    +0.000 OA
ATOM     27  C   UNL     1       0.893   9.357  23.057  0.00  0.00    +0.000 C 
BRANCH  27  28
ATOM     28  O   UNL     1       2.246   9.381  23.091  0.00  0.00    +0.000 OA
ATOM     29  H   UNL     1       2.633   9.692  23.932  0.00  0.00    +0.000 HD
ENDBRANCH  27  28
ENDBRANCH  25  27
ENDBRANCH   1  25
TORSDOF 6
ENDMDL
