MODEL 1
REMARK VINA RESULT:      -9.3      0.000      0.000
REMARK  Name = 
REMARK  9 active torsions:
REMARK  status: ('A' for Active; 'I' for Inactive)
REMARK    1  A    between atoms: C_1  and  C_2
REMARK    2  A    between atoms: N_4  and  C_5
REMARK    3  A    between atoms: C_5  and  C_6
REMARK    4  A    between atoms: C_12  and  C_13
REMARK    5  A    between atoms: C_14  and  C_15
REMARK    6  A    between atoms: C_15  and  N_16
REMARK    7  A    between atoms: C_17  and  C_19
REMARK    8  A    between atoms: C_19  and  C_20
REMARK    9  A    between atoms: C_20  and  C_21
REMARK                            x       y       z     vdW  Elec       q    Type
REMARK                         _______ _______ _______ _____ _____    ______ ____
ROOT
ATOM      1  N   UNL     1       2.038   7.919  20.442  0.00  0.00    +0.000 N 
ATOM      2  C   UNL     1       2.214   6.602  20.092  0.00  0.00    +0.000 C 
ATOM      3  O   UNL     1       1.560   5.693  20.600  0.00  0.00    +0.000 OA
ATOM      4  H   UNL     1       2.529   8.663  19.982  0.00  0.00    +0.000 HD
ENDROOT
BRANCH   1   5
ATOM      5  C   UNL     1       1.091   8.340  21.458  0.00  0.00    +0.000 C 
BRANCH   5  12
ATOM      6  C   UNL     1      -0.814  10.421  23.186  0.00  0.00    +0.000 C 
ATOM      7  C   UNL     1      -0.504  10.407  21.732  0.00  0.00    +0.000 A 
ATOM      8  N   UNL     1      -1.019  11.379  20.974  0.00  0.00    +0.000 NA
ATOM      9  N   UNL     1      -0.562  11.126  19.736  0.00  0.00    +0.000 N 
ATOM     10  C   UNL     1       0.258  10.031  19.672  0.00  0.00    +0.000 A 
ATOM     11  C   UNL     1       0.911   9.567  18.423  0.00  0.00    +0.000 C 
ATOM     12  C   UNL     1       0.309   9.513  20.969  0.00  0.00    +0.000 A 
BRANCH   9  13
ATOM     13  C   UNL     1      -0.907  12.066  18.671  0.00  0.00    +0.000 C 
BRANCH  13  14
ATOM     14  C   UNL     1      -2.206  11.706  17.991  0.00  0.00    +0.000 A 
ATOM     15  C   UNL     1      -3.435  11.939  18.629  0.00  0.00    +0.000 A 
ATOM     16  C   UNL     1      -4.637  11.602  18.006  0.00  0.00    +0.000 A 
ATOM     17  C   UNL     1      -4.626  11.040  16.731  0.00  0.00    +0.000 A 
ATOM     18  C   UNL     1      -3.415  10.821  16.077  0.00  0.00    +0.000 A 
ATOM     19  C   UNL     1      -2.211  11.154  16.701  0.00  0.00    +0.000 A 
ENDBRANCH  13  14
ENDBRANCH   9  13
ENDBRANCH   5  12
ENDBRANCH   1   5
BRANCH   2  20
ATOM     20  C   UNL     1       3.279   6.288  19.031  0.00  0.00    +0.000 C 
BRANCH  20  21
ATOM     21  C   UNL     1       2.812   5.267  18.008  0.00  0.00    +0.000 C 
BRANCH  21  22
ATOM     22  C   UNL     1       3.843   4.313  17.360  0.00  0.00    +0.000 C 
ATOM     23  C   UNL     1       3.224   2.917  17.125  0.00  0.00    +0.000 C 
ATOM     24  C   UNL     1       2.711   2.484  18.483  0.00  0.00    +0.000 A 
ATOM     25  C   UNL     1       1.351   2.291  18.710  0.00  0.00    +0.000 A 
ATOM     26  C   UNL     1       0.871   2.369  20.016  0.00  0.00    +0.000 A 
ATOM     27  C   UNL     1       1.753   2.525  21.094  0.00  0.00    +0.000 A 
ATOM     28  C   UNL     1       3.128   2.599  20.882  0.00  0.00    +0.000 A 
ATOM     29  C   UNL     1       3.588   2.652  19.577  0.00  0.00    +0.000 A 
ATOM     30  N   UNL     1       4.842   3.202  19.337  0.00  0.00    +0.000 N 
ATOM     31  C   UNL     1       5.051   4.069  18.266  0.00  0.00    +0.000 C 
ATOM     32  O   UNL     1       6.112   4.660  18.118  0.00  0.00    +0.000 OA
ATOM     33  H   UNL     1       5.564   3.238  20.043  0.00  0.00    +0.000 HD
ENDBRANCH  21  22
ENDBRANCH  20  21
ENDBRANCH   2  20
TORSDOF 7
ENDMDL
MODEL 2
REMARK VINA RESULT:      -9.0      1.573      2.788
REMARK  Name = 
REMARK  9 active torsions:
REMARK  status: ('A' for Active; 'I' for Inactive)
REMARK    1  A    between atoms: C_1  and  C_2
REMARK    2  A    between atoms: N_4  and  C_5
REMARK    3  A    between atoms: C_5  and  C_6
REMARK    4  A    between atoms: C_12  and  C_13
REMARK    5  A    between atoms: C_14  and  C_15
REMARK    6  A    between atoms: C_15  and  N_16
REMARK    7  A    between atoms: C_17  and  C_19
REMARK    8  A    between atoms: C_19  and  C_20
REMARK    9  A    between atoms: C_20  and  C_21
REMARK                            x       y       z     vdW  Elec       q    Type
REMARK                         _______ _______ _______ _____ _____    ______ ____
ROOT
ATOM      1  N   UNL     1       2.029   7.932  20.463  0.00  0.00    +0.000 N 
ATOM      2  C   UNL     1       2.194   6.622  20.084  0.00  0.00    +0.000 C 
ATOM      3  O   UNL     1       1.441   5.727  20.464  0.00  0.00    +0.000 OA
ATOM      4  H   UNL     1       2.607   8.669  20.101  0.00  0.00    +0.000 HD
ENDROOT
BRANCH   1   5
ATOM      5  C   UNL     1       0.976   8.361  21.364  0.00  0.00    +0.000 C 
BRANCH   5  12
ATOM      6  C   UNL     1      -0.820  10.618  22.985  0.00  0.00    +0.000 C 
ATOM      7  C   UNL     1      -0.450  10.558  21.546  0.00  0.00    +0.000 A 
ATOM      8  N   UNL     1      -0.848  11.559  20.756  0.00  0.00    +0.000 NA
ATOM      9  N   UNL     1      -0.361  11.252  19.542  0.00  0.00    +0.000 N 
ATOM     10  C   UNL     1       0.365  10.090  19.526  0.00  0.00    +0.000 A 
ATOM     11  C   UNL     1       1.031   9.556  18.312  0.00  0.00    +0.000 C 
ATOM     12  C   UNL     1       0.317   9.588  20.829  0.00  0.00    +0.000 A 
BRANCH   9  13
ATOM     13  C   UNL     1      -0.580  12.203  18.454  0.00  0.00    +0.000 C 
BRANCH  13  14
ATOM     14  C   UNL     1       0.358  13.384  18.532  0.00  0.00    +0.000 A 
ATOM     15  C   UNL     1       1.727  13.228  18.264  0.00  0.00    +0.000 A 
ATOM     16  C   UNL     1       2.597  14.315  18.341  0.00  0.00    +0.000 A 
ATOM     17  C   UNL     1       2.107  15.577  18.672  0.00  0.00    +0.000 A 
ATOM     18  C   UNL     1       0.747  15.751  18.922  0.00  0.00    +0.000 A 
ATOM     19  C   UNL     1      -0.125  14.662  18.849  0.00  0.00    +0.000 A 
ENDBRANCH  13  14
ENDBRANCH   9  13
ENDBRANCH   5  12
ENDBRANCH   1   5
BRANCH   2  20
ATOM     20  C   UNL     1       3.374   6.297  19.157  0.00  0.00    +0.000 C 
BRANCH  20  21
ATOM     21  C   UNL     1       3.033   5.254  18.106  0.00  0.00    +0.000 C 
BRANCH  21  22
ATOM     22  C   UNL     1       4.118   4.252  17.647  0.00  0.00    +0.000 C 
ATOM     23  C   UNL     1       3.495   2.871  17.348  0.00  0.00    +0.000 C 
ATOM     24  C   UNL     1       2.764   2.489  18.618  0.00  0.00    +0.000 A 
ATOM     25  C   UNL     1       1.379   2.344  18.635  0.00  0.00    +0.000 A 
ATOM     26  C   UNL     1       0.706   2.471  19.849  0.00  0.00    +0.000 A 
ATOM     27  C   UNL     1       1.415   2.628  21.047  0.00  0.00    +0.000 A 
ATOM     28  C   UNL     1       2.808   2.654  21.050  0.00  0.00    +0.000 A 
ATOM     29  C   UNL     1       3.466   2.659  19.832  0.00  0.00    +0.000 A 
ATOM     30  N   UNL     1       4.761   3.163  19.778  0.00  0.00    +0.000 N 
ATOM     31  C   UNL     1       5.162   3.995  18.735  0.00  0.00    +0.000 C 
ATOM     32  O   UNL     1       6.253   4.550  18.741  0.00  0.00    +0.000 OA
ATOM     33  H   UNL     1       5.365   3.196  20.587  0.00  0.00    +0.000 HD
ENDBRANCH  21  22
ENDBRANCH  20  21
ENDBRANCH   2  20
TORSDOF 7
ENDMDL
MODEL 3
REMARK VINA RESULT:      -8.9      1.561      2.481
REMARK  Name = 
REMARK  9 active torsions:
REMARK  status: ('A' for Active; 'I' for Inactive)
REMARK    1  A    between atoms: C_1  and  C_2
REMARK    2  A    between atoms: N_4  and  C_5
REMARK    3  A    between atoms: C_5  and  C_6
REMARK    4  A    between atoms: C_12  and  C_13
REMARK    5  A    between atoms: C_14  and  C_15
REMARK    6  A    between atoms: C_15  and  N_16
REMARK    7  A    between atoms: C_17  and  C_19
REMARK    8  A    between atoms: C_19  and  C_20
REMARK    9  A    between atoms: C_20  and  C_21
REMARK                            x       y       z     vdW  Elec       q    Type
REMARK                         _______ _______ _______ _____ _____    ______ ____
ROOT
ATOM      1  N   UNL     1       2.045   7.685  20.551  0.00  0.00    +0.000 N 
ATOM      2  C   UNL     1       2.284   6.474  19.945  0.00  0.00    +0.000 C 
ATOM      3  O   UNL     1       1.423   5.602  19.856  0.00  0.00    +0.000 OA
ATOM      4  H   UNL     1       2.729   8.418  20.566  0.00  0.00    +0.000 HD
ENDROOT
BRANCH   1   5
ATOM      5  C   UNL     1       0.771   8.018  21.160  0.00  0.00    +0.000 C 
BRANCH   5  12
ATOM      6  C   UNL     1       1.062   9.647  18.295  0.00  0.00    +0.000 C 
ATOM      7  C   UNL     1       0.540  10.120  19.605  0.00  0.00    +0.000 A 
ATOM      8  N   UNL     1       0.074  11.370  19.677  0.00  0.00    +0.000 NA
ATOM      9  N   UNL     1      -0.341  11.508  20.947  0.00  0.00    +0.000 N 
ATOM     10  C   UNL     1      -0.183  10.373  21.696  0.00  0.00    +0.000 A 
ATOM     11  C   UNL     1      -0.595  10.265  23.118  0.00  0.00    +0.000 C 
ATOM     12  C   UNL     1       0.414   9.434  20.852  0.00  0.00    +0.000 A 
BRANCH   9  13
ATOM     13  C   UNL     1      -0.970  12.770  21.330  0.00  0.00    +0.000 C 
BRANCH  13  14
ATOM     14  C   UNL     1      -2.476  12.710  21.234  0.00  0.00    +0.000 A 
ATOM     15  C   UNL     1      -3.270  12.822  22.388  0.00  0.00    +0.000 A 
ATOM     16  C   UNL     1      -4.661  12.760  22.304  0.00  0.00    +0.000 A 
ATOM     17  C   UNL     1      -5.277  12.601  21.065  0.00  0.00    +0.000 A 
ATOM     18  C   UNL     1      -4.504  12.508  19.909  0.00  0.00    +0.000 A 
ATOM     19  C   UNL     1      -3.110  12.565  19.992  0.00  0.00    +0.000 A 
ENDBRANCH  13  14
ENDBRANCH   9  13
ENDBRANCH   5  12
ENDBRANCH   1   5
BRANCH   2  20
ATOM     20  C   UNL     1       3.689   6.235  19.375  0.00  0.00    +0.000 C 
BRANCH  20  21
ATOM     21  C   UNL     1       3.669   5.614  17.989  0.00  0.00    +0.000 C 
BRANCH  21  22
ATOM     22  C   UNL     1       4.891   4.802  17.500  0.00  0.00    +0.000 C 
ATOM     23  C   UNL     1       4.440   3.501  16.801  0.00  0.00    +0.000 C 
ATOM     24  C   UNL     1       3.564   2.796  17.817  0.00  0.00    +0.000 A 
ATOM     25  C   UNL     1       2.209   2.584  17.574  0.00  0.00    +0.000 A 
ATOM     26  C   UNL     1       1.356   2.388  18.659  0.00  0.00    +0.000 A 
ATOM     27  C   UNL     1       1.866   2.294  19.961  0.00  0.00    +0.000 A 
ATOM     28  C   UNL     1       3.235   2.386  20.197  0.00  0.00    +0.000 A 
ATOM     29  C   UNL     1       4.062   2.710  19.136  0.00  0.00    +0.000 A 
ATOM     30  N   UNL     1       5.303   3.276  19.408  0.00  0.00    +0.000 N 
ATOM     31  C   UNL     1       5.781   4.348  18.658  0.00  0.00    +0.000 C 
ATOM     32  O   UNL     1       6.808   4.938  18.966  0.00  0.00    +0.000 OA
ATOM     33  H   UNL     1       5.777   3.146  20.291  0.00  0.00    +0.000 HD
ENDBRANCH  21  22
ENDBRANCH  20  21
ENDBRANCH   2  20
TORSDOF 7
ENDMDL
MODEL 4
REMARK VINA RESULT:      -8.8      1.366      2.802
REMARK  Name = 
REMARK  9 active torsions:
REMARK  status: ('A' for Active; 'I' for Inactive)
REMARK    1  A    between atoms: C_1  and  C_2
REMARK    2  A    between atoms: N_4  and  C_5
REMARK    3  A    between atoms: C_5  and  C_6
REMARK    4  A    between atoms: C_12  and  C_13
REMARK    5  A    between atoms: C_14  and  C_15
REMARK    6  A    between atoms: C_15  and  N_16
REMARK    7  A    between atoms: C_17  and  C_19
REMARK    8  A    between atoms: C_19  and  C_20
REMARK    9  A    between atoms: C_20  and  C_21
REMARK                            x       y       z     vdW  Elec       q    Type
REMARK                         _______ _______ _______ _____ _____    ______ ____
ROOT
ATOM      1  N   UNL     1       1.283   7.471  21.418  0.00  0.00    +0.000 N 
ATOM      2  C   UNL     1       1.787   6.670  20.421  0.00  0.00    +0.000 C 
ATOM      3  O   UNL     1       2.653   7.059  19.640  0.00  0.00    +0.000 OA
ATOM      4  H   UNL     1       0.623   7.131  22.092  0.00  0.00    +0.000 HD
ENDROOT
BRANCH   1   5
ATOM      5  C   UNL     1       1.707   8.846  21.609  0.00  0.00    +0.000 C 
BRANCH   5  12
ATOM      6  C   UNL     1      -0.863  10.248  23.150  0.00  0.00    +0.000 C 
ATOM      7  C   UNL     1      -0.420  10.379  21.736  0.00  0.00    +0.000 A 
ATOM      8  N   UNL     1      -1.108  11.201  20.939  0.00  0.00    +0.000 NA
ATOM      9  N   UNL     1      -0.479  11.135  19.754  0.00  0.00    +0.000 N 
ATOM     10  C   UNL     1       0.615  10.311  19.765  0.00  0.00    +0.000 A 
ATOM     11  C   UNL     1       1.492  10.096  18.586  0.00  0.00    +0.000 C 
ATOM     12  C   UNL     1       0.681   9.776  21.054  0.00  0.00    +0.000 A 
BRANCH   9  13
ATOM     13  C   UNL     1      -0.966  11.985  18.670  0.00  0.00    +0.000 C 
BRANCH  13  14
ATOM     14  C   UNL     1      -2.097  11.342  17.903  0.00  0.00    +0.000 A 
ATOM     15  C   UNL     1      -1.835  10.350  16.944  0.00  0.00    +0.000 A 
ATOM     16  C   UNL     1      -2.876   9.757  16.230  0.00  0.00    +0.000 A 
ATOM     17  C   UNL     1      -4.194  10.137  16.475  0.00  0.00    +0.000 A 
ATOM     18  C   UNL     1      -4.471  11.106  17.438  0.00  0.00    +0.000 A 
ATOM     19  C   UNL     1      -3.429  11.704  18.151  0.00  0.00    +0.000 A 
ENDBRANCH  13  14
ENDBRANCH   9  13
ENDBRANCH   5  12
ENDBRANCH   1   5
BRANCH   2  20
ATOM     20  C   UNL     1       1.222   5.248  20.303  0.00  0.00    +0.000 C 
BRANCH  20  21
ATOM     21  C   UNL     1       2.232   4.177  20.680  0.00  0.00    +0.000 C 
BRANCH  21  22
ATOM     22  C   UNL     1       2.132   2.775  20.034  0.00  0.00    +0.000 C 
ATOM     23  C   UNL     1       3.537   2.212  19.726  0.00  0.00    +0.000 C 
ATOM     24  C   UNL     1       4.201   3.269  18.868  0.00  0.00    +0.000 A 
ATOM     25  C   UNL     1       5.327   3.956  19.316  0.00  0.00    +0.000 A 
ATOM     26  C   UNL     1       5.619   5.200  18.760  0.00  0.00    +0.000 A 
ATOM     27  C   UNL     1       4.862   5.702  17.693  0.00  0.00    +0.000 A 
ATOM     28  C   UNL     1       3.807   4.964  17.161  0.00  0.00    +0.000 A 
ATOM     29  C   UNL     1       3.440   3.792  17.799  0.00  0.00    +0.000 A 
ATOM     30  N   UNL     1       2.148   3.310  17.615  0.00  0.00    +0.000 N 
ATOM     31  C   UNL     1       1.410   2.812  18.686  0.00  0.00    +0.000 C 
ATOM     32  O   UNL     1       0.231   2.507  18.564  0.00  0.00    +0.000 OA
ATOM     33  H   UNL     1       1.593   3.544  16.803  0.00  0.00    +0.000 HD
ENDBRANCH  21  22
ENDBRANCH  20  21
ENDBRANCH   2  20
TORSDOF 7
ENDMDL
MODEL 5
REMARK VINA RESULT:      -8.8      2.791      3.817
REMARK  Name = 
REMARK  9 active torsions:
REMARK  status: ('A' for Active; 'I' for Inactive)
REMARK    1  A    between atoms: C_1  and  C_2
REMARK    2  A    between atoms: N_4  and  C_5
REMARK    3  A    between atoms: C_5  and  C_6
REMARK    4  A    between atoms: C_12  and  C_13
REMARK    5  A    between atoms: C_14  and  C_15
REMARK    6  A    between atoms: C_15  and  N_16
REMARK    7  A    between atoms: C_17  and  C_19
REMARK    8  A    between atoms: C_19  and  C_20
REMARK    9  A    between atoms: C_20  and  C_21
REMARK                            x       y       z     vdW  Elec       q    Type
REMARK                         _______ _______ _______ _____ _____    ______ ____
ROOT
ATOM      1  N   UNL     1       1.554   9.042  18.010  0.00  0.00    +0.000 N 
ATOM      2  C   UNL     1       2.164   8.082  18.781  0.00  0.00    +0.000 C 
ATOM      3  O   UNL     1       1.769   7.797  19.910  0.00  0.00    +0.000 OA
ATOM      4  H   UNL     1       1.839   9.227  17.066  0.00  0.00    +0.000 HD
ENDROOT
BRANCH   1   5
ATOM      5  C   UNL     1       0.420   9.818  18.475  0.00  0.00    +0.000 C 
BRANCH   5  12
ATOM      6  C   UNL     1      -0.267  10.381  21.662  0.00  0.00    +0.000 C 
ATOM      7  C   UNL     1       0.589  11.157  20.726  0.00  0.00    +0.000 A 
ATOM      8  N   UNL     1       1.226  12.230  21.205  0.00  0.00    +0.000 NA
ATOM      9  N   UNL     1       1.925  12.708  20.162  0.00  0.00    +0.000 N 
ATOM     10  C   UNL     1       1.780  11.960  19.023  0.00  0.00    +0.000 A 
ATOM     11  C   UNL     1       2.476  12.266  17.748  0.00  0.00    +0.000 C 
ATOM     12  C   UNL     1       0.890  10.933  19.347  0.00  0.00    +0.000 A 
BRANCH   9  13
ATOM     13  C   UNL     1       2.789  13.865  20.386  0.00  0.00    +0.000 C 
BRANCH  13  14
ATOM     14  C   UNL     1       2.375  15.056  19.556  0.00  0.00    +0.000 A 
ATOM     15  C   UNL     1       3.297  15.689  18.706  0.00  0.00    +0.000 A 
ATOM     16  C   UNL     1       2.919  16.793  17.942  0.00  0.00    +0.000 A 
ATOM     17  C   UNL     1       1.612  17.271  18.006  0.00  0.00    +0.000 A 
ATOM     18  C   UNL     1       0.681  16.641  18.830  0.00  0.00    +0.000 A 
ATOM     19  C   UNL     1       1.058  15.537  19.599  0.00  0.00    +0.000 A 
ENDBRANCH  13  14
ENDBRANCH   9  13
ENDBRANCH   5  12
ENDBRANCH   1   5
BRANCH   2  20
ATOM     20  C   UNL     1       3.381   7.362  18.183  0.00  0.00    +0.000 C 
BRANCH  20  21
ATOM     21  C   UNL     1       3.517   5.928  18.666  0.00  0.00    +0.000 C 
BRANCH  21  22
ATOM     22  C   UNL     1       4.296   4.905  17.806  0.00  0.00    +0.000 C 
ATOM     23  C   UNL     1       3.351   3.807  17.272  0.00  0.00    +0.000 C 
ATOM     24  C   UNL     1       2.682   3.233  18.504  0.00  0.00    +0.000 A 
ATOM     25  C   UNL     1       1.309   3.357  18.701  0.00  0.00    +0.000 A 
ATOM     26  C   UNL     1       0.806   3.267  19.997  0.00  0.00    +0.000 A 
ATOM     27  C   UNL     1       1.648   2.945  21.070  0.00  0.00    +0.000 A 
ATOM     28  C   UNL     1       3.004   2.703  20.862  0.00  0.00    +0.000 A 
ATOM     29  C   UNL     1       3.521   2.922  19.597  0.00  0.00    +0.000 A 
ATOM     30  N   UNL     1       4.885   3.164  19.468  0.00  0.00    +0.000 N 
ATOM     31  C   UNL     1       5.358   4.161  18.618  0.00  0.00    +0.000 C 
ATOM     32  O   UNL     1       6.541   4.472  18.592  0.00  0.00    +0.000 OA
ATOM     33  H   UNL     1       5.558   2.854  20.155  0.00  0.00    +0.000 HD
ENDBRANCH  21  22
ENDBRANCH  20  21
ENDBRANCH   2  20
TORSDOF 7
ENDMDL
MODEL 6
REMARK VINA RESULT:      -8.8      6.241      9.794
REMARK  Name = 
REMARK  9 active torsions:
REMARK  status: ('A' for Active; 'I' for Inactive)
REMARK    1  A    between atoms: C_1  and  C_2
REMARK    2  A    between atoms: N_4  and  C_5
REMARK    3  A    between atoms: C_5  and  C_6
REMARK    4  A    between atoms: C_12  and  C_13
REMARK    5  A    between atoms: C_14  and  C_15
REMARK    6  A    between atoms: C_15  and  N_16
REMARK    7  A    between atoms: C_17  and  C_19
REMARK    8  A    between atoms: C_19  and  C_20
REMARK    9  A    between atoms: C_20  and  C_21
REMARK                            x       y       z     vdW  Elec       q    Type
REMARK                         _______ _______ _______ _____ _____    ______ ____
ROOT
ATOM      1  N   UNL     1       7.572   8.124  17.030  0.00  0.00    +0.000 N 
ATOM      2  C   UNL     1       8.301   8.661  18.063  0.00  0.00    +0.000 C 
ATOM      3  O   UNL     1       8.821   7.965  18.933  0.00  0.00    +0.000 OA
ATOM      4  H   UNL     1       7.202   8.689  16.288  0.00  0.00    +0.000 HD
ENDROOT
BRANCH   1   5
ATOM      5  C   UNL     1       7.330   6.699  16.900  0.00  0.00    +0.000 C 
BRANCH   5  12
ATOM      6  C   UNL     1       7.451   5.114  19.801  0.00  0.00    +0.000 C 
ATOM      7  C   UNL     1       6.273   5.613  19.043  0.00  0.00    +0.000 A 
ATOM      8  N   UNL     1       5.065   5.453  19.590  0.00  0.00    +0.000 NA
ATOM      9  N   UNL     1       4.214   6.007  18.709  0.00  0.00    +0.000 N 
ATOM     10  C   UNL     1       4.839   6.545  17.616  0.00  0.00    +0.000 A 
ATOM     11  C   UNL     1       4.119   7.240  16.519  0.00  0.00    +0.000 C 
ATOM     12  C   UNL     1       6.202   6.291  17.788  0.00  0.00    +0.000 A 
BRANCH   9  13
ATOM     13  C   UNL     1       2.795   6.045  19.056  0.00  0.00    +0.000 C 
BRANCH  13  14
ATOM     14  C   UNL     1       2.188   4.664  19.132  0.00  0.00    +0.000 A 
ATOM     15  C   UNL     1       2.310   3.772  18.054  0.00  0.00    +0.000 A 
ATOM     16  C   UNL     1       1.746   2.498  18.118  0.00  0.00    +0.000 A 
ATOM     17  C   UNL     1       1.065   2.094  19.265  0.00  0.00    +0.000 A 
ATOM     18  C   UNL     1       0.953   2.962  20.350  0.00  0.00    +0.000 A 
ATOM     19  C   UNL     1       1.514   4.239  20.286  0.00  0.00    +0.000 A 
ENDBRANCH  13  14
ENDBRANCH   9  13
ENDBRANCH   5  12
ENDBRANCH   1   5
BRANCH   2  20
ATOM     20  C   UNL     1       8.448  10.189  18.106  0.00  0.00    +0.000 C 
BRANCH  20  21
ATOM     21  C   UNL     1       9.247  10.675  19.302  0.00  0.00    +0.000 C 
BRANCH  21  22
ATOM     22  C   UNL     1      10.620  11.352  19.077  0.00  0.00    +0.000 C 
ATOM     23  C   UNL     1      11.170  11.928  20.401  0.00  0.00    +0.000 C 
ATOM     24  C   UNL     1      10.077  12.844  20.912  0.00  0.00    +0.000 A 
ATOM     25  C   UNL     1       9.411  12.573  22.105  0.00  0.00    +0.000 A 
ATOM     26  C   UNL     1       8.144  13.118  22.305  0.00  0.00    +0.000 A 
ATOM     27  C   UNL     1       7.596  14.012  21.376  0.00  0.00    +0.000 A 
ATOM     28  C   UNL     1       8.308  14.380  20.237  0.00  0.00    +0.000 A 
ATOM     29  C   UNL     1       9.507  13.737  19.979  0.00  0.00    +0.000 A 
ATOM     30  N   UNL     1       9.979  13.711  18.670  0.00  0.00    +0.000 N 
ATOM     31  C   UNL     1      10.522  12.549  18.129  0.00  0.00    +0.000 C 
ATOM     32  O   UNL     1      10.821  12.473  16.944  0.00  0.00    +0.000 OA
ATOM     33  H   UNL     1       9.709  14.400  17.982  0.00  0.00    +0.000 HD
ENDBRANCH  21  22
ENDBRANCH  20  21
ENDBRANCH   2  20
TORSDOF 7
ENDMDL
MODEL 7
REMARK VINA RESULT:      -8.7      2.269      3.474
REMARK  Name = 
REMARK  9 active torsions:
REMARK  status: ('A' for Active; 'I' for Inactive)
REMARK    1  A    between atoms: C_1  and  C_2
REMARK    2  A    between atoms: N_4  and  C_5
REMARK    3  A    between atoms: C_5  and  C_6
REMARK    4  A    between atoms: C_12  and  C_13
REMARK    5  A    between atoms: C_14  and  C_15
REMARK    6  A    between atoms: C_15  and  N_16
REMARK    7  A    between atoms: C_17  and  C_19
REMARK    8  A    between atoms: C_19  and  C_20
REMARK    9  A    between atoms: C_20  and  C_21
REMARK                            x       y       z     vdW  Elec       q    Type
REMARK                         _______ _______ _______ _____ _____    ______ ____
ROOT
ATOM      1  N   UNL     1       1.972   9.173  17.845  0.00  0.00    +0.000 N 
ATOM      2  C   UNL     1       2.350   7.851  17.850  0.00  0.00    +0.000 C 
ATOM      3  O   UNL     1       1.550   6.940  18.051  0.00  0.00    +0.000 OA
ATOM      4  H   UNL     1       2.614   9.910  17.619  0.00  0.00    +0.000 HD
ENDROOT
BRANCH   1   5
ATOM      5  C   UNL     1       0.611   9.601  18.108  0.00  0.00    +0.000 C 
BRANCH   5  12
ATOM      6  C   UNL     1       1.238   8.535  21.177  0.00  0.00    +0.000 C 
ATOM      7  C   UNL     1       0.838   9.889  20.708  0.00  0.00    +0.000 A 
ATOM      8  N   UNL     1       0.738  10.861  21.618  0.00  0.00    +0.000 NA
ATOM      9  N   UNL     1       0.388  11.952  20.916  0.00  0.00    +0.000 N 
ATOM     10  C   UNL     1       0.284  11.721  19.570  0.00  0.00    +0.000 A 
ATOM     11  C   UNL     1      -0.058  12.775  18.581  0.00  0.00    +0.000 C 
ATOM     12  C   UNL     1       0.556  10.363  19.390  0.00  0.00    +0.000 A 
BRANCH   9  13
ATOM     13  C   UNL     1       0.259  13.219  21.634  0.00  0.00    +0.000 C 
BRANCH  13  14
ATOM     14  C   UNL     1      -1.044  13.314  22.392  0.00  0.00    +0.000 A 
ATOM     15  C   UNL     1      -2.157  12.554  21.997  0.00  0.00    +0.000 A 
ATOM     16  C   UNL     1      -3.364  12.644  22.690  0.00  0.00    +0.000 A 
ATOM     17  C   UNL     1      -3.470  13.484  23.797  0.00  0.00    +0.000 A 
ATOM     18  C   UNL     1      -2.368  14.229  24.213  0.00  0.00    +0.000 A 
ATOM     19  C   UNL     1      -1.160  14.143  23.517  0.00  0.00    +0.000 A 
ENDBRANCH  13  14
ENDBRANCH   9  13
ENDBRANCH   5  12
ENDBRANCH   1   5
BRANCH   2  20
ATOM     20  C   UNL     1       3.831   7.538  17.597  0.00  0.00    +0.000 C 
BRANCH  20  21
ATOM     21  C   UNL     1       4.275   6.227  18.223  0.00  0.00    +0.000 C 
BRANCH  21  22
ATOM     22  C   UNL     1       5.286   5.328  17.473  0.00  0.00    +0.000 C 
ATOM     23  C   UNL     1       4.552   4.303  16.583  0.00  0.00    +0.000 C 
ATOM     24  C   UNL     1       3.614   3.571  17.521  0.00  0.00    +0.000 A 
ATOM     25  C   UNL     1       2.232   3.660  17.371  0.00  0.00    +0.000 A 
ATOM     26  C   UNL     1       1.420   3.401  18.473  0.00  0.00    +0.000 A 
ATOM     27  C   UNL     1       1.973   2.949  19.679  0.00  0.00    +0.000 A 
ATOM     28  C   UNL     1       3.346   2.743  19.798  0.00  0.00    +0.000 A 
ATOM     29  C   UNL     1       4.159   3.126  18.746  0.00  0.00    +0.000 A 
ATOM     30  N   UNL     1       5.500   3.391  19.004  0.00  0.00    +0.000 N 
ATOM     31  C   UNL     1       6.134   4.492  18.433  0.00  0.00    +0.000 C 
ATOM     32  O   UNL     1       7.272   4.811  18.751  0.00  0.00    +0.000 OA
ATOM     33  H   UNL     1       5.987   2.999  19.797  0.00  0.00    +0.000 HD
ENDBRANCH  21  22
ENDBRANCH  20  21
ENDBRANCH   2  20
TORSDOF 7
ENDMDL
MODEL 8
REMARK VINA RESULT:      -8.7      2.229      3.065
REMARK  Name = 
REMARK  9 active torsions:
REMARK  status: ('A' for Active; 'I' for Inactive)
REMARK    1  A    between atoms: C_1  and  C_2
REMARK    2  A    between atoms: N_4  and  C_5
REMARK    3  A    between atoms: C_5  and  C_6
REMARK    4  A    between atoms: C_12  and  C_13
REMARK    5  A    between atoms: C_14  and  C_15
REMARK    6  A    between atoms: C_15  and  N_16
REMARK    7  A    between atoms: C_17  and  C_19
REMARK    8  A    between atoms: C_19  and  C_20
REMARK    9  A    between atoms: C_20  and  C_21
REMARK                            x       y       z     vdW  Elec       q    Type
REMARK                         _______ _______ _______ _____ _____    ______ ____
ROOT
ATOM      1  N   UNL     1       1.429   8.782  18.663  0.00  0.00    +0.000 N 
ATOM      2  C   UNL     1       2.410   7.989  18.118  0.00  0.00    +0.000 C 
ATOM      3  O   UNL     1       3.416   8.457  17.588  0.00  0.00    +0.000 OA
ATOM      4  H   UNL     1       0.641   8.397  19.150  0.00  0.00    +0.000 HD
ENDROOT
BRANCH   1   5
ATOM      5  C   UNL     1       1.484  10.232  18.629  0.00  0.00    +0.000 C 
BRANCH   5  12
ATOM      6  C   UNL     1       1.251   8.840  21.621  0.00  0.00    +0.000 C 
ATOM      7  C   UNL     1       0.799  10.180  21.162  0.00  0.00    +0.000 A 
ATOM      8  N   UNL     1       0.241  10.994  22.063  0.00  0.00    +0.000 NA
ATOM      9  N   UNL     1      -0.042  12.117  21.381  0.00  0.00    +0.000 N 
ATOM     10  C   UNL     1       0.339  12.065  20.067  0.00  0.00    +0.000 A 
ATOM     11  C   UNL     1       0.162  13.192  19.117  0.00  0.00    +0.000 C 
ATOM     12  C   UNL     1       0.885  10.793  19.874  0.00  0.00    +0.000 A 
BRANCH   9  13
ATOM     13  C   UNL     1      -0.615  13.241  22.119  0.00  0.00    +0.000 C 
BRANCH  13  14
ATOM     14  C   UNL     1      -2.113  13.124  22.265  0.00  0.00    +0.000 A 
ATOM     15  C   UNL     1      -2.959  13.374  21.172  0.00  0.00    +0.000 A 
ATOM     16  C   UNL     1      -4.344  13.273  21.305  0.00  0.00    +0.000 A 
ATOM     17  C   UNL     1      -4.901  12.906  22.528  0.00  0.00    +0.000 A 
ATOM     18  C   UNL     1      -4.073  12.635  23.617  0.00  0.00    +0.000 A 
ATOM     19  C   UNL     1      -2.687  12.740  23.486  0.00  0.00    +0.000 A 
ENDBRANCH  13  14
ENDBRANCH   9  13
ENDBRANCH   5  12
ENDBRANCH   1   5
BRANCH   2  20
ATOM     20  C   UNL     1       2.208   6.468  18.186  0.00  0.00    +0.000 C 
BRANCH  20  21
ATOM     21  C   UNL     1       3.411   5.736  18.755  0.00  0.00    +0.000 C 
BRANCH  21  22
ATOM     22  C   UNL     1       4.164   4.709  17.877  0.00  0.00    +0.000 C 
ATOM     23  C   UNL     1       3.217   3.574  17.430  0.00  0.00    +0.000 C 
ATOM     24  C   UNL     1       2.638   3.018  18.715  0.00  0.00    +0.000 A 
ATOM     25  C   UNL     1       1.277   3.114  18.990  0.00  0.00    +0.000 A 
ATOM     26  C   UNL     1       0.854   3.048  20.317  0.00  0.00    +0.000 A 
ATOM     27  C   UNL     1       1.767   2.777  21.345  0.00  0.00    +0.000 A 
ATOM     28  C   UNL     1       3.114   2.562  21.062  0.00  0.00    +0.000 A 
ATOM     29  C   UNL     1       3.549   2.758  19.762  0.00  0.00    +0.000 A 
ATOM     30  N   UNL     1       4.896   3.029  19.546  0.00  0.00    +0.000 N 
ATOM     31  C   UNL     1       5.291   4.013  18.642  0.00  0.00    +0.000 C 
ATOM     32  O   UNL     1       6.462   4.353  18.537  0.00  0.00    +0.000 OA
ATOM     33  H   UNL     1       5.616   2.755  20.199  0.00  0.00    +0.000 HD
ENDBRANCH  21  22
ENDBRANCH  20  21
ENDBRANCH   2  20
TORSDOF 7
ENDMDL
MODEL 9
REMARK VINA RESULT:      -8.6      2.712      3.976
REMARK  Name = 
REMARK  9 active torsions:
REMARK  status: ('A' for Active; 'I' for Inactive)
REMARK    1  A    between atoms: C_1  and  C_2
REMARK    2  A    between atoms: N_4  and  C_5
REMARK    3  A    between atoms: C_5  and  C_6
REMARK    4  A    between atoms: C_12  and  C_13
REMARK    5  A    between atoms: C_14  and  C_15
REMARK    6  A    between atoms: C_15  and  N_16
REMARK    7  A    between atoms: C_17  and  C_19
REMARK    8  A    between atoms: C_19  and  C_20
REMARK    9  A    between atoms: C_20  and  C_21
REMARK                            x       y       z     vdW  Elec       q    Type
REMARK                         _______ _______ _______ _____ _____    ______ ____
ROOT
ATOM      1  N   UNL     1       1.485   9.044  19.153  0.00  0.00    +0.000 N 
ATOM      2  C   UNL     1       1.984   7.791  19.414  0.00  0.00    +0.000 C 
ATOM      3  O   UNL     1       1.791   7.216  20.484  0.00  0.00    +0.000 OA
ATOM      4  H   UNL     1       1.590   9.485  18.257  0.00  0.00    +0.000 HD
ENDROOT
BRANCH   1   5
ATOM      5  C   UNL     1       0.720   9.803  20.126  0.00  0.00    +0.000 C 
BRANCH   5  12
ATOM      6  C   UNL     1      -1.492  10.379  17.734  0.00  0.00    +0.000 C 
ATOM      7  C   UNL     1      -0.663  11.340  18.508  0.00  0.00    +0.000 A 
ATOM      8  N   UNL     1      -0.824  12.643  18.264  0.00  0.00    +0.000 NA
ATOM      9  N   UNL     1       0.022  13.257  19.108  0.00  0.00    +0.000 N 
ATOM     10  C   UNL     1       0.710  12.390  19.913  0.00  0.00    +0.000 A 
ATOM     11  C   UNL     1       1.680  12.827  20.949  0.00  0.00    +0.000 C 
ATOM     12  C   UNL     1       0.301  11.108  19.538  0.00  0.00    +0.000 A 
BRANCH   9  13
ATOM     13  C   UNL     1       0.033  14.719  19.125  0.00  0.00    +0.000 C 
BRANCH  13  14
ATOM     14  C   UNL     1       1.410  15.281  18.862  0.00  0.00    +0.000 A 
ATOM     15  C   UNL     1       1.890  16.371  19.607  0.00  0.00    +0.000 A 
ATOM     16  C   UNL     1       3.159  16.897  19.363  0.00  0.00    +0.000 A 
ATOM     17  C   UNL     1       3.969  16.332  18.381  0.00  0.00    +0.000 A 
ATOM     18  C   UNL     1       3.514  15.238  17.646  0.00  0.00    +0.000 A 
ATOM     19  C   UNL     1       2.242  14.713  17.887  0.00  0.00    +0.000 A 
ENDBRANCH  13  14
ENDBRANCH   9  13
ENDBRANCH   5  12
ENDBRANCH   1   5
BRANCH   2  20
ATOM     20  C   UNL     1       2.811   7.115  18.312  0.00  0.00    +0.000 C 
BRANCH  20  21
ATOM     21  C   UNL     1       3.760   6.056  18.847  0.00  0.00    +0.000 C 
BRANCH  21  22
ATOM     22  C   UNL     1       4.369   5.018  17.876  0.00  0.00    +0.000 C 
ATOM     23  C   UNL     1       3.283   4.051  17.357  0.00  0.00    +0.000 C 
ATOM     24  C   UNL     1       2.648   3.470  18.604  0.00  0.00    +0.000 A 
ATOM     25  C   UNL     1       1.312   3.713  18.911  0.00  0.00    +0.000 A 
ATOM     26  C   UNL     1       0.895   3.592  20.235  0.00  0.00    +0.000 A 
ATOM     27  C   UNL     1       1.774   3.126  21.222  0.00  0.00    +0.000 A 
ATOM     28  C   UNL     1       3.080   2.767  20.897  0.00  0.00    +0.000 A 
ATOM     29  C   UNL     1       3.527   3.012  19.610  0.00  0.00    +0.000 A 
ATOM     30  N   UNL     1       4.895   3.130  19.392  0.00  0.00    +0.000 N 
ATOM     31  C   UNL     1       5.405   4.126  18.563  0.00  0.00    +0.000 C 
ATOM     32  O   UNL     1       6.609   4.324  18.464  0.00  0.00    +0.000 OA
ATOM     33  H   UNL     1       5.580   2.714  20.007  0.00  0.00    +0.000 HD
ENDBRANCH  21  22
ENDBRANCH  20  21
ENDBRANCH   2  20
TORSDOF 7
ENDMDL
