MODEL 1
REMARK VINA RESULT:      -7.8      0.000      0.000
REMARK  Name = 
REMARK  3 active torsions:
REMARK  status: ('A' for Active; 'I' for Inactive)
REMARK    1  A    between atoms: C_2  and  C_20
REMARK    2  A    between atoms: N_3  and  C_4
REMARK    3  A    between atoms: C_11  and  C_12
REMARK                            x       y       z     vdW  Elec       q    Type
REMARK                         _______ _______ _______ _____ _____    ______ ____
ROOT
ATOM      1  C   UNL     1       0.862  11.270  19.972  0.00  0.00    +0.000 C 
ATOM      2  C   UNL     1       1.525  10.895  18.640  0.00  0.00    +0.000 C 
ATOM      3  C   UNL     1       1.150   9.475  18.249  0.00  0.00    +0.000 C 
ATOM      4  N   UNL     1       1.576   8.562  19.308  0.00  0.00    +0.000 N 
ATOM      5  C   UNL     1       2.357   7.489  18.952  0.00  0.00    +0.000 A 
ATOM      6  C   UNL     1       2.353   6.283  19.650  0.00  0.00    +0.000 A 
ATOM      7  C   UNL     1       3.154   5.220  19.218  0.00  0.00    +0.000 A 
ATOM      8  C   UNL     1       3.964   5.376  18.096  0.00  0.00    +0.000 A 
ATOM      9  C   UNL     1       3.925   6.602  17.465  0.00  0.00    +0.000 A 
ATOM     10  N   UNL     1       3.146   7.628  17.864  0.00  0.00    +0.000 NA
ATOM     11  C   UNL     1       1.061   8.808  20.652  0.00  0.00    +0.000 C 
ATOM     12  C   UNL     1       1.302  10.272  21.052  0.00  0.00    +0.000 C 
ENDROOT
BRANCH   1  15
ATOM     13  O   UNL     1      -0.709  13.563  19.331  0.00  0.00    +0.000 OA
ATOM     14  C   UNL     1      -1.271  12.483  19.491  0.00  0.00    +0.000 C 
ATOM     15  N   UNL     1      -0.596  11.344  19.879  0.00  0.00    +0.000 N 
ATOM     16  H   UNL     1      -1.156  10.503  19.967  0.00  0.00    +0.000 HD
BRANCH  14  17
ATOM     17  C   UNL     1      -2.678  12.277  19.225  0.00  0.00    +0.000 A 
ATOM     18  C   UNL     1      -3.308  11.681  18.149  0.00  0.00    +0.000 A 
ATOM     19  C   UNL     1      -4.683  11.582  18.476  0.00  0.00    +0.000 A 
ATOM     20  C   UNL     1      -5.819  11.018  17.869  0.00  0.00    +0.000 A 
ATOM     21  C   UNL     1      -7.041  11.071  18.553  0.00  0.00    +0.000 A 
ATOM     22  C   UNL     1      -7.144  11.699  19.797  0.00  0.00    +0.000 A 
ATOM     23  C   UNL     1      -6.029  12.289  20.405  0.00  0.00    +0.000 A 
ATOM     24  C   UNL     1      -4.821  12.189  19.718  0.00  0.00    +0.000 A 
ATOM     25  O   UNL     1      -3.613  12.632  20.168  0.00  0.00    +0.000 OA
ENDBRANCH  14  17
ENDBRANCH   1  15
BRANCH   8  26
ATOM     26  C   UNL     1       4.847   4.302  17.551  0.00  0.00    +0.000 C 
ATOM     27  F   UNL     1       4.431   3.044  17.866  0.00  0.00    +0.000 F 
ATOM     28  F   UNL     1       4.933   4.337  16.193  0.00  0.00    +0.000 F 
ATOM     29  F   UNL     1       6.127   4.395  18.006  0.00  0.00    +0.000 F 
ENDBRANCH   8  26
TORSDOF 3
ENDMDL
MODEL 2
REMARK VINA RESULT:      -7.7      0.885      1.358
REMARK  Name = 
REMARK  3 active torsions:
REMARK  status: ('A' for Active; 'I' for Inactive)
REMARK    1  A    between atoms: C_2  and  C_20
REMARK    2  A    between atoms: N_3  and  C_4
REMARK    3  A    between atoms: C_11  and  C_12
REMARK                            x       y       z     vdW  Elec       q    Type
REMARK                         _______ _______ _______ _____ _____    ______ ____
ROOT
ATOM      1  C   UNL     1       0.539  11.442  20.167  0.00  0.00    +0.000 C 
ATOM      2  C   UNL     1       1.210  11.170  18.814  0.00  0.00    +0.000 C 
ATOM      3  C   UNL     1       0.916   9.750  18.359  0.00  0.00    +0.000 C 
ATOM      4  N   UNL     1       1.404   8.815  19.371  0.00  0.00    +0.000 N 
ATOM      5  C   UNL     1       2.244   7.808  18.959  0.00  0.00    +0.000 A 
ATOM      6  C   UNL     1       2.317   6.573  19.599  0.00  0.00    +0.000 A 
ATOM      7  C   UNL     1       3.175   5.580  19.113  0.00  0.00    +0.000 A 
ATOM      8  C   UNL     1       3.964   5.836  17.994  0.00  0.00    +0.000 A 
ATOM      9  C   UNL     1       3.848   7.086  17.422  0.00  0.00    +0.000 A 
ATOM     10  N   UNL     1       3.013   8.045  17.874  0.00  0.00    +0.000 NA
ATOM     11  C   UNL     1       0.889   8.967  20.729  0.00  0.00    +0.000 C 
ATOM     12  C   UNL     1       1.047  10.422  21.196  0.00  0.00    +0.000 C 
ENDROOT
BRANCH   1  15
ATOM     13  O   UNL     1      -1.252  13.425  21.167  0.00  0.00    +0.000 OA
ATOM     14  C   UNL     1      -1.708  12.475  20.537  0.00  0.00    +0.000 C 
ATOM     15  N   UNL     1      -0.921  11.434  20.088  0.00  0.00    +0.000 N 
ATOM     16  H   UNL     1      -1.400  10.709  19.565  0.00  0.00    +0.000 HD
BRANCH  14  17
ATOM     17  C   UNL     1      -3.097  12.382  20.144  0.00  0.00    +0.000 A 
ATOM     18  C   UNL     1      -4.243  12.782  20.805  0.00  0.00    +0.000 A 
ATOM     19  C   UNL     1      -5.321  12.622  19.899  0.00  0.00    +0.000 A 
ATOM     20  C   UNL     1      -6.696  12.915  19.916  0.00  0.00    +0.000 A 
ATOM     21  C   UNL     1      -7.452  12.656  18.765  0.00  0.00    +0.000 A 
ATOM     22  C   UNL     1      -6.866  12.087  17.631  0.00  0.00    +0.000 A 
ATOM     23  C   UNL     1      -5.503  11.764  17.604  0.00  0.00    +0.000 A 
ATOM     24  C   UNL     1      -4.771  12.066  18.750  0.00  0.00    +0.000 A 
ATOM     25  O   UNL     1      -3.426  11.898  18.901  0.00  0.00    +0.000 OA
ENDBRANCH  14  17
ENDBRANCH   1  15
BRANCH   8  26
ATOM     26  C   UNL     1       4.903   4.843  17.392  0.00  0.00    +0.000 C 
ATOM     27  F   UNL     1       4.285   3.720  16.933  0.00  0.00    +0.000 F 
ATOM     28  F   UNL     1       5.590   5.351  16.333  0.00  0.00    +0.000 F 
ATOM     29  F   UNL     1       5.847   4.413  18.276  0.00  0.00    +0.000 F 
ENDBRANCH   8  26
TORSDOF 3
ENDMDL
MODEL 3
REMARK VINA RESULT:      -7.5      6.130      9.865
REMARK  Name = 
REMARK  3 active torsions:
REMARK  status: ('A' for Active; 'I' for Inactive)
REMARK    1  A    between atoms: C_2  and  C_20
REMARK    2  A    between atoms: N_3  and  C_4
REMARK    3  A    between atoms: C_11  and  C_12
REMARK                            x       y       z     vdW  Elec       q    Type
REMARK                         _______ _______ _______ _____ _____    ______ ____
ROOT
ATOM      1  C   UNL     1       0.991  10.726  18.937  0.00  0.00    +0.000 C 
ATOM      2  C   UNL     1       1.500  11.508  20.155  0.00  0.00    +0.000 C 
ATOM      3  C   UNL     1       0.622  11.226  21.363  0.00  0.00    +0.000 C 
ATOM      4  N   UNL     1      -0.754  11.604  21.050  0.00  0.00    +0.000 N 
ATOM      5  C   UNL     1      -1.397  12.455  21.916  0.00  0.00    +0.000 A 
ATOM      6  C   UNL     1      -2.777  12.447  22.104  0.00  0.00    +0.000 A 
ATOM      7  C   UNL     1      -3.366  13.323  23.022  0.00  0.00    +0.000 A 
ATOM      8  C   UNL     1      -2.569  14.214  23.737  0.00  0.00    +0.000 A 
ATOM      9  C   UNL     1      -1.213  14.174  23.488  0.00  0.00    +0.000 A 
ATOM     10  N   UNL     1      -0.633  13.323  22.617  0.00  0.00    +0.000 NA
ATOM     11  C   UNL     1      -1.375  10.974  19.888  0.00  0.00    +0.000 C 
ATOM     12  C   UNL     1      -0.466  11.120  18.657  0.00  0.00    +0.000 C 
ENDROOT
BRANCH   1  15
ATOM     13  O   UNL     1       2.580   8.965  17.353  0.00  0.00    +0.000 OA
ATOM     14  C   UNL     1       1.980   8.513  18.324  0.00  0.00    +0.000 C 
ATOM     15  N   UNL     1       1.129   9.279  19.094  0.00  0.00    +0.000 N 
ATOM     16  H   UNL     1       0.697   8.808  19.881  0.00  0.00    +0.000 HD
BRANCH  14  17
ATOM     17  C   UNL     1       2.153   7.157  18.799  0.00  0.00    +0.000 A 
ATOM     18  C   UNL     1       2.208   6.661  20.088  0.00  0.00    +0.000 A 
ATOM     19  C   UNL     1       2.209   5.248  19.988  0.00  0.00    +0.000 A 
ATOM     20  C   UNL     1       2.171   4.178  20.900  0.00  0.00    +0.000 A 
ATOM     21  C   UNL     1       2.122   2.870  20.400  0.00  0.00    +0.000 A 
ATOM     22  C   UNL     1       2.145   2.624  19.024  0.00  0.00    +0.000 A 
ATOM     23  C   UNL     1       2.209   3.674  18.101  0.00  0.00    +0.000 A 
ATOM     24  C   UNL     1       2.220   4.964  18.627  0.00  0.00    +0.000 A 
ATOM     25  O   UNL     1       2.209   6.118  17.902  0.00  0.00    +0.000 OA
ENDBRANCH  14  17
ENDBRANCH   1  15
BRANCH   8  26
ATOM     26  C   UNL     1      -3.098  15.182  24.744  0.00  0.00    +0.000 C 
ATOM     27  F   UNL     1      -2.482  16.395  24.707  0.00  0.00    +0.000 F 
ATOM     28  F   UNL     1      -4.426  15.431  24.580  0.00  0.00    +0.000 F 
ATOM     29  F   UNL     1      -2.960  14.733  26.023  0.00  0.00    +0.000 F 
ENDBRANCH   8  26
TORSDOF 3
ENDMDL
MODEL 4
REMARK VINA RESULT:      -7.3      5.600      9.860
REMARK  Name = 
REMARK  3 active torsions:
REMARK  status: ('A' for Active; 'I' for Inactive)
REMARK    1  A    between atoms: C_2  and  C_20
REMARK    2  A    between atoms: N_3  and  C_4
REMARK    3  A    between atoms: C_11  and  C_12
REMARK                            x       y       z     vdW  Elec       q    Type
REMARK                         _______ _______ _______ _____ _____    ______ ____
ROOT
ATOM      1  C   UNL     1       1.096  10.198  19.308  0.00  0.00    +0.000 C 
ATOM      2  C   UNL     1       0.067  10.868  20.229  0.00  0.00    +0.000 C 
ATOM      3  C   UNL     1      -1.308  10.261  20.009  0.00  0.00    +0.000 C 
ATOM      4  N   UNL     1      -1.686  10.433  18.608  0.00  0.00    +0.000 N 
ATOM      5  C   UNL     1      -2.898  11.021  18.340  0.00  0.00    +0.000 A 
ATOM      6  C   UNL     1      -3.640  10.743  17.194  0.00  0.00    +0.000 A 
ATOM      7  C   UNL     1      -4.881  11.357  16.994  0.00  0.00    +0.000 A 
ATOM      8  C   UNL     1      -5.367  12.257  17.939  0.00  0.00    +0.000 A 
ATOM      9  C   UNL     1      -4.572  12.493  19.041  0.00  0.00    +0.000 A 
ATOM     10  N   UNL     1      -3.380  11.896  19.250  0.00  0.00    +0.000 NA
ATOM     11  C   UNL     1      -0.786   9.883  17.598  0.00  0.00    +0.000 C 
ATOM     12  C   UNL     1       0.651  10.366  17.848  0.00  0.00    +0.000 C 
ENDROOT
BRANCH   1  15
ATOM     13  O   UNL     1       2.743   8.340  17.903  0.00  0.00    +0.000 OA
ATOM     14  C   UNL     1       2.191   7.980  18.939  0.00  0.00    +0.000 C 
ATOM     15  N   UNL     1       1.318   8.790  19.636  0.00  0.00    +0.000 N 
ATOM     16  H   UNL     1       0.931   8.397  20.488  0.00  0.00    +0.000 HD
BRANCH  14  17
ATOM     17  C   UNL     1       2.451   6.704  19.570  0.00  0.00    +0.000 A 
ATOM     18  C   UNL     1       1.792   6.067  20.605  0.00  0.00    +0.000 A 
ATOM     19  C   UNL     1       2.344   4.767  20.709  0.00  0.00    +0.000 A 
ATOM     20  C   UNL     1       2.073   3.622  21.479  0.00  0.00    +0.000 A 
ATOM     21  C   UNL     1       2.825   2.463  21.246  0.00  0.00    +0.000 A 
ATOM     22  C   UNL     1       3.848   2.447  20.294  0.00  0.00    +0.000 A 
ATOM     23  C   UNL     1       4.150   3.585  19.536  0.00  0.00    +0.000 A 
ATOM     24  C   UNL     1       3.362   4.711  19.765  0.00  0.00    +0.000 A 
ATOM     25  O   UNL     1       3.446   5.890  19.086  0.00  0.00    +0.000 OA
ENDBRANCH  14  17
ENDBRANCH   1  15
BRANCH   8  26
ATOM     26  C   UNL     1      -6.681  12.958  17.823  0.00  0.00    +0.000 C 
ATOM     27  F   UNL     1      -7.685  12.344  18.507  0.00  0.00    +0.000 F 
ATOM     28  F   UNL     1      -6.634  14.234  18.294  0.00  0.00    +0.000 F 
ATOM     29  F   UNL     1      -7.112  13.052  16.535  0.00  0.00    +0.000 F 
ENDBRANCH   8  26
TORSDOF 3
ENDMDL
MODEL 5
REMARK VINA RESULT:      -7.3      3.547      5.992
REMARK  Name = 
REMARK  3 active torsions:
REMARK  status: ('A' for Active; 'I' for Inactive)
REMARK    1  A    between atoms: C_2  and  C_20
REMARK    2  A    between atoms: N_3  and  C_4
REMARK    3  A    between atoms: C_11  and  C_12
REMARK                            x       y       z     vdW  Elec       q    Type
REMARK                         _______ _______ _______ _____ _____    ______ ____
ROOT
ATOM      1  C   UNL     1       0.144  10.440  19.208  0.00  0.00    +0.000 C 
ATOM      2  C   UNL     1       0.075   9.513  20.429  0.00  0.00    +0.000 C 
ATOM      3  C   UNL     1       1.433   8.880  20.683  0.00  0.00    +0.000 C 
ATOM      4  N   UNL     1       1.840   8.133  19.495  0.00  0.00    +0.000 N 
ATOM      5  C   UNL     1       2.205   6.819  19.659  0.00  0.00    +0.000 A 
ATOM      6  C   UNL     1       3.122   6.177  18.830  0.00  0.00    +0.000 A 
ATOM      7  C   UNL     1       3.471   4.843  19.068  0.00  0.00    +0.000 A 
ATOM      8  C   UNL     1       2.887   4.155  20.130  0.00  0.00    +0.000 A 
ATOM      9  C   UNL     1       1.978   4.851  20.899  0.00  0.00    +0.000 A 
ATOM     10  N   UNL     1       1.646   6.142  20.686  0.00  0.00    +0.000 NA
ATOM     11  C   UNL     1       1.917   8.867  18.235  0.00  0.00    +0.000 C 
ATOM     12  C   UNL     1       0.608   9.633  17.987  0.00  0.00    +0.000 C 
ENDROOT
BRANCH   1  15
ATOM     13  O   UNL     1      -0.269  13.089  18.231  0.00  0.00    +0.000 OA
ATOM     14  C   UNL     1       0.682  12.871  18.976  0.00  0.00    +0.000 C 
ATOM     15  N   UNL     1       0.998  11.607  19.429  0.00  0.00    +0.000 N 
ATOM     16  H   UNL     1       1.796  11.544  20.052  0.00  0.00    +0.000 HD
BRANCH  14  17
ATOM     17  C   UNL     1       1.525  13.920  19.509  0.00  0.00    +0.000 A 
ATOM     18  C   UNL     1       1.875  14.211  20.814  0.00  0.00    +0.000 A 
ATOM     19  C   UNL     1       2.862  15.226  20.762  0.00  0.00    +0.000 A 
ATOM     20  C   UNL     1       3.669  15.889  21.703  0.00  0.00    +0.000 A 
ATOM     21  C   UNL     1       4.604  16.827  21.245  0.00  0.00    +0.000 A 
ATOM     22  C   UNL     1       4.715  17.127  19.885  0.00  0.00    +0.000 A 
ATOM     23  C   UNL     1       3.903  16.496  18.935  0.00  0.00    +0.000 A 
ATOM     24  C   UNL     1       3.008  15.543  19.417  0.00  0.00    +0.000 A 
ATOM     25  O   UNL     1       2.184  14.770  18.654  0.00  0.00    +0.000 OA
ENDBRANCH  14  17
ENDBRANCH   1  15
BRANCH   8  26
ATOM     26  C   UNL     1       3.197   2.735  20.473  0.00  0.00    +0.000 C 
ATOM     27  F   UNL     1       4.513   2.417  20.333  0.00  0.00    +0.000 F 
ATOM     28  F   UNL     1       2.873   2.427  21.759  0.00  0.00    +0.000 F 
ATOM     29  F   UNL     1       2.515   1.848  19.696  0.00  0.00    +0.000 F 
ENDBRANCH   8  26
TORSDOF 3
ENDMDL
MODEL 6
REMARK VINA RESULT:      -7.3      3.547      5.797
REMARK  Name = 
REMARK  3 active torsions:
REMARK  status: ('A' for Active; 'I' for Inactive)
REMARK    1  A    between atoms: C_2  and  C_20
REMARK    2  A    between atoms: N_3  and  C_4
REMARK    3  A    between atoms: C_11  and  C_12
REMARK                            x       y       z     vdW  Elec       q    Type
REMARK                         _______ _______ _______ _____ _____    ______ ____
ROOT
ATOM      1  C   UNL     1       0.177  10.446  19.135  0.00  0.00    +0.000 C 
ATOM      2  C   UNL     1       0.103   9.521  20.358  0.00  0.00    +0.000 C 
ATOM      3  C   UNL     1       1.454   8.872  20.607  0.00  0.00    +0.000 C 
ATOM      4  N   UNL     1       1.848   8.120  19.418  0.00  0.00    +0.000 N 
ATOM      5  C   UNL     1       2.198   6.801  19.582  0.00  0.00    +0.000 A 
ATOM      6  C   UNL     1       3.104   6.148  18.749  0.00  0.00    +0.000 A 
ATOM      7  C   UNL     1       3.438   4.810  18.987  0.00  0.00    +0.000 A 
ATOM      8  C   UNL     1       2.851   4.130  20.052  0.00  0.00    +0.000 A 
ATOM      9  C   UNL     1       1.954   4.838  20.825  0.00  0.00    +0.000 A 
ATOM     10  N   UNL     1       1.636   6.132  20.612  0.00  0.00    +0.000 NA
ATOM     11  C   UNL     1       1.927   8.852  18.156  0.00  0.00    +0.000 C 
ATOM     12  C   UNL     1       0.627   9.632  17.914  0.00  0.00    +0.000 C 
ENDROOT
BRANCH   1  15
ATOM     13  O   UNL     1      -0.238  13.111  18.205  0.00  0.00    +0.000 OA
ATOM     14  C   UNL     1       0.729  12.876  18.924  0.00  0.00    +0.000 C 
ATOM     15  N   UNL     1       1.046  11.603  19.352  0.00  0.00    +0.000 N 
ATOM     16  H   UNL     1       1.858  11.525  19.954  0.00  0.00    +0.000 HD
BRANCH  14  17
ATOM     17  C   UNL     1       1.593  13.911  19.450  0.00  0.00    +0.000 A 
ATOM     18  C   UNL     1       2.957  13.911  19.673  0.00  0.00    +0.000 A 
ATOM     19  C   UNL     1       3.319  15.234  20.027  0.00  0.00    +0.000 A 
ATOM     20  C   UNL     1       4.525  15.906  20.291  0.00  0.00    +0.000 A 
ATOM     21  C   UNL     1       4.483  17.281  20.557  0.00  0.00    +0.000 A 
ATOM     22  C   UNL     1       3.268  17.971  20.594  0.00  0.00    +0.000 A 
ATOM     23  C   UNL     1       2.055  17.314  20.359  0.00  0.00    +0.000 A 
ATOM     24  C   UNL     1       2.131  15.955  20.062  0.00  0.00    +0.000 A 
ATOM     25  O   UNL     1       1.079  15.152  19.735  0.00  0.00    +0.000 OA
ENDBRANCH  14  17
ENDBRANCH   1  15
BRANCH   8  26
ATOM     26  C   UNL     1       3.146   2.707  20.396  0.00  0.00    +0.000 C 
ATOM     27  F   UNL     1       2.372   1.813  19.721  0.00  0.00    +0.000 F 
ATOM     28  F   UNL     1       4.435   2.362  20.127  0.00  0.00    +0.000 F 
ATOM     29  F   UNL     1       2.958   2.439  21.718  0.00  0.00    +0.000 F 
ENDBRANCH   8  26
TORSDOF 3
ENDMDL
MODEL 7
REMARK VINA RESULT:      -7.3      3.532      5.992
REMARK  Name = 
REMARK  3 active torsions:
REMARK  status: ('A' for Active; 'I' for Inactive)
REMARK    1  A    between atoms: C_2  and  C_20
REMARK    2  A    between atoms: N_3  and  C_4
REMARK    3  A    between atoms: C_11  and  C_12
REMARK                            x       y       z     vdW  Elec       q    Type
REMARK                         _______ _______ _______ _____ _____    ______ ____
ROOT
ATOM      1  C   UNL     1       0.166  10.446  19.472  0.00  0.00    +0.000 C 
ATOM      2  C   UNL     1       0.131   9.469  20.655  0.00  0.00    +0.000 C 
ATOM      3  C   UNL     1       1.490   8.815  20.836  0.00  0.00    +0.000 C 
ATOM      4  N   UNL     1       1.851   8.116  19.605  0.00  0.00    +0.000 N 
ATOM      5  C   UNL     1       2.210   6.794  19.702  0.00  0.00    +0.000 A 
ATOM      6  C   UNL     1       3.093   6.180  18.816  0.00  0.00    +0.000 A 
ATOM      7  C   UNL     1       3.437   4.835  18.986  0.00  0.00    +0.000 A 
ATOM      8  C   UNL     1       2.884   4.107  20.037  0.00  0.00    +0.000 A 
ATOM      9  C   UNL     1       2.007   4.778  20.865  0.00  0.00    +0.000 A 
ATOM     10  N   UNL     1       1.680   6.078  20.718  0.00  0.00    +0.000 NA
ATOM     11  C   UNL     1       1.891   8.902  18.375  0.00  0.00    +0.000 C 
ATOM     12  C   UNL     1       0.582   9.687  18.204  0.00  0.00    +0.000 C 
ENDROOT
BRANCH   1  15
ATOM     13  O   UNL     1      -0.414  12.746  21.056  0.00  0.00    +0.000 OA
ATOM     14  C   UNL     1       0.701  12.636  20.555  0.00  0.00    +0.000 C 
ATOM     15  N   UNL     1       1.038  11.596  19.713  0.00  0.00    +0.000 N 
ATOM     16  H   UNL     1       1.991  11.594  19.367  0.00  0.00    +0.000 HD
BRANCH  14  17
ATOM     17  C   UNL     1       1.792  13.541  20.846  0.00  0.00    +0.000 A 
ATOM     18  C   UNL     1       2.918  13.853  20.108  0.00  0.00    +0.000 A 
ATOM     19  C   UNL     1       3.563  14.926  20.769  0.00  0.00    +0.000 A 
ATOM     20  C   UNL     1       4.677  15.742  20.505  0.00  0.00    +0.000 A 
ATOM     21  C   UNL     1       4.980  16.776  21.401  0.00  0.00    +0.000 A 
ATOM     22  C   UNL     1       4.215  16.979  22.553  0.00  0.00    +0.000 A 
ATOM     23  C   UNL     1       3.117  16.160  22.847  0.00  0.00    +0.000 A 
ATOM     24  C   UNL     1       2.820  15.163  21.920  0.00  0.00    +0.000 A 
ATOM     25  O   UNL     1       1.757  14.312  21.983  0.00  0.00    +0.000 OA
ENDBRANCH  14  17
ENDBRANCH   1  15
BRANCH   8  26
ATOM     26  C   UNL     1       3.193   2.672  20.311  0.00  0.00    +0.000 C 
ATOM     27  F   UNL     1       3.049   2.325  21.619  0.00  0.00    +0.000 F 
ATOM     28  F   UNL     1       2.392   1.824  19.609  0.00  0.00    +0.000 F 
ATOM     29  F   UNL     1       4.470   2.339  19.975  0.00  0.00    +0.000 F 
ENDBRANCH   8  26
TORSDOF 3
ENDMDL
MODEL 8
REMARK VINA RESULT:      -7.3      3.561      5.883
REMARK  Name = 
REMARK  3 active torsions:
REMARK  status: ('A' for Active; 'I' for Inactive)
REMARK    1  A    between atoms: C_2  and  C_20
REMARK    2  A    between atoms: N_3  and  C_4
REMARK    3  A    between atoms: C_11  and  C_12
REMARK                            x       y       z     vdW  Elec       q    Type
REMARK                         _______ _______ _______ _____ _____    ______ ____
ROOT
ATOM      1  C   UNL     1       0.168  10.479  19.076  0.00  0.00    +0.000 C 
ATOM      2  C   UNL     1       0.148   9.603  20.335  0.00  0.00    +0.000 C 
ATOM      3  C   UNL     1       1.505   8.952  20.543  0.00  0.00    +0.000 C 
ATOM      4  N   UNL     1       1.834   8.151  19.366  0.00  0.00    +0.000 N 
ATOM      5  C   UNL     1       2.183   6.836  19.564  0.00  0.00    +0.000 A 
ATOM      6  C   UNL     1       3.043   6.144  18.714  0.00  0.00    +0.000 A 
ATOM      7  C   UNL     1       3.378   4.813  18.987  0.00  0.00    +0.000 A 
ATOM      8  C   UNL     1       2.840   4.179  20.105  0.00  0.00    +0.000 A 
ATOM      9  C   UNL     1       1.986   4.924  20.892  0.00  0.00    +0.000 A 
ATOM     10  N   UNL     1       1.667   6.212  20.645  0.00  0.00    +0.000 NA
ATOM     11  C   UNL     1       1.857   8.833  18.075  0.00  0.00    +0.000 C 
ATOM     12  C   UNL     1       0.552   9.616  17.866  0.00  0.00    +0.000 C 
ENDROOT
BRANCH   1  15
ATOM     13  O   UNL     1      -0.314  13.132  18.145  0.00  0.00    +0.000 OA
ATOM     14  C   UNL     1       0.708  12.904  18.786  0.00  0.00    +0.000 C 
ATOM     15  N   UNL     1       1.055  11.636  19.205  0.00  0.00    +0.000 N 
ATOM     16  H   UNL     1       1.913  11.564  19.741  0.00  0.00    +0.000 HD
BRANCH  14  17
ATOM     17  C   UNL     1       1.614  13.943  19.226  0.00  0.00    +0.000 A 
ATOM     18  C   UNL     1       1.535  15.316  19.088  0.00  0.00    +0.000 A 
ATOM     19  C   UNL     1       2.590  15.870  19.854  0.00  0.00    +0.000 A 
ATOM     20  C   UNL     1       3.006  17.169  20.195  0.00  0.00    +0.000 A 
ATOM     21  C   UNL     1       4.101  17.320  21.056  0.00  0.00    +0.000 A 
ATOM     22  C   UNL     1       4.792  16.207  21.543  0.00  0.00    +0.000 A 
ATOM     23  C   UNL     1       4.409  14.906  21.194  0.00  0.00    +0.000 A 
ATOM     24  C   UNL     1       3.295  14.788  20.366  0.00  0.00    +0.000 A 
ATOM     25  O   UNL     1       2.721  13.616  19.970  0.00  0.00    +0.000 OA
ENDBRANCH  14  17
ENDBRANCH   1  15
BRANCH   8  26
ATOM     26  C   UNL     1       3.141   2.768  20.489  0.00  0.00    +0.000 C 
ATOM     27  F   UNL     1       2.750   2.453  21.754  0.00  0.00    +0.000 F 
ATOM     28  F   UNL     1       2.531   1.865  19.674  0.00  0.00    +0.000 F 
ATOM     29  F   UNL     1       4.472   2.483  20.429  0.00  0.00    +0.000 F 
ENDBRANCH   8  26
TORSDOF 3
ENDMDL
MODEL 9
REMARK VINA RESULT:      -7.2      6.083     10.088
REMARK  Name = 
REMARK  3 active torsions:
REMARK  status: ('A' for Active; 'I' for Inactive)
REMARK    1  A    between atoms: C_2  and  C_20
REMARK    2  A    between atoms: N_3  and  C_4
REMARK    3  A    between atoms: C_11  and  C_12
REMARK                            x       y       z     vdW  Elec       q    Type
REMARK                         _______ _______ _______ _____ _____    ______ ____
ROOT
ATOM      1  C   UNL     1       0.030  12.306  19.058  0.00  0.00    +0.000 C 
ATOM      2  C   UNL     1      -0.127  12.702  20.532  0.00  0.00    +0.000 C 
ATOM      3  C   UNL     1      -1.306  11.968  21.149  0.00  0.00    +0.000 C 
ATOM      4  N   UNL     1      -2.516  12.296  20.399  0.00  0.00    +0.000 N 
ATOM      5  C   UNL     1      -3.599  12.763  21.104  0.00  0.00    +0.000 A 
ATOM      6  C   UNL     1      -4.915  12.566  20.692  0.00  0.00    +0.000 A 
ATOM      7  C   UNL     1      -5.974  13.045  21.471  0.00  0.00    +0.000 A 
ATOM      8  C   UNL     1      -5.708  13.730  22.654  0.00  0.00    +0.000 A 
ATOM      9  C   UNL     1      -4.381  13.898  22.991  0.00  0.00    +0.000 A 
ATOM     10  N   UNL     1      -3.353  13.428  22.255  0.00  0.00    +0.000 NA
ATOM     11  C   UNL     1      -2.514  12.016  18.966  0.00  0.00    +0.000 C 
ATOM     12  C   UNL     1      -1.270  12.631  18.307  0.00  0.00    +0.000 C 
ENDROOT
BRANCH   1  15
ATOM     13  O   UNL     1       2.450  11.299  17.933  0.00  0.00    +0.000 OA
ATOM     14  C   UNL     1       1.634  10.507  18.394  0.00  0.00    +0.000 C 
ATOM     15  N   UNL     1       0.407  10.904  18.884  0.00  0.00    +0.000 N 
ATOM     16  H   UNL     1      -0.184  10.167  19.255  0.00  0.00    +0.000 HD
BRANCH  14  17
ATOM     17  C   UNL     1       1.899   9.091  18.533  0.00  0.00    +0.000 A 
ATOM     18  C   UNL     1       2.571   8.219  17.697  0.00  0.00    +0.000 A 
ATOM     19  C   UNL     1       2.697   6.992  18.392  0.00  0.00    +0.000 A 
ATOM     20  C   UNL     1       3.328   5.760  18.146  0.00  0.00    +0.000 A 
ATOM     21  C   UNL     1       3.279   4.769  19.136  0.00  0.00    +0.000 A 
ATOM     22  C   UNL     1       2.590   4.982  20.333  0.00  0.00    +0.000 A 
ATOM     23  C   UNL     1       1.933   6.192  20.586  0.00  0.00    +0.000 A 
ATOM     24  C   UNL     1       2.030   7.170  19.599  0.00  0.00    +0.000 A 
ATOM     25  O   UNL     1       1.525   8.434  19.680  0.00  0.00    +0.000 OA
ENDBRANCH  14  17
ENDBRANCH   1  15
BRANCH   8  26
ATOM     26  C   UNL     1      -6.765  14.272  23.559  0.00  0.00    +0.000 C 
ATOM     27  F   UNL     1      -7.883  14.686  22.902  0.00  0.00    +0.000 F 
ATOM     28  F   UNL     1      -7.187  13.356  24.474  0.00  0.00    +0.000 F 
ATOM     29  F   UNL     1      -6.337  15.346  24.279  0.00  0.00    +0.000 F 
ENDBRANCH   8  26
TORSDOF 3
ENDMDL
