MODEL 1
REMARK VINA RESULT:      -9.4      0.000      0.000
REMARK  Name = 
REMARK  6 active torsions:
REMARK  status: ('A' for Active; 'I' for Inactive)
REMARK    1  A    between atoms: C_1  and  C_2
REMARK    2  A    between atoms: C_2  and  N_3
REMARK    3  A    between atoms: C_7  and  C_8
REMARK    4  A    between atoms: C_8  and  C_9
REMARK    5  A    between atoms: C_10  and  N_11
REMARK    6  A    between atoms: C_18  and  C_19
REMARK                            x       y       z     vdW  Elec       q    Type
REMARK                         _______ _______ _______ _____ _____    ______ ____
ROOT
ATOM      1  C   UNL     1       3.708   4.916  19.459  0.00  0.00    +0.000 C 
ATOM      2  C   UNL     1       2.439   5.345  19.670  0.00  0.00    +0.000 C 
ATOM      3  N   UNL     1       1.377   4.486  19.901  0.00  0.00    +0.000 N 
ATOM      4  C   UNL     1       1.500   3.176  20.522  0.00  0.00    +0.000 C 
ATOM      5  C   UNL     1       1.883   2.125  19.500  0.00  0.00    +0.000 C 
ATOM      6  C   UNL     1       3.074   2.541  18.674  0.00  0.00    +0.000 C 
ATOM      7  O   UNL     1       3.261   2.050  17.556  0.00  0.00    +0.000 OA
ATOM      8  C   UNL     1       4.108   3.458  19.311  0.00  0.00    +0.000 C 
ATOM      9  H   UNL     1       0.539   4.994  20.172  0.00  0.00    +0.000 HD
ENDROOT
BRANCH   2  10
ATOM     10  N   UNL     1       2.199   6.702  19.752  0.00  0.00    +0.000 N 
ATOM     11  C   UNL     1       1.497   7.299  20.881  0.00  0.00    +0.000 C 
ATOM     12  C   UNL     1       1.173   8.682  20.394  0.00  0.00    +0.000 A 
ATOM     13  C   UNL     1       1.597   8.817  19.073  0.00  0.00    +0.000 A 
ATOM     14  C   UNL     1       1.373   9.964  18.327  0.00  0.00    +0.000 A 
ATOM     15  C   UNL     1       0.701  11.018  18.947  0.00  0.00    +0.000 A 
ATOM     16  C   UNL     1       0.299  10.912  20.291  0.00  0.00    +0.000 A 
ATOM     17  C   UNL     1       0.539   9.742  21.041  0.00  0.00    +0.000 A 
ATOM     18  C   UNL     1       2.263   7.572  18.662  0.00  0.00    +0.000 C 
ATOM     19  O   UNL     1       2.766   7.413  17.565  0.00  0.00    +0.000 OA
BRANCH  17  20
ATOM     20  C   UNL     1       0.122   9.693  22.489  0.00  0.00    +0.000 C 
ATOM     21  F   UNL     1       1.131   9.368  23.339  0.00  0.00    +0.000 F 
ATOM     22  F   UNL     1      -0.359  10.892  22.923  0.00  0.00    +0.000 F 
ATOM     23  F   UNL     1      -0.867   8.787  22.716  0.00  0.00    +0.000 F 
ENDBRANCH  17  20
ENDBRANCH   2  10
BRANCH   1  24
ATOM     24  C   UNL     1       4.916   5.852  19.445  0.00  0.00    +0.000 C 
BRANCH  24  29
ATOM     25  N   UNL     1       6.129   5.090  17.320  0.00  0.00    +0.000 N 
ATOM     26  C   UNL     1       7.347   4.527  17.068  0.00  0.00    +0.000 A 
ATOM     27  N   UNL     1       8.023   4.414  18.187  0.00  0.00    +0.000 NA
ATOM     28  N   UNL     1       7.229   4.898  19.194  0.00  0.00    +0.000 NA
ATOM     29  C   UNL     1       6.076   5.286  18.678  0.00  0.00    +0.000 A 
BRANCH  25  31
ATOM     30  C   UNL     1       5.453   4.718  14.981  0.00  0.00    +0.000 C 
ATOM     31  C   UNL     1       5.148   5.397  16.309  0.00  0.00    +0.000 C 
ENDBRANCH  25  31
ENDBRANCH  24  29
ENDBRANCH   1  24
TORSDOF 5
ENDMDL
MODEL 2
REMARK VINA RESULT:      -9.0      0.947      1.605
REMARK  Name = 
REMARK  6 active torsions:
REMARK  status: ('A' for Active; 'I' for Inactive)
REMARK    1  A    between atoms: C_1  and  C_2
REMARK    2  A    between atoms: C_2  and  N_3
REMARK    3  A    between atoms: C_7  and  C_8
REMARK    4  A    between atoms: C_8  and  C_9
REMARK    5  A    between atoms: C_10  and  N_11
REMARK    6  A    between atoms: C_18  and  C_19
REMARK                            x       y       z     vdW  Elec       q    Type
REMARK                         _______ _______ _______ _____ _____    ______ ____
ROOT
ATOM      1  C   UNL     1       3.745   4.557  19.429  0.00  0.00    +0.000 C 
ATOM      2  C   UNL     1       2.502   5.056  19.645  0.00  0.00    +0.000 C 
ATOM      3  N   UNL     1       1.409   4.262  19.948  0.00  0.00    +0.000 N 
ATOM      4  C   UNL     1       1.488   2.984  20.640  0.00  0.00    +0.000 C 
ATOM      5  C   UNL     1       1.797   1.861  19.670  0.00  0.00    +0.000 C 
ATOM      6  C   UNL     1       2.983   2.175  18.795  0.00  0.00    +0.000 C 
ATOM      7  O   UNL     1       3.120   1.614  17.703  0.00  0.00    +0.000 OA
ATOM      8  C   UNL     1       4.074   3.076  19.355  0.00  0.00    +0.000 C 
ATOM      9  H   UNL     1       0.601   4.822  20.209  0.00  0.00    +0.000 HD
ENDROOT
BRANCH   2  10
ATOM     10  N   UNL     1       2.326   6.426  19.655  0.00  0.00    +0.000 N 
ATOM     11  C   UNL     1       1.655   7.113  20.750  0.00  0.00    +0.000 C 
ATOM     12  C   UNL     1       1.394   8.482  20.191  0.00  0.00    +0.000 A 
ATOM     13  C   UNL     1       1.822   8.528  18.865  0.00  0.00    +0.000 A 
ATOM     14  C   UNL     1       1.650   9.643  18.060  0.00  0.00    +0.000 A 
ATOM     15  C   UNL     1       1.029  10.758  18.623  0.00  0.00    +0.000 A 
ATOM     16  C   UNL     1       0.626  10.742  19.970  0.00  0.00    +0.000 A 
ATOM     17  C   UNL     1       0.812   9.603  20.781  0.00  0.00    +0.000 A 
ATOM     18  C   UNL     1       2.428   7.233  18.520  0.00  0.00    +0.000 C 
ATOM     19  O   UNL     1       2.921   6.993  17.434  0.00  0.00    +0.000 OA
BRANCH  17  20
ATOM     20  C   UNL     1       0.396   9.650  22.229  0.00  0.00    +0.000 C 
ATOM     21  F   UNL     1      -0.596   8.774  22.542  0.00  0.00    +0.000 F 
ATOM     22  F   UNL     1       1.429   9.358  23.067  0.00  0.00    +0.000 F 
ATOM     23  F   UNL     1      -0.056  10.877  22.602  0.00  0.00    +0.000 F 
ENDBRANCH  17  20
ENDBRANCH   2  10
BRANCH   1  24
ATOM     24  C   UNL     1       4.992   5.434  19.334  0.00  0.00    +0.000 C 
BRANCH  24  29
ATOM     25  N   UNL     1       6.901   5.863  17.679  0.00  0.00    +0.000 N 
ATOM     26  C   UNL     1       7.148   5.488  16.390  0.00  0.00    +0.000 A 
ATOM     27  N   UNL     1       6.188   4.700  15.967  0.00  0.00    +0.000 NA
ATOM     28  N   UNL     1       5.288   4.566  16.992  0.00  0.00    +0.000 NA
ATOM     29  C   UNL     1       5.704   5.285  18.020  0.00  0.00    +0.000 A 
BRANCH  25  31
ATOM     30  C   UNL     1       7.953   8.083  17.866  0.00  0.00    +0.000 C 
ATOM     31  C   UNL     1       7.777   6.696  18.467  0.00  0.00    +0.000 C 
ENDBRANCH  25  31
ENDBRANCH  24  29
ENDBRANCH   1  24
TORSDOF 5
ENDMDL
MODEL 3
REMARK VINA RESULT:      -8.4      1.897      3.852
REMARK  Name = 
REMARK  6 active torsions:
REMARK  status: ('A' for Active; 'I' for Inactive)
REMARK    1  A    between atoms: C_1  and  C_2
REMARK    2  A    between atoms: C_2  and  N_3
REMARK    3  A    between atoms: C_7  and  C_8
REMARK    4  A    between atoms: C_8  and  C_9
REMARK    5  A    between atoms: C_10  and  N_11
REMARK    6  A    between atoms: C_18  and  C_19
REMARK                            x       y       z     vdW  Elec       q    Type
REMARK                         _______ _______ _______ _____ _____    ______ ____
ROOT
ATOM      1  C   UNL     1       2.845   5.844  18.876  0.00  0.00    +0.000 C 
ATOM      2  C   UNL     1       3.189   7.113  18.545  0.00  0.00    +0.000 C 
ATOM      3  N   UNL     1       4.244   7.416  17.700  0.00  0.00    +0.000 N 
ATOM      4  C   UNL     1       4.718   6.547  16.633  0.00  0.00    +0.000 C 
ATOM      5  C   UNL     1       5.690   5.514  17.168  0.00  0.00    +0.000 C 
ATOM      6  C   UNL     1       5.145   4.789  18.372  0.00  0.00    +0.000 C 
ATOM      7  O   UNL     1       5.912   4.252  19.178  0.00  0.00    +0.000 OA
ATOM      8  C   UNL     1       3.639   4.609  18.484  0.00  0.00    +0.000 C 
ATOM      9  H   UNL     1       4.261   8.405  17.463  0.00  0.00    +0.000 HD
ENDROOT
BRANCH   2  10
ATOM     10  N   UNL     1       2.403   8.157  18.992  0.00  0.00    +0.000 N 
ATOM     11  C   UNL     1       1.782   8.150  20.311  0.00  0.00    +0.000 C 
ATOM     12  C   UNL     1       0.785   9.269  20.228  0.00  0.00    +0.000 A 
ATOM     13  C   UNL     1       0.800   9.808  18.943  0.00  0.00    +0.000 A 
ATOM     14  C   UNL     1      -0.063  10.815  18.541  0.00  0.00    +0.000 A 
ATOM     15  C   UNL     1      -0.972  11.300  19.481  0.00  0.00    +0.000 A 
ATOM     16  C   UNL     1      -0.976  10.795  20.793  0.00  0.00    +0.000 A 
ATOM     17  C   UNL     1      -0.087   9.774  21.192  0.00  0.00    +0.000 A 
ATOM     18  C   UNL     1       1.835   9.119  18.156  0.00  0.00    +0.000 C 
ATOM     19  O   UNL     1       2.098   9.404  17.002  0.00  0.00    +0.000 OA
BRANCH  17  20
ATOM     20  C   UNL     1      -0.106   9.293  22.620  0.00  0.00    +0.000 C 
ATOM     21  F   UNL     1      -0.846  10.074  23.451  0.00  0.00    +0.000 F 
ATOM     22  F   UNL     1      -0.626   8.038  22.729  0.00  0.00    +0.000 F 
ATOM     23  F   UNL     1       1.137   9.234  23.167  0.00  0.00    +0.000 F 
ENDBRANCH  17  20
ENDBRANCH   2  10
BRANCH   1  24
ATOM     24  C   UNL     1       1.549   5.493  19.605  0.00  0.00    +0.000 C 
BRANCH  24  29
ATOM     25  N   UNL     1       1.276   3.062  20.367  0.00  0.00    +0.000 N 
ATOM     26  C   UNL     1       1.610   2.373  21.498  0.00  0.00    +0.000 A 
ATOM     27  N   UNL     1       2.248   3.166  22.326  0.00  0.00    +0.000 NA
ATOM     28  N   UNL     1       2.322   4.401  21.735  0.00  0.00    +0.000 NA
ATOM     29  C   UNL     1       1.717   4.347  20.561  0.00  0.00    +0.000 A 
BRANCH  25  31
ATOM     30  C   UNL     1       1.574   1.900  18.215  0.00  0.00    +0.000 C 
ATOM     31  C   UNL     1       0.602   2.484  19.231  0.00  0.00    +0.000 C 
ENDBRANCH  25  31
ENDBRANCH  24  29
ENDBRANCH   1  24
TORSDOF 5
ENDMDL
MODEL 4
REMARK VINA RESULT:      -8.3      1.178      1.451
REMARK  Name = 
REMARK  6 active torsions:
REMARK  status: ('A' for Active; 'I' for Inactive)
REMARK    1  A    between atoms: C_1  and  C_2
REMARK    2  A    between atoms: C_2  and  N_3
REMARK    3  A    between atoms: C_7  and  C_8
REMARK    4  A    between atoms: C_8  and  C_9
REMARK    5  A    between atoms: C_10  and  N_11
REMARK    6  A    between atoms: C_18  and  C_19
REMARK                            x       y       z     vdW  Elec       q    Type
REMARK                         _______ _______ _______ _____ _____    ______ ____
ROOT
ATOM      1  C   UNL     1       3.520   5.094  18.593  0.00  0.00    +0.000 C 
ATOM      2  C   UNL     1       2.445   5.481  19.323  0.00  0.00    +0.000 C 
ATOM      3  N   UNL     1       1.619   4.591  19.989  0.00  0.00    +0.000 N 
ATOM      4  C   UNL     1       2.051   3.300  20.506  0.00  0.00    +0.000 C 
ATOM      5  C   UNL     1       2.006   2.241  19.423  0.00  0.00    +0.000 C 
ATOM      6  C   UNL     1       2.712   2.680  18.167  0.00  0.00    +0.000 C 
ATOM      7  O   UNL     1       2.427   2.171  17.078  0.00  0.00    +0.000 OA
ATOM      8  C   UNL     1       3.880   3.647  18.297  0.00  0.00    +0.000 C 
ATOM      9  H   UNL     1       0.955   5.073  20.589  0.00  0.00    +0.000 HD
ENDROOT
BRANCH   2  10
ATOM     10  N   UNL     1       2.205   6.831  19.493  0.00  0.00    +0.000 N 
ATOM     11  C   UNL     1       1.560   7.360  20.687  0.00  0.00    +0.000 C 
ATOM     12  C   UNL     1       1.207   8.765  20.295  0.00  0.00    +0.000 A 
ATOM     13  C   UNL     1       1.563   8.977  18.964  0.00  0.00    +0.000 A 
ATOM     14  C   UNL     1       1.298  10.162  18.296  0.00  0.00    +0.000 A 
ATOM     15  C   UNL     1       0.655  11.176  19.007  0.00  0.00    +0.000 A 
ATOM     16  C   UNL     1       0.323  10.993  20.361  0.00  0.00    +0.000 A 
ATOM     17  C   UNL     1       0.604   9.784  21.032  0.00  0.00    +0.000 A 
ATOM     18  C   UNL     1       2.211   7.760  18.451  0.00  0.00    +0.000 C 
ATOM     19  O   UNL     1       2.658   7.665  17.323  0.00  0.00    +0.000 OA
BRANCH  17  20
ATOM     20  C   UNL     1       0.261   9.653  22.494  0.00  0.00    +0.000 C 
ATOM     21  F   UNL     1       1.319   9.314  23.276  0.00  0.00    +0.000 F 
ATOM     22  F   UNL     1      -0.227  10.815  23.011  0.00  0.00    +0.000 F 
ATOM     23  F   UNL     1      -0.692   8.710  22.722  0.00  0.00    +0.000 F 
ENDBRANCH  17  20
ENDBRANCH   2  10
BRANCH   1  24
ATOM     24  C   UNL     1       4.565   6.072  18.061  0.00  0.00    +0.000 C 
BRANCH  24  29
ATOM     25  N   UNL     1       7.083   6.478  18.312  0.00  0.00    +0.000 N 
ATOM     26  C   UNL     1       8.044   6.011  19.163  0.00  0.00    +0.000 A 
ATOM     27  N   UNL     1       7.499   5.218  20.055  0.00  0.00    +0.000 NA
ATOM     28  N   UNL     1       6.158   5.152  19.777  0.00  0.00    +0.000 NA
ATOM     29  C   UNL     1       5.907   5.894  18.712  0.00  0.00    +0.000 A 
BRANCH  25  31
ATOM     30  C   UNL     1       7.982   8.693  17.718  0.00  0.00    +0.000 C 
ATOM     31  C   UNL     1       7.329   7.406  17.236  0.00  0.00    +0.000 C 
ENDBRANCH  25  31
ENDBRANCH  24  29
ENDBRANCH   1  24
TORSDOF 5
ENDMDL
MODEL 5
REMARK VINA RESULT:      -7.7      1.871      4.090
REMARK  Name = 
REMARK  6 active torsions:
REMARK  status: ('A' for Active; 'I' for Inactive)
REMARK    1  A    between atoms: C_1  and  C_2
REMARK    2  A    between atoms: C_2  and  N_3
REMARK    3  A    between atoms: C_7  and  C_8
REMARK    4  A    between atoms: C_8  and  C_9
REMARK    5  A    between atoms: C_10  and  N_11
REMARK    6  A    between atoms: C_18  and  C_19
REMARK                            x       y       z     vdW  Elec       q    Type
REMARK                         _______ _______ _______ _____ _____    ______ ____
ROOT
ATOM      1  C   UNL     1       2.971   5.730  18.916  0.00  0.00    +0.000 C 
ATOM      2  C   UNL     1       3.293   6.998  18.558  0.00  0.00    +0.000 C 
ATOM      3  N   UNL     1       4.359   7.304  17.728  0.00  0.00    +0.000 N 
ATOM      4  C   UNL     1       4.877   6.418  16.696  0.00  0.00    +0.000 C 
ATOM      5  C   UNL     1       5.860   5.423  17.279  0.00  0.00    +0.000 C 
ATOM      6  C   UNL     1       5.306   4.717  18.490  0.00  0.00    +0.000 C 
ATOM      7  O   UNL     1       6.067   4.220  19.326  0.00  0.00    +0.000 OA
ATOM      8  C   UNL     1       3.801   4.504  18.575  0.00  0.00    +0.000 C 
ATOM      9  H   UNL     1       4.358   8.286  17.465  0.00  0.00    +0.000 HD
ENDROOT
BRANCH   2  10
ATOM     10  N   UNL     1       2.473   8.034  18.961  0.00  0.00    +0.000 N 
ATOM     11  C   UNL     1       1.862   8.070  20.283  0.00  0.00    +0.000 C 
ATOM     12  C   UNL     1       0.826   9.148  20.155  0.00  0.00    +0.000 A 
ATOM     13  C   UNL     1       0.812   9.623  18.844  0.00  0.00    +0.000 A 
ATOM     14  C   UNL     1      -0.090  10.577  18.401  0.00  0.00    +0.000 A 
ATOM     15  C   UNL     1      -1.009  11.077  19.324  0.00  0.00    +0.000 A 
ATOM     16  C   UNL     1      -0.985  10.637  20.659  0.00  0.00    +0.000 A 
ATOM     17  C   UNL     1      -0.057   9.670  21.100  0.00  0.00    +0.000 A 
ATOM     18  C   UNL     1       1.865   8.932  18.083  0.00  0.00    +0.000 C 
ATOM     19  O   UNL     1       2.110   9.169  16.915  0.00  0.00    +0.000 OA
BRANCH  17  20
ATOM     20  C   UNL     1      -0.049   9.259  22.550  0.00  0.00    +0.000 C 
ATOM     21  F   UNL     1      -0.791  10.068  23.352  0.00  0.00    +0.000 F 
ATOM     22  F   UNL     1      -0.545   8.003  22.728  0.00  0.00    +0.000 F 
ATOM     23  F   UNL     1       1.202   9.248  23.082  0.00  0.00    +0.000 F 
ENDBRANCH  17  20
ENDBRANCH   2  10
BRANCH   1  24
ATOM     24  C   UNL     1       1.668   5.368  19.626  0.00  0.00    +0.000 C 
BRANCH  24  29
ATOM     25  N   UNL     1       1.172   2.904  20.125  0.00  0.00    +0.000 N 
ATOM     26  C   UNL     1       0.693   1.859  19.387  0.00  0.00    +0.000 A 
ATOM     27  N   UNL     1       0.396   2.271  18.178  0.00  0.00    +0.000 NA
ATOM     28  N   UNL     1       0.698   3.607  18.115  0.00  0.00    +0.000 NA
ATOM     29  C   UNL     1       1.187   3.987  19.283  0.00  0.00    +0.000 A 
BRANCH  25  31
ATOM     30  C   UNL     1       3.006   2.380  21.684  0.00  0.00    +0.000 C 
ATOM     31  C   UNL     1       1.557   2.813  21.512  0.00  0.00    +0.000 C 
ENDBRANCH  25  31
ENDBRANCH  24  29
ENDBRANCH   1  24
TORSDOF 5
ENDMDL
MODEL 6
REMARK VINA RESULT:      -7.5      5.581      8.779
REMARK  Name = 
REMARK  6 active torsions:
REMARK  status: ('A' for Active; 'I' for Inactive)
REMARK    1  A    between atoms: C_1  and  C_2
REMARK    2  A    between atoms: C_2  and  N_3
REMARK    3  A    between atoms: C_7  and  C_8
REMARK    4  A    between atoms: C_8  and  C_9
REMARK    5  A    between atoms: C_10  and  N_11
REMARK    6  A    between atoms: C_18  and  C_19
REMARK                            x       y       z     vdW  Elec       q    Type
REMARK                         _______ _______ _______ _____ _____    ______ ____
ROOT
ATOM      1  C   UNL     1       0.930  12.769  19.934  0.00  0.00    +0.000 C 
ATOM      2  C   UNL     1      -0.222  13.451  19.715  0.00  0.00    +0.000 C 
ATOM      3  N   UNL     1      -0.289  14.833  19.679  0.00  0.00    +0.000 N 
ATOM      4  C   UNL     1       0.810  15.699  19.275  0.00  0.00    +0.000 C 
ATOM      5  C   UNL     1       1.747  15.962  20.437  0.00  0.00    +0.000 C 
ATOM      6  C   UNL     1       2.171  14.691  21.126  0.00  0.00    +0.000 C 
ATOM      7  O   UNL     1       2.558  14.715  22.300  0.00  0.00    +0.000 OA
ATOM      8  C   UNL     1       2.255  13.416  20.300  0.00  0.00    +0.000 C 
ATOM      9  H   UNL     1      -1.202  15.156  19.368  0.00  0.00    +0.000 HD
ENDROOT
BRANCH   2  10
ATOM     10  N   UNL     1      -1.371  12.743  19.424  0.00  0.00    +0.000 N 
ATOM     11  C   UNL     1      -1.576  12.092  18.137  0.00  0.00    +0.000 C 
ATOM     12  C   UNL     1      -3.039  11.760  18.146  0.00  0.00    +0.000 A 
ATOM     13  C   UNL     1      -3.617  12.253  19.315  0.00  0.00    +0.000 A 
ATOM     14  C   UNL     1      -4.975  12.160  19.578  0.00  0.00    +0.000 A 
ATOM     15  C   UNL     1      -5.778  11.537  18.623  0.00  0.00    +0.000 A 
ATOM     16  C   UNL     1      -5.206  11.000  17.455  0.00  0.00    +0.000 A 
ATOM     17  C   UNL     1      -3.821  11.095  17.202  0.00  0.00    +0.000 A 
ATOM     18  C   UNL     1      -2.563  12.864  20.139  0.00  0.00    +0.000 C 
ATOM     19  O   UNL     1      -2.770  13.349  21.236  0.00  0.00    +0.000 OA
BRANCH  17  20
ATOM     20  C   UNL     1      -3.253  10.471  15.953  0.00  0.00    +0.000 C 
ATOM     21  F   UNL     1      -2.416   9.427  16.194  0.00  0.00    +0.000 F 
ATOM     22  F   UNL     1      -4.228   9.985  15.136  0.00  0.00    +0.000 F 
ATOM     23  F   UNL     1      -2.543  11.357  15.205  0.00  0.00    +0.000 F 
ENDBRANCH  17  20
ENDBRANCH   2  10
BRANCH   1  24
ATOM     24  C   UNL     1       1.057  11.259  19.738  0.00  0.00    +0.000 C 
BRANCH  24  29
ATOM     25  N   UNL     1       1.085   9.154  21.199  0.00  0.00    +0.000 N 
ATOM     26  C   UNL     1       0.711   8.879  22.483  0.00  0.00    +0.000 A 
ATOM     27  N   UNL     1       0.294   9.977  23.067  0.00  0.00    +0.000 NA
ATOM     28  N   UNL     1       0.383  10.989  22.146  0.00  0.00    +0.000 NA
ATOM     29  C   UNL     1       0.839  10.491  21.010  0.00  0.00    +0.000 A 
BRANCH  25  31
ATOM     30  C   UNL     1       1.553   6.763  20.829  0.00  0.00    +0.000 C 
ATOM     31  C   UNL     1       1.631   8.182  20.283  0.00  0.00    +0.000 C 
ENDBRANCH  25  31
ENDBRANCH  24  29
ENDBRANCH   1  24
TORSDOF 5
ENDMDL
MODEL 7
REMARK VINA RESULT:      -7.4      2.576      4.385
REMARK  Name = 
REMARK  6 active torsions:
REMARK  status: ('A' for Active; 'I' for Inactive)
REMARK    1  A    between atoms: C_1  and  C_2
REMARK    2  A    between atoms: C_2  and  N_3
REMARK    3  A    between atoms: C_7  and  C_8
REMARK    4  A    between atoms: C_8  and  C_9
REMARK    5  A    between atoms: C_10  and  N_11
REMARK    6  A    between atoms: C_18  and  C_19
REMARK                            x       y       z     vdW  Elec       q    Type
REMARK                         _______ _______ _______ _____ _____    ______ ____
ROOT
ATOM      1  C   UNL     1       2.842   5.597  17.808  0.00  0.00    +0.000 C 
ATOM      2  C   UNL     1       3.114   6.855  18.234  0.00  0.00    +0.000 C 
ATOM      3  N   UNL     1       4.277   7.532  17.905  0.00  0.00    +0.000 N 
ATOM      4  C   UNL     1       5.035   7.316  16.681  0.00  0.00    +0.000 C 
ATOM      5  C   UNL     1       5.983   6.143  16.831  0.00  0.00    +0.000 C 
ATOM      6  C   UNL     1       5.291   4.915  17.363  0.00  0.00    +0.000 C 
ATOM      7  O   UNL     1       5.936   4.035  17.942  0.00  0.00    +0.000 OA
ATOM      8  C   UNL     1       3.817   4.721  17.039  0.00  0.00    +0.000 C 
ATOM      9  H   UNL     1       4.240   8.504  18.200  0.00  0.00    +0.000 HD
ENDROOT
BRANCH   2  10
ATOM     10  N   UNL     1       2.155   7.538  18.956  0.00  0.00    +0.000 N 
ATOM     11  C   UNL     1       1.487   8.722  18.432  0.00  0.00    +0.000 C 
ATOM     12  C   UNL     1       0.815   9.303  19.642  0.00  0.00    +0.000 A 
ATOM     13  C   UNL     1       1.143   8.541  20.763  0.00  0.00    +0.000 A 
ATOM     14  C   UNL     1       0.725   8.872  22.042  0.00  0.00    +0.000 A 
ATOM     15  C   UNL     1      -0.063  10.013  22.191  0.00  0.00    +0.000 A 
ATOM     16  C   UNL     1      -0.435  10.772  21.067  0.00  0.00    +0.000 A 
ATOM     17  C   UNL     1      -0.009  10.421  19.768  0.00  0.00    +0.000 A 
ATOM     18  C   UNL     1       1.980   7.410  20.334  0.00  0.00    +0.000 C 
ATOM     19  O   UNL     1       2.390   6.556  21.098  0.00  0.00    +0.000 OA
BRANCH  17  20
ATOM     20  C   UNL     1      -0.465  11.246  18.592  0.00  0.00    +0.000 C 
ATOM     21  F   UNL     1      -0.897  10.504  17.538  0.00  0.00    +0.000 F 
ATOM     22  F   UNL     1      -1.501  12.069  18.917  0.00  0.00    +0.000 F 
ATOM     23  F   UNL     1       0.518  12.051  18.108  0.00  0.00    +0.000 F 
ENDBRANCH  17  20
ENDBRANCH   2  10
BRANCH   1  24
ATOM     24  C   UNL     1       1.471   4.941  17.963  0.00  0.00    +0.000 C 
BRANCH  24  29
ATOM     25  N   UNL     1       1.904   2.651  19.029  0.00  0.00    +0.000 N 
ATOM     26  C   UNL     1       1.632   2.100  20.249  0.00  0.00    +0.000 A 
ATOM     27  N   UNL     1       1.063   2.995  21.021  0.00  0.00    +0.000 NA
ATOM     28  N   UNL     1       0.947   4.150  20.292  0.00  0.00    +0.000 NA
ATOM     29  C   UNL     1       1.434   3.939  19.081  0.00  0.00    +0.000 A 
BRANCH  25  31
ATOM     30  C   UNL     1       3.830   1.246  18.411  0.00  0.00    +0.000 C 
ATOM     31  C   UNL     1       2.566   1.958  17.951  0.00  0.00    +0.000 C 
ENDBRANCH  25  31
ENDBRANCH  24  29
ENDBRANCH   1  24
TORSDOF 5
ENDMDL
MODEL 8
REMARK VINA RESULT:      -7.4      4.158      8.198
REMARK  Name = 
REMARK  6 active torsions:
REMARK  status: ('A' for Active; 'I' for Inactive)
REMARK    1  A    between atoms: C_1  and  C_2
REMARK    2  A    between atoms: C_2  and  N_3
REMARK    3  A    between atoms: C_7  and  C_8
REMARK    4  A    between atoms: C_8  and  C_9
REMARK    5  A    between atoms: C_10  and  N_11
REMARK    6  A    between atoms: C_18  and  C_19
REMARK                            x       y       z     vdW  Elec       q    Type
REMARK                         _______ _______ _______ _____ _____    ______ ____
ROOT
ATOM      1  C   UNL     1      -0.641  10.651  19.147  0.00  0.00    +0.000 C 
ATOM      2  C   UNL     1       0.425  10.137  19.808  0.00  0.00    +0.000 C 
ATOM      3  N   UNL     1       0.848  10.603  21.042  0.00  0.00    +0.000 N 
ATOM      4  C   UNL     1      -0.027  11.208  22.036  0.00  0.00    +0.000 C 
ATOM      5  C   UNL     1      -0.223  12.684  21.757  0.00  0.00    +0.000 C 
ATOM      6  C   UNL     1      -0.623  12.946  20.328  0.00  0.00    +0.000 C 
ATOM      7  O   UNL     1      -0.414  14.048  19.812  0.00  0.00    +0.000 OA
ATOM      8  C   UNL     1      -1.420  11.876  19.595  0.00  0.00    +0.000 C 
ATOM      9  H   UNL     1       1.571  10.007  21.439  0.00  0.00    +0.000 HD
ENDROOT
BRANCH   2  10
ATOM     10  N   UNL     1       1.073   9.039  19.279  0.00  0.00    +0.000 N 
ATOM     11  C   UNL     1       1.159   7.771  19.992  0.00  0.00    +0.000 C 
ATOM     12  C   UNL     1       2.203   7.013  19.225  0.00  0.00    +0.000 A 
ATOM     13  C   UNL     1       2.710   7.824  18.210  0.00  0.00    +0.000 A 
ATOM     14  C   UNL     1       3.740   7.424  17.374  0.00  0.00    +0.000 A 
ATOM     15  C   UNL     1       4.273   6.149  17.568  0.00  0.00    +0.000 A 
ATOM     16  C   UNL     1       3.749   5.304  18.563  0.00  0.00    +0.000 A 
ATOM     17  C   UNL     1       2.695   5.720  19.403  0.00  0.00    +0.000 A 
ATOM     18  C   UNL     1       1.987   9.105  18.226  0.00  0.00    +0.000 C 
ATOM     19  O   UNL     1       2.194  10.000  17.428  0.00  0.00    +0.000 OA
BRANCH  17  20
ATOM     20  C   UNL     1       2.145   4.763  20.429  0.00  0.00    +0.000 C 
ATOM     21  F   UNL     1       2.399   5.132  21.713  0.00  0.00    +0.000 F 
ATOM     22  F   UNL     1       0.791   4.640  20.338  0.00  0.00    +0.000 F 
ATOM     23  F   UNL     1       2.647   3.507  20.292  0.00  0.00    +0.000 F 
ENDBRANCH  17  20
ENDBRANCH   2  10
BRANCH   1  24
ATOM     24  C   UNL     1      -1.256   9.993  17.913  0.00  0.00    +0.000 C 
BRANCH  24  29
ATOM     25  N   UNL     1      -3.215  10.650  16.398  0.00  0.00    +0.000 N 
ATOM     26  C   UNL     1      -4.474  11.130  16.621  0.00  0.00    +0.000 A 
ATOM     27  N   UNL     1      -4.694  11.213  17.912  0.00  0.00    +0.000 NA
ATOM     28  N   UNL     1      -3.554  10.794  18.548  0.00  0.00    +0.000 NA
ATOM     29  C   UNL     1      -2.651  10.474  17.637  0.00  0.00    +0.000 A 
BRANCH  25  31
ATOM     30  C   UNL     1      -3.725  10.004  14.076  0.00  0.00    +0.000 C 
ATOM     31  C   UNL     1      -2.660  10.395  15.091  0.00  0.00    +0.000 C 
ENDBRANCH  25  31
ENDBRANCH  24  29
ENDBRANCH   1  24
TORSDOF 5
ENDMDL
MODEL 9
REMARK VINA RESULT:      -7.4      1.284      1.834
REMARK  Name = 
REMARK  6 active torsions:
REMARK  status: ('A' for Active; 'I' for Inactive)
REMARK    1  A    between atoms: C_1  and  C_2
REMARK    2  A    between atoms: C_2  and  N_3
REMARK    3  A    between atoms: C_7  and  C_8
REMARK    4  A    between atoms: C_8  and  C_9
REMARK    5  A    between atoms: C_10  and  N_11
REMARK    6  A    between atoms: C_18  and  C_19
REMARK                            x       y       z     vdW  Elec       q    Type
REMARK                         _______ _______ _______ _____ _____    ______ ____
ROOT
ATOM      1  C   UNL     1       3.428   5.916  18.314  0.00  0.00    +0.000 C 
ATOM      2  C   UNL     1       2.386   6.141  19.151  0.00  0.00    +0.000 C 
ATOM      3  N   UNL     1       1.714   5.128  19.815  0.00  0.00    +0.000 N 
ATOM      4  C   UNL     1       2.314   3.860  20.203  0.00  0.00    +0.000 C 
ATOM      5  C   UNL     1       2.283   2.873  19.055  0.00  0.00    +0.000 C 
ATOM      6  C   UNL     1       2.833   3.462  17.781  0.00  0.00    +0.000 C 
ATOM      7  O   UNL     1       2.508   2.995  16.685  0.00  0.00    +0.000 OA
ATOM      8  C   UNL     1       3.905   4.537  17.888  0.00  0.00    +0.000 C 
ATOM      9  H   UNL     1       1.058   5.500  20.498  0.00  0.00    +0.000 HD
ENDROOT
BRANCH   2  10
ATOM     10  N   UNL     1       2.027   7.444  19.435  0.00  0.00    +0.000 N 
ATOM     11  C   UNL     1       1.399   7.820  20.694  0.00  0.00    +0.000 C 
ATOM     12  C   UNL     1       0.893   9.208  20.428  0.00  0.00    +0.000 A 
ATOM     13  C   UNL     1       1.156   9.549  19.102  0.00  0.00    +0.000 A 
ATOM     14  C   UNL     1       0.745  10.747  18.540  0.00  0.00    +0.000 A 
ATOM     15  C   UNL     1       0.046  11.638  19.355  0.00  0.00    +0.000 A 
ATOM     16  C   UNL     1      -0.195  11.326  20.705  0.00  0.00    +0.000 A 
ATOM     17  C   UNL     1       0.235  10.106  21.267  0.00  0.00    +0.000 A 
ATOM     18  C   UNL     1       1.890   8.442  18.468  0.00  0.00    +0.000 C 
ATOM     19  O   UNL     1       2.284   8.474  17.317  0.00  0.00    +0.000 OA
BRANCH  17  20
ATOM     20  C   UNL     1      -0.016   9.836  22.729  0.00  0.00    +0.000 C 
ATOM     21  F   UNL     1       1.108   9.532  23.431  0.00  0.00    +0.000 F 
ATOM     22  F   UNL     1      -0.568  10.910  23.359  0.00  0.00    +0.000 F 
ATOM     23  F   UNL     1      -0.875   8.801  22.927  0.00  0.00    +0.000 F 
ENDBRANCH  17  20
ENDBRANCH   2  10
BRANCH   1  24
ATOM     24  C   UNL     1       4.321   7.030  17.772  0.00  0.00    +0.000 C 
BRANCH  24  29
ATOM     25  N   UNL     1       6.672   6.235  17.131  0.00  0.00    +0.000 N 
ATOM     26  C   UNL     1       7.260   5.842  15.963  0.00  0.00    +0.000 A 
ATOM     27  N   UNL     1       6.373   5.848  14.996  0.00  0.00    +0.000 NA
ATOM     28  N   UNL     1       5.184   6.267  15.536  0.00  0.00    +0.000 NA
ATOM     29  C   UNL     1       5.366   6.522  16.820  0.00  0.00    +0.000 A 
BRANCH  25  31
ATOM     30  C   UNL     1       7.986   4.975  18.790  0.00  0.00    +0.000 C 
ATOM     31  C   UNL     1       7.349   6.302  18.402  0.00  0.00    +0.000 C 
ENDBRANCH  25  31
ENDBRANCH  24  29
ENDBRANCH   1  24
TORSDOF 5
ENDMDL
