MODEL 1
REMARK VINA RESULT:      -9.1      0.000      0.000
REMARK  Name = 
REMARK  4 active torsions:
REMARK  status: ('A' for Active; 'I' for Inactive)
REMARK    1  A    between atoms: C_1  and  C_2
REMARK    2  A    between atoms: N_10  and  C_11
REMARK    3  A    between atoms: C_14  and  C_15
REMARK    4  A    between atoms: C_15  and  C_16
REMARK                            x       y       z     vdW  Elec       q    Type
REMARK                         _______ _______ _______ _____ _____    ______ ____
ROOT
ATOM      1  C   UNL     1       3.074   7.127  18.253  0.00  0.00    +0.000 A 
ATOM      2  C   UNL     1       2.562   8.384  17.920  0.00  0.00    +0.000 A 
ATOM      3  C   UNL     1       1.649   9.043  18.754  0.00  0.00    +0.000 A 
ATOM      4  C   UNL     1       1.239   8.471  19.961  0.00  0.00    +0.000 A 
ATOM      5  C   UNL     1       1.736   7.207  20.301  0.00  0.00    +0.000 A 
ATOM      6  C   UNL     1       2.646   6.549  19.454  0.00  0.00    +0.000 A 
ENDROOT
BRANCH   1  16
ATOM      7  C   UNL     1       5.318   5.324  14.491  0.00  0.00    +0.000 C 
ATOM      8  C   UNL     1       6.272   5.010  15.579  0.00  0.00    +0.000 A 
ATOM      9  N   UNL     1       7.403   4.352  15.293  0.00  0.00    +0.000 NA
ATOM     10  O   UNL     1       8.076   4.227  16.496  0.00  0.00    +0.000 OA
ATOM     11  C   UNL     1       7.345   4.807  17.489  0.00  0.00    +0.000 A 
ATOM     12  N   UNL     1       7.749   4.836  18.768  0.00  0.00    +0.000 NA
ATOM     13  C   UNL     1       6.860   5.465  19.538  0.00  0.00    +0.000 A 
ATOM     14  N   UNL     1       5.688   6.005  19.162  0.00  0.00    +0.000 NA
ATOM     15  C   UNL     1       5.300   5.953  17.856  0.00  0.00    +0.000 A 
ATOM     16  N   UNL     1       4.051   6.467  17.476  0.00  0.00    +0.000 N 
ATOM     17  C   UNL     1       6.180   5.321  16.959  0.00  0.00    +0.000 A 
ATOM     18  H   UNL     1       3.756   6.252  16.537  0.00  0.00    +0.000 HD
ENDBRANCH   1  16
BRANCH   4  19
ATOM     19  C   UNL     1       0.218   9.172  20.842  0.00  0.00    +0.000 C 
BRANCH  19  20
ATOM     20  C   UNL     1       0.276  10.686  20.701  0.00  0.00    +0.000 C 
ATOM     21  O   UNL     1       0.723  11.401  21.606  0.00  0.00    +0.000 OA
ATOM     22  N   UNL     1      -0.189  11.247  19.503  0.00  0.00    +0.000 N 
ATOM     23  C   UNL     1      -0.181  12.729  19.468  0.00  0.00    +0.000 C 
ATOM     24  C   UNL     1      -1.599  13.121  19.889  0.00  0.00    +0.000 C 
ATOM     25  C   UNL     1      -2.325  12.035  19.152  0.00  0.00    +0.000 A 
ATOM     26  C   UNL     1      -3.593  12.064  18.606  0.00  0.00    +0.000 A 
ATOM     27  C   UNL     1      -3.992  10.968  17.842  0.00  0.00    +0.000 A 
ATOM     28  C   UNL     1      -3.140   9.856  17.677  0.00  0.00    +0.000 A 
ATOM     29  C   UNL     1      -1.872   9.815  18.274  0.00  0.00    +0.000 A 
ATOM     30  C   UNL     1      -1.481  10.920  19.005  0.00  0.00    +0.000 A 
ENDBRANCH  19  20
ENDBRANCH   4  19
TORSDOF 3
ENDMDL
MODEL 2
REMARK VINA RESULT:      -9.0      2.973      4.167
REMARK  Name = 
REMARK  4 active torsions:
REMARK  status: ('A' for Active; 'I' for Inactive)
REMARK    1  A    between atoms: C_1  and  C_2
REMARK    2  A    between atoms: N_10  and  C_11
REMARK    3  A    between atoms: C_14  and  C_15
REMARK    4  A    between atoms: C_15  and  C_16
REMARK                            x       y       z     vdW  Elec       q    Type
REMARK                         _______ _______ _______ _____ _____    ______ ____
ROOT
ATOM      1  C   UNL     1       1.864   7.837  19.937  0.00  0.00    +0.000 A 
ATOM      2  C   UNL     1       1.099   8.057  21.086  0.00  0.00    +0.000 A 
ATOM      3  C   UNL     1       0.189   9.120  21.163  0.00  0.00    +0.000 A 
ATOM      4  C   UNL     1       0.001   9.981  20.079  0.00  0.00    +0.000 A 
ATOM      5  C   UNL     1       0.767   9.778  18.926  0.00  0.00    +0.000 A 
ATOM      6  C   UNL     1       1.685   8.714  18.861  0.00  0.00    +0.000 A 
ENDROOT
BRANCH   1  16
ATOM      7  C   UNL     1       5.812   5.332  19.179  0.00  0.00    +0.000 C 
ATOM      8  C   UNL     1       4.842   4.260  19.496  0.00  0.00    +0.000 A 
ATOM      9  N   UNL     1       5.245   2.983  19.478  0.00  0.00    +0.000 NA
ATOM     10  O   UNL     1       4.131   2.237  19.825  0.00  0.00    +0.000 OA
ATOM     11  C   UNL     1       3.075   3.069  20.044  0.00  0.00    +0.000 A 
ATOM     12  N   UNL     1       1.858   2.625  20.393  0.00  0.00    +0.000 NA
ATOM     13  C   UNL     1       1.005   3.638  20.553  0.00  0.00    +0.000 A 
ATOM     14  N   UNL     1       1.250   4.948  20.387  0.00  0.00    +0.000 NA
ATOM     15  C   UNL     1       2.495   5.370  20.023  0.00  0.00    +0.000 A 
ATOM     16  N   UNL     1       2.733   6.734  19.795  0.00  0.00    +0.000 N 
ATOM     17  C   UNL     1       3.473   4.374  19.844  0.00  0.00    +0.000 A 
ATOM     18  H   UNL     1       3.621   6.958  19.373  0.00  0.00    +0.000 HD
ENDBRANCH   1  16
BRANCH   4  19
ATOM     19  C   UNL     1      -0.958  11.156  20.184  0.00  0.00    +0.000 C 
BRANCH  19  20
ATOM     20  C   UNL     1      -0.406  12.278  21.051  0.00  0.00    +0.000 C 
ATOM     21  O   UNL     1       0.756  12.254  21.472  0.00  0.00    +0.000 OA
ATOM     22  N   UNL     1      -1.260  13.349  21.351  0.00  0.00    +0.000 N 
ATOM     23  C   UNL     1      -0.685  14.363  22.267  0.00  0.00    +0.000 C 
ATOM     24  C   UNL     1      -1.173  13.935  23.652  0.00  0.00    +0.000 C 
ATOM     25  C   UNL     1      -2.556  13.517  23.248  0.00  0.00    +0.000 A 
ATOM     26  C   UNL     1      -3.719  13.557  23.991  0.00  0.00    +0.000 A 
ATOM     27  C   UNL     1      -4.912  13.243  23.339  0.00  0.00    +0.000 A 
ATOM     28  C   UNL     1      -4.912  12.856  21.983  0.00  0.00    +0.000 A 
ATOM     29  C   UNL     1      -3.720  12.772  21.250  0.00  0.00    +0.000 A 
ATOM     30  C   UNL     1      -2.550  13.112  21.901  0.00  0.00    +0.000 A 
ENDBRANCH  19  20
ENDBRANCH   4  19
TORSDOF 3
ENDMDL
MODEL 3
REMARK VINA RESULT:      -8.8      2.782      3.852
REMARK  Name = 
REMARK  4 active torsions:
REMARK  status: ('A' for Active; 'I' for Inactive)
REMARK    1  A    between atoms: C_1  and  C_2
REMARK    2  A    between atoms: N_10  and  C_11
REMARK    3  A    between atoms: C_14  and  C_15
REMARK    4  A    between atoms: C_15  and  C_16
REMARK                            x       y       z     vdW  Elec       q    Type
REMARK                         _______ _______ _______ _____ _____    ______ ____
ROOT
ATOM      1  C   UNL     1       2.033   7.766  19.389  0.00  0.00    +0.000 A 
ATOM      2  C   UNL     1       1.870   8.569  18.257  0.00  0.00    +0.000 A 
ATOM      3  C   UNL     1       1.104   9.742  18.299  0.00  0.00    +0.000 A 
ATOM      4  C   UNL     1       0.497  10.158  19.486  0.00  0.00    +0.000 A 
ATOM      5  C   UNL     1       0.643   9.358  20.625  0.00  0.00    +0.000 A 
ATOM      6  C   UNL     1       1.406   8.178  20.572  0.00  0.00    +0.000 A 
ENDROOT
BRANCH   1  16
ATOM      7  C   UNL     1       5.884   5.033  19.036  0.00  0.00    +0.000 C 
ATOM      8  C   UNL     1       4.865   4.048  19.461  0.00  0.00    +0.000 A 
ATOM      9  N   UNL     1       5.214   2.763  19.612  0.00  0.00    +0.000 NA
ATOM     10  O   UNL     1       4.064   2.111  20.024  0.00  0.00    +0.000 OA
ATOM     11  C   UNL     1       3.041   3.005  20.115  0.00  0.00    +0.000 A 
ATOM     12  N   UNL     1       1.801   2.657  20.489  0.00  0.00    +0.000 NA
ATOM     13  C   UNL     1       0.988   3.715  20.504  0.00  0.00    +0.000 A 
ATOM     14  N   UNL     1       1.291   4.983  20.181  0.00  0.00    +0.000 NA
ATOM     15  C   UNL     1       2.558   5.306  19.795  0.00  0.00    +0.000 A 
ATOM     16  N   UNL     1       2.857   6.621  19.405  0.00  0.00    +0.000 N 
ATOM     17  C   UNL     1       3.496   4.259  19.763  0.00  0.00    +0.000 A 
ATOM     18  H   UNL     1       3.760   6.756  18.978  0.00  0.00    +0.000 HD
ENDBRANCH   1  16
BRANCH   4  19
ATOM     19  C   UNL     1      -0.366  11.410  19.515  0.00  0.00    +0.000 C 
BRANCH  19  20
ATOM     20  C   UNL     1       0.019  12.352  20.646  0.00  0.00    +0.000 C 
ATOM     21  O   UNL     1       1.106  12.252  21.226  0.00  0.00    +0.000 OA
ATOM     22  N   UNL     1      -0.901  13.347  21.006  0.00  0.00    +0.000 N 
ATOM     23  C   UNL     1      -0.498  14.174  22.168  0.00  0.00    +0.000 C 
ATOM     24  C   UNL     1      -1.172  13.495  23.362  0.00  0.00    +0.000 C 
ATOM     25  C   UNL     1      -2.467  13.157  22.684  0.00  0.00    +0.000 A 
ATOM     26  C   UNL     1      -3.728  13.057  23.238  0.00  0.00    +0.000 A 
ATOM     27  C   UNL     1      -4.802  12.868  22.368  0.00  0.00    +0.000 A 
ATOM     28  C   UNL     1      -4.590  12.739  20.979  0.00  0.00    +0.000 A 
ATOM     29  C   UNL     1      -3.301  12.795  20.431  0.00  0.00    +0.000 A 
ATOM     30  C   UNL     1      -2.251  13.010  21.302  0.00  0.00    +0.000 A 
ENDBRANCH  19  20
ENDBRANCH   4  19
TORSDOF 3
ENDMDL
MODEL 4
REMARK VINA RESULT:      -8.8      2.745      4.085
REMARK  Name = 
REMARK  4 active torsions:
REMARK  status: ('A' for Active; 'I' for Inactive)
REMARK    1  A    between atoms: C_1  and  C_2
REMARK    2  A    between atoms: N_10  and  C_11
REMARK    3  A    between atoms: C_14  and  C_15
REMARK    4  A    between atoms: C_15  and  C_16
REMARK                            x       y       z     vdW  Elec       q    Type
REMARK                         _______ _______ _______ _____ _____    ______ ____
ROOT
ATOM      1  C   UNL     1       2.128   7.815  19.260  0.00  0.00    +0.000 A 
ATOM      2  C   UNL     1       1.498   8.356  20.384  0.00  0.00    +0.000 A 
ATOM      3  C   UNL     1       0.650   9.466  20.281  0.00  0.00    +0.000 A 
ATOM      4  C   UNL     1       0.390  10.055  19.041  0.00  0.00    +0.000 A 
ATOM      5  C   UNL     1       1.023   9.531  17.909  0.00  0.00    +0.000 A 
ATOM      6  C   UNL     1       1.879   8.420  18.023  0.00  0.00    +0.000 A 
ENDROOT
BRANCH   1  16
ATOM      7  C   UNL     1       5.917   4.985  18.995  0.00  0.00    +0.000 C 
ATOM      8  C   UNL     1       4.877   4.039  19.457  0.00  0.00    +0.000 A 
ATOM      9  N   UNL     1       5.198   2.753  19.652  0.00  0.00    +0.000 NA
ATOM     10  O   UNL     1       4.035   2.142  20.090  0.00  0.00    +0.000 OA
ATOM     11  C   UNL     1       3.032   3.061  20.151  0.00  0.00    +0.000 A 
ATOM     12  N   UNL     1       1.786   2.754  20.541  0.00  0.00    +0.000 NA
ATOM     13  C   UNL     1       0.997   3.830  20.519  0.00  0.00    +0.000 A 
ATOM     14  N   UNL     1       1.327   5.079  20.151  0.00  0.00    +0.000 NA
ATOM     15  C   UNL     1       2.600   5.360  19.751  0.00  0.00    +0.000 A 
ATOM     16  N   UNL     1       2.927   6.653  19.314  0.00  0.00    +0.000 N 
ATOM     17  C   UNL     1       3.515   4.291  19.754  0.00  0.00    +0.000 A 
ATOM     18  H   UNL     1       3.832   6.752  18.881  0.00  0.00    +0.000 HD
ENDBRANCH   1  16
BRANCH   4  19
ATOM     19  C   UNL     1      -0.499  11.285  18.941  0.00  0.00    +0.000 C 
BRANCH  19  20
ATOM     20  C   UNL     1       0.220  12.554  19.374  0.00  0.00    +0.000 C 
ATOM     21  O   UNL     1       1.426  12.717  19.159  0.00  0.00    +0.000 OA
ATOM     22  N   UNL     1      -0.537  13.543  20.020  0.00  0.00    +0.000 N 
ATOM     23  C   UNL     1       0.243  14.714  20.488  0.00  0.00    +0.000 C 
ATOM     24  C   UNL     1       0.568  14.388  21.946  0.00  0.00    +0.000 C 
ATOM     25  C   UNL     1      -0.749  13.765  22.303  0.00  0.00    +0.000 A 
ATOM     26  C   UNL     1      -1.392  13.749  23.525  0.00  0.00    +0.000 A 
ATOM     27  C   UNL     1      -2.683  13.225  23.569  0.00  0.00    +0.000 A 
ATOM     28  C   UNL     1      -3.284  12.691  22.409  0.00  0.00    +0.000 A 
ATOM     29  C   UNL     1      -2.605  12.669  21.182  0.00  0.00    +0.000 A 
ATOM     30  C   UNL     1      -1.338  13.217  21.149  0.00  0.00    +0.000 A 
ENDBRANCH  19  20
ENDBRANCH   4  19
TORSDOF 3
ENDMDL
MODEL 5
REMARK VINA RESULT:      -8.8      2.823      4.432
REMARK  Name = 
REMARK  4 active torsions:
REMARK  status: ('A' for Active; 'I' for Inactive)
REMARK    1  A    between atoms: C_1  and  C_2
REMARK    2  A    between atoms: N_10  and  C_11
REMARK    3  A    between atoms: C_14  and  C_15
REMARK    4  A    between atoms: C_15  and  C_16
REMARK                            x       y       z     vdW  Elec       q    Type
REMARK                         _______ _______ _______ _____ _____    ______ ____
ROOT
ATOM      1  C   UNL     1       2.131   7.805  19.205  0.00  0.00    +0.000 A 
ATOM      2  C   UNL     1       1.450   8.329  20.307  0.00  0.00    +0.000 A 
ATOM      3  C   UNL     1       0.606   9.440  20.182  0.00  0.00    +0.000 A 
ATOM      4  C   UNL     1       0.399  10.045  18.940  0.00  0.00    +0.000 A 
ATOM      5  C   UNL     1       1.082   9.537  17.829  0.00  0.00    +0.000 A 
ATOM      6  C   UNL     1       1.934   8.426  17.966  0.00  0.00    +0.000 A 
ENDROOT
BRANCH   1  16
ATOM      7  C   UNL     1       5.923   4.973  19.012  0.00  0.00    +0.000 C 
ATOM      8  C   UNL     1       4.877   4.030  19.467  0.00  0.00    +0.000 A 
ATOM      9  N   UNL     1       5.195   2.746  19.676  0.00  0.00    +0.000 NA
ATOM     10  O   UNL     1       4.026   2.138  20.102  0.00  0.00    +0.000 OA
ATOM     11  C   UNL     1       3.022   3.058  20.143  0.00  0.00    +0.000 A 
ATOM     12  N   UNL     1       1.771   2.753  20.518  0.00  0.00    +0.000 NA
ATOM     13  C   UNL     1       0.983   3.829  20.478  0.00  0.00    +0.000 A 
ATOM     14  N   UNL     1       1.317   5.075  20.105  0.00  0.00    +0.000 NA
ATOM     15  C   UNL     1       2.596   5.353  19.721  0.00  0.00    +0.000 A 
ATOM     16  N   UNL     1       2.928   6.643  19.278  0.00  0.00    +0.000 N 
ATOM     17  C   UNL     1       3.510   4.285  19.744  0.00  0.00    +0.000 A 
ATOM     18  H   UNL     1       3.839   6.739  18.857  0.00  0.00    +0.000 HD
ENDBRANCH   1  16
BRANCH   4  19
ATOM     19  C   UNL     1      -0.487  11.275  18.817  0.00  0.00    +0.000 C 
BRANCH  19  20
ATOM     20  C   UNL     1      -0.505  12.104  20.093  0.00  0.00    +0.000 C 
ATOM     21  O   UNL     1      -1.519  12.186  20.794  0.00  0.00    +0.000 OA
ATOM     22  N   UNL     1       0.677  12.770  20.452  0.00  0.00    +0.000 N 
ATOM     23  C   UNL     1       0.564  13.625  21.658  0.00  0.00    +0.000 C 
ATOM     24  C   UNL     1       0.265  15.018  21.102  0.00  0.00    +0.000 C 
ATOM     25  C   UNL     1       1.181  14.953  19.916  0.00  0.00    +0.000 A 
ATOM     26  C   UNL     1       1.858  15.982  19.293  0.00  0.00    +0.000 A 
ATOM     27  C   UNL     1       2.766  15.643  18.290  0.00  0.00    +0.000 A 
ATOM     28  C   UNL     1       2.946  14.299  17.904  0.00  0.00    +0.000 A 
ATOM     29  C   UNL     1       2.219  13.264  18.511  0.00  0.00    +0.000 A 
ATOM     30  C   UNL     1       1.343  13.613  19.521  0.00  0.00    +0.000 A 
ENDBRANCH  19  20
ENDBRANCH   4  19
TORSDOF 3
ENDMDL
MODEL 6
REMARK VINA RESULT:      -8.8      2.915      9.462
REMARK  Name = 
REMARK  4 active torsions:
REMARK  status: ('A' for Active; 'I' for Inactive)
REMARK    1  A    between atoms: C_1  and  C_2
REMARK    2  A    between atoms: N_10  and  C_11
REMARK    3  A    between atoms: C_14  and  C_15
REMARK    4  A    between atoms: C_15  and  C_16
REMARK                            x       y       z     vdW  Elec       q    Type
REMARK                         _______ _______ _______ _____ _____    ______ ____
ROOT
ATOM      1  C   UNL     1       0.466  10.003  20.164  0.00  0.00    +0.000 A 
ATOM      2  C   UNL     1       1.180   8.898  20.637  0.00  0.00    +0.000 A 
ATOM      3  C   UNL     1       1.834   8.023  19.760  0.00  0.00    +0.000 A 
ATOM      4  C   UNL     1       1.814   8.244  18.381  0.00  0.00    +0.000 A 
ATOM      5  C   UNL     1       1.095   9.341  17.893  0.00  0.00    +0.000 A 
ATOM      6  C   UNL     1       0.433  10.209  18.780  0.00  0.00    +0.000 A 
ENDROOT
BRANCH   1  16
ATOM      7  C   UNL     1      -2.582  11.938  23.230  0.00  0.00    +0.000 C 
ATOM      8  C   UNL     1      -1.599  13.032  23.065  0.00  0.00    +0.000 A 
ATOM      9  N   UNL     1      -1.782  14.185  23.721  0.00  0.00    +0.000 NA
ATOM     10  O   UNL     1      -0.705  14.985  23.376  0.00  0.00    +0.000 OA
ATOM     11  C   UNL     1       0.108  14.309  22.518  0.00  0.00    +0.000 A 
ATOM     12  N   UNL     1       1.231  14.838  22.011  0.00  0.00    +0.000 NA
ATOM     13  C   UNL     1       1.848  13.972  21.205  0.00  0.00    +0.000 A 
ATOM     14  N   UNL     1       1.451  12.730  20.880  0.00  0.00    +0.000 NA
ATOM     15  C   UNL     1       0.300  12.222  21.405  0.00  0.00    +0.000 A 
ATOM     16  N   UNL     1      -0.141  10.946  21.020  0.00  0.00    +0.000 N 
ATOM     17  C   UNL     1      -0.418  13.056  22.282  0.00  0.00    +0.000 A 
ATOM     18  H   UNL     1      -1.073  10.699  21.313  0.00  0.00    +0.000 HD
ENDBRANCH   1  16
BRANCH   4  19
ATOM     19  C   UNL     1       2.492   7.269  17.432  0.00  0.00    +0.000 C 
BRANCH  19  20
ATOM     20  C   UNL     1       3.814   6.752  17.981  0.00  0.00    +0.000 C 
ATOM     21  O   UNL     1       4.892   7.251  17.642  0.00  0.00    +0.000 OA
ATOM     22  N   UNL     1       3.767   5.689  18.895  0.00  0.00    +0.000 N 
ATOM     23  C   UNL     1       5.092   5.182  19.325  0.00  0.00    +0.000 C 
ATOM     24  C   UNL     1       5.365   4.007  18.384  0.00  0.00    +0.000 C 
ATOM     25  C   UNL     1       3.968   3.461  18.347  0.00  0.00    +0.000 A 
ATOM     26  C   UNL     1       3.559   2.153  18.184  0.00  0.00    +0.000 A 
ATOM     27  C   UNL     1       2.199   1.879  18.328  0.00  0.00    +0.000 A 
ATOM     28  C   UNL     1       1.278   2.916  18.587  0.00  0.00    +0.000 A 
ATOM     29  C   UNL     1       1.698   4.249  18.704  0.00  0.00    +0.000 A 
ATOM     30  C   UNL     1       3.051   4.500  18.585  0.00  0.00    +0.000 A 
ENDBRANCH  19  20
ENDBRANCH   4  19
TORSDOF 3
ENDMDL
MODEL 7
REMARK VINA RESULT:      -8.7      2.384      3.290
REMARK  Name = 
REMARK  4 active torsions:
REMARK  status: ('A' for Active; 'I' for Inactive)
REMARK    1  A    between atoms: C_1  and  C_2
REMARK    2  A    between atoms: N_10  and  C_11
REMARK    3  A    between atoms: C_14  and  C_15
REMARK    4  A    between atoms: C_15  and  C_16
REMARK                            x       y       z     vdW  Elec       q    Type
REMARK                         _______ _______ _______ _____ _____    ______ ____
ROOT
ATOM      1  C   UNL     1       2.194   8.208  18.654  0.00  0.00    +0.000 A 
ATOM      2  C   UNL     1       1.587   9.214  17.897  0.00  0.00    +0.000 A 
ATOM      3  C   UNL     1       0.614  10.056  18.451  0.00  0.00    +0.000 A 
ATOM      4  C   UNL     1       0.237   9.930  19.790  0.00  0.00    +0.000 A 
ATOM      5  C   UNL     1       0.828   8.920  20.557  0.00  0.00    +0.000 A 
ATOM      6  C   UNL     1       1.799   8.074  19.990  0.00  0.00    +0.000 A 
ENDROOT
BRANCH   1  16
ATOM      7  C   UNL     1       6.484   6.834  17.191  0.00  0.00    +0.000 C 
ATOM      8  C   UNL     1       5.712   5.579  17.052  0.00  0.00    +0.000 A 
ATOM      9  N   UNL     1       6.320   4.481  16.583  0.00  0.00    +0.000 NA
ATOM     10  O   UNL     1       5.353   3.490  16.586  0.00  0.00    +0.000 OA
ATOM     11  C   UNL     1       4.179   4.000  17.052  0.00  0.00    +0.000 A 
ATOM     12  N   UNL     1       3.060   3.268  17.164  0.00  0.00    +0.000 NA
ATOM     13  C   UNL     1       2.055   3.998  17.650  0.00  0.00    +0.000 A 
ATOM     14  N   UNL     1       2.076   5.299  17.986  0.00  0.00    +0.000 NA
ATOM     15  C   UNL     1       3.226   6.020  17.854  0.00  0.00    +0.000 A 
ATOM     16  N   UNL     1       3.230   7.392  18.153  0.00  0.00    +0.000 N 
ATOM     17  C   UNL     1       4.351   5.333  17.362  0.00  0.00    +0.000 A 
ATOM     18  H   UNL     1       4.059   7.896  17.879  0.00  0.00    +0.000 HD
ENDBRANCH   1  16
BRANCH   4  19
ATOM     19  C   UNL     1      -0.849  10.821  20.375  0.00  0.00    +0.000 C 
BRANCH  19  20
ATOM     20  C   UNL     1      -0.276  12.018  21.119  0.00  0.00    +0.000 C 
ATOM     21  O   UNL     1       0.875  12.006  21.570  0.00  0.00    +0.000 OA
ATOM     22  N   UNL     1      -1.099  13.143  21.272  0.00  0.00    +0.000 N 
ATOM     23  C   UNL     1      -0.509  14.238  22.078  0.00  0.00    +0.000 C 
ATOM     24  C   UNL     1      -1.041  13.991  23.491  0.00  0.00    +0.000 C 
ATOM     25  C   UNL     1      -2.428  13.573  23.103  0.00  0.00    +0.000 A 
ATOM     26  C   UNL     1      -3.605  13.737  23.807  0.00  0.00    +0.000 A 
ATOM     27  C   UNL     1      -4.794  13.387  23.167  0.00  0.00    +0.000 A 
ATOM     28  C   UNL     1      -4.779  12.845  21.865  0.00  0.00    +0.000 A 
ATOM     29  C   UNL     1      -3.574  12.638  21.176  0.00  0.00    +0.000 A 
ATOM     30  C   UNL     1      -2.408  13.014  21.813  0.00  0.00    +0.000 A 
ENDBRANCH  19  20
ENDBRANCH   4  19
TORSDOF 3
ENDMDL
MODEL 8
REMARK VINA RESULT:      -8.7      2.846      3.909
REMARK  Name = 
REMARK  4 active torsions:
REMARK  status: ('A' for Active; 'I' for Inactive)
REMARK    1  A    between atoms: C_1  and  C_2
REMARK    2  A    between atoms: N_10  and  C_11
REMARK    3  A    between atoms: C_14  and  C_15
REMARK    4  A    between atoms: C_15  and  C_16
REMARK                            x       y       z     vdW  Elec       q    Type
REMARK                         _______ _______ _______ _____ _____    ______ ____
ROOT
ATOM      1  C   UNL     1       2.265   7.630  18.697  0.00  0.00    +0.000 A 
ATOM      2  C   UNL     1       1.750   8.016  19.937  0.00  0.00    +0.000 A 
ATOM      3  C   UNL     1       1.300   9.323  20.165  0.00  0.00    +0.000 A 
ATOM      4  C   UNL     1       1.330  10.278  19.145  0.00  0.00    +0.000 A 
ATOM      5  C   UNL     1       1.853   9.908  17.901  0.00  0.00    +0.000 A 
ATOM      6  C   UNL     1       2.311   8.595  17.684  0.00  0.00    +0.000 A 
ENDROOT
BRANCH   1  16
ATOM      7  C   UNL     1       4.473   3.971  16.654  0.00  0.00    +0.000 C 
ATOM      8  C   UNL     1       3.673   3.286  17.695  0.00  0.00    +0.000 A 
ATOM      9  N   UNL     1       3.732   1.952  17.797  0.00  0.00    +0.000 NA
ATOM     10  O   UNL     1       2.900   1.623  18.854  0.00  0.00    +0.000 OA
ATOM     11  C   UNL     1       2.351   2.757  19.372  0.00  0.00    +0.000 A 
ATOM     12  N   UNL     1       1.498   2.745  20.407  0.00  0.00    +0.000 NA
ATOM     13  C   UNL     1       1.112   3.982  20.724  0.00  0.00    +0.000 A 
ATOM     14  N   UNL     1       1.468   5.130  20.124  0.00  0.00    +0.000 NA
ATOM     15  C   UNL     1       2.331   5.110  19.069  0.00  0.00    +0.000 A 
ATOM     16  N   UNL     1       2.657   6.305  18.409  0.00  0.00    +0.000 N 
ATOM     17  C   UNL     1       2.809   3.850  18.666  0.00  0.00    +0.000 A 
ATOM     18  H   UNL     1       3.164   6.202  17.543  0.00  0.00    +0.000 HD
ENDBRANCH   1  16
BRANCH   4  19
ATOM     19  C   UNL     1       0.877  11.706  19.409  0.00  0.00    +0.000 C 
BRANCH  19  20
ATOM     20  C   UNL     1      -0.519  11.979  18.870  0.00  0.00    +0.000 C 
ATOM     21  O   UNL     1      -0.694  12.628  17.833  0.00  0.00    +0.000 OA
ATOM     22  N   UNL     1      -1.606  11.460  19.589  0.00  0.00    +0.000 N 
ATOM     23  C   UNL     1      -2.937  11.835  19.054  0.00  0.00    +0.000 C 
ATOM     24  C   UNL     1      -3.333  13.069  19.867  0.00  0.00    +0.000 C 
ATOM     25  C   UNL     1      -2.801  12.606  21.191  0.00  0.00    +0.000 A 
ATOM     26  C   UNL     1      -3.265  12.902  22.457  0.00  0.00    +0.000 A 
ATOM     27  C   UNL     1      -2.683  12.230  23.532  0.00  0.00    +0.000 A 
ATOM     28  C   UNL     1      -1.628  11.316  23.325  0.00  0.00    +0.000 A 
ATOM     29  C   UNL     1      -1.132  11.057  22.039  0.00  0.00    +0.000 A 
ATOM     30  C   UNL     1      -1.737  11.710  20.983  0.00  0.00    +0.000 A 
ENDBRANCH  19  20
ENDBRANCH   4  19
TORSDOF 3
ENDMDL
MODEL 9
REMARK VINA RESULT:      -8.7      2.691      8.908
REMARK  Name = 
REMARK  4 active torsions:
REMARK  status: ('A' for Active; 'I' for Inactive)
REMARK    1  A    between atoms: C_1  and  C_2
REMARK    2  A    between atoms: N_10  and  C_11
REMARK    3  A    between atoms: C_14  and  C_15
REMARK    4  A    between atoms: C_15  and  C_16
REMARK                            x       y       z     vdW  Elec       q    Type
REMARK                         _______ _______ _______ _____ _____    ______ ____
ROOT
ATOM      1  C   UNL     1       1.682   8.568  18.672  0.00  0.00    +0.000 A 
ATOM      2  C   UNL     1       2.567   8.524  17.591  0.00  0.00    +0.000 A 
ATOM      3  C   UNL     1       3.587   7.566  17.522  0.00  0.00    +0.000 A 
ATOM      4  C   UNL     1       3.735   6.605  18.525  0.00  0.00    +0.000 A 
ATOM      5  C   UNL     1       2.862   6.643  19.618  0.00  0.00    +0.000 A 
ATOM      6  C   UNL     1       1.847   7.614  19.683  0.00  0.00    +0.000 A 
ENDROOT
BRANCH   1  16
ATOM      7  C   UNL     1      -2.108  11.096  17.377  0.00  0.00    +0.000 C 
ATOM      8  C   UNL     1      -1.966  11.489  18.797  0.00  0.00    +0.000 A 
ATOM      9  N   UNL     1      -2.821  12.375  19.323  0.00  0.00    +0.000 NA
ATOM     10  O   UNL     1      -2.441  12.519  20.647  0.00  0.00    +0.000 OA
ATOM     11  C   UNL     1      -1.364  11.724  20.901  0.00  0.00    +0.000 A 
ATOM     12  N   UNL     1      -0.775  11.659  22.104  0.00  0.00    +0.000 NA
ATOM     13  C   UNL     1       0.250  10.804  22.091  0.00  0.00    +0.000 A 
ATOM     14  N   UNL     1       0.703  10.085  21.050  0.00  0.00    +0.000 NA
ATOM     15  C   UNL     1       0.088  10.178  19.837  0.00  0.00    +0.000 A 
ATOM     16  N   UNL     1       0.598   9.469  18.738  0.00  0.00    +0.000 N 
ATOM     17  C   UNL     1      -1.016  11.045  19.751  0.00  0.00    +0.000 A 
ATOM     18  H   UNL     1       0.202   9.707  17.842  0.00  0.00    +0.000 HD
ENDBRANCH   1  16
BRANCH   4  19
ATOM     19  C   UNL     1       4.869   5.593  18.465  0.00  0.00    +0.000 C 
BRANCH  19  20
ATOM     20  C   UNL     1       4.476   4.329  17.715  0.00  0.00    +0.000 C 
ATOM     21  O   UNL     1       4.451   4.293  16.480  0.00  0.00    +0.000 OA
ATOM     22  N   UNL     1       4.147   3.197  18.476  0.00  0.00    +0.000 N 
ATOM     23  C   UNL     1       3.693   2.028  17.684  0.00  0.00    +0.000 C 
ATOM     24  C   UNL     1       2.168   2.143  17.689  0.00  0.00    +0.000 C 
ATOM     25  C   UNL     1       2.014   2.601  19.109  0.00  0.00    +0.000 A 
ATOM     26  C   UNL     1       0.964   2.376  19.977  0.00  0.00    +0.000 A 
ATOM     27  C   UNL     1       1.121   2.789  21.300  0.00  0.00    +0.000 A 
ATOM     28  C   UNL     1       2.295   3.453  21.714  0.00  0.00    +0.000 A 
ATOM     29  C   UNL     1       3.336   3.719  20.813  0.00  0.00    +0.000 A 
ATOM     30  C   UNL     1       3.177   3.280  19.513  0.00  0.00    +0.000 A 
ENDBRANCH  19  20
ENDBRANCH   4  19
TORSDOF 3
ENDMDL
